# generated using pymatgen
data_Ba17Sr5La8Pr42Mn72O216
_symmetry_space_group_name_H-M   'P 1'
_cell_length_a   16.67257360
_cell_length_b   15.70362688
_cell_length_c   16.81833005
_cell_angle_alpha   90.00249366
_cell_angle_beta   90.00076821
_cell_angle_gamma   89.97826089
_symmetry_Int_Tables_number   1
_chemical_formula_structural   Ba17Sr5La8Pr42Mn72O216
_chemical_formula_sum   'Ba17 Sr5 La8 Pr42 Mn72 O216'
_cell_volume   4403.37274882
_cell_formula_units_Z   1
loop_
 _symmetry_equiv_pos_site_id
 _symmetry_equiv_pos_as_xyz
  1  'x, y, z'
loop_
 _atom_site_type_symbol
 _atom_site_label
 _atom_site_symmetry_multiplicity
 _atom_site_fract_x
 _atom_site_fract_y
 _atom_site_fract_z
 _atom_site_occupancy
  Ba  Ba0  1  0.50125789  0.37423071  0.16639731  1
  Ba  Ba1  1  0.66462747  0.12371261  0.66224821  1
  Ba  Ba2  1  -0.00053014  0.12491859  0.33466805  1
  Ba  Ba3  1  0.83268396  0.87480617  0.16283291  1
  Ba  Ba4  1  0.16757026  0.62690420  0.83754606  1
  Ba  Ba5  1  -0.00161990  0.37399048  0.00013073  1
  Ba  Ba6  1  0.83451167  0.37510759  0.16225356  1
  Ba  Ba7  1  0.50177726  0.62319419  0.16734470  1
  Ba  Ba8  1  0.16826808  0.62681153  0.50307743  1
  Ba  Ba9  1  0.33462303  0.87714761  0.33780043  1
  Ba  Ba10  1  0.33556099  0.37465123  0.67040201  1
  Ba  Ba11  1  0.16807720  0.62534721  0.17038682  1
  Ba  Ba12  1  0.00257732  0.62459888  0.33407631  1
  Ba  Ba13  1  0.33438053  0.37479417  0.00285491  1
  Ba  Ba14  1  0.16791918  0.87823063  0.17012286  1
  Ba  Ba15  1  -0.00113275  0.37492618  0.66918778  1
  Ba  Ba16  1  0.83085152  0.12352585  0.82728200  1
  Sr  Sr17  1  0.33631134  0.62363691  1.00374741  1
  Sr  Sr18  1  0.66786523  0.62617102  0.32590591  1
  Sr  Sr19  1  -0.00174313  0.12593189  0.66190644  1
  Sr  Sr20  1  0.16407697  0.12748464  0.17051064  1
  Sr  Sr21  1  0.49966104  0.62427664  0.83809807  1
  La  La22  1  0.66614049  0.12435586  0.99124584  1
  La  La23  1  0.49552826  0.12527259  0.16575595  1
  La  La24  1  0.16772565  0.37452126  0.50260674  1
  La  La25  1  0.00236625  0.37553665  0.33365409  1
  La  La26  1  0.33565797  0.37850222  0.33681398  1
  La  La27  1  0.66464776  0.87543329  0.66296957  1
  La  La28  1  0.49522318  0.12342443  0.50300848  1
  La  La29  1  0.83462849  0.12569761  0.16123550  1
  Pr  Pr30  1  0.83081631  0.87583964  0.82850932  1
  Pr  Pr31  1  0.00390927  0.62465410  0.66027397  1
  Pr  Pr32  1  0.66791728  0.37455569  -0.00114551  1
  Pr  Pr33  1  0.16487339  0.37425364  0.16829108  1
  Pr  Pr34  1  0.66650423  0.37592857  0.66548220  1
  Pr  Pr35  1  0.83214362  0.87781562  0.49006432  1
  Pr  Pr36  1  0.33417738  0.62254353  0.67021453  1
  Pr  Pr37  1  0.50292525  0.37072068  0.49523265  1
  Pr  Pr38  1  -0.00267523  0.87343782  0.66888082  1
  Pr  Pr39  1  0.16612752  0.12176843  0.50859960  1
  Pr  Pr40  1  0.15990898  0.13060158  0.83587564  1
  Pr  Pr41  1  0.49691687  0.62574426  0.49936613  1
  Pr  Pr42  1  0.16068869  0.87654085  0.49772020  1
  Pr  Pr43  1  0.66950716  0.62402534  0.99648055  1
  Pr  Pr44  1  0.66407120  0.62803612  0.65947058  1
  Pr  Pr45  1  0.33132868  0.87361514  0.67150490  1
  Pr  Pr46  1  0.66654018  0.12356113  0.32678735  1
  Pr  Pr47  1  0.67009898  0.38055433  0.33068432  1
  Pr  Pr48  1  0.50338517  0.87733354  0.49617367  1
  Pr  Pr49  1  0.83247737  0.37387041  0.82758186  1
  Pr  Pr50  1  0.00308212  0.62707025  1.00277236  1
  Pr  Pr51  1  0.16843797  0.87644699  0.83627955  1
  Pr  Pr52  1  0.32769144  0.12506792  0.33515324  1
  Pr  Pr53  1  0.33390052  0.87003739  0.00866083  1
  Pr  Pr54  1  0.83394827  0.62349301  0.49994793  1
  Pr  Pr55  1  0.50168265  0.87277712  0.16430276  1
  Pr  Pr56  1  0.32878686  0.12690541  0.66930522  1
  Pr  Pr57  1  0.00001107  0.87390646  0.00267435  1
  Pr  Pr58  1  0.83480018  0.37128570  0.49400469  1
  Pr  Pr59  1  0.17294609  0.37799671  0.83171949  1
  Pr  Pr60  1  0.50390163  0.37966097  0.83280738  1
  Pr  Pr61  1  0.83815523  0.62431456  0.83128670  1
  Pr  Pr62  1  0.66601981  0.87052780  0.32918584  1
  Pr  Pr63  1  0.50008368  0.87067480  0.83273277  1
  Pr  Pr64  1  0.83378493  0.12563121  0.50488884  1
  Pr  Pr65  1  0.49357138  0.12479787  0.83746980  1
  Pr  Pr66  1  0.00028930  0.12167376  1.00110532  1
  Pr  Pr67  1  0.66376656  0.87481155  -0.00377565  1
  Pr  Pr68  1  0.32320764  0.12611726  1.00387224  1
  Pr  Pr69  1  0.00309725  0.87377323  0.33262316  1
  Pr  Pr70  1  0.83645799  0.62264506  0.16717881  1
  Pr  Pr71  1  0.33418551  0.62625955  0.32892620  1
  Mn  Mn72  1  -0.00040510  0.00071188  0.16676672  1
  Mn  Mn73  1  -0.00137044  -0.00013564  0.50135474  1
  Mn  Mn74  1  -0.00082397  -0.00059596  0.83276100  1
  Mn  Mn75  1  0.00084024  0.49941981  0.16693484  1
  Mn  Mn76  1  -0.00064608  0.49913003  0.50113752  1
  Mn  Mn77  1  -0.00070690  0.50114785  0.83473730  1
  Mn  Mn78  1  0.33435539  0.00107301  0.16915249  1
  Mn  Mn79  1  0.33344294  0.00010879  0.50630129  1
  Mn  Mn80  1  0.33251324  -0.00047169  0.83817869  1
  Mn  Mn81  1  0.33372311  0.49935543  0.16903178  1
  Mn  Mn82  1  0.33610326  0.50056938  0.50307825  1
  Mn  Mn83  1  0.33543991  0.50141573  0.83668360  1
  Mn  Mn84  1  0.66553884  0.00035588  0.16116617  1
  Mn  Mn85  1  0.66676629  -0.00092302  0.49345253  1
  Mn  Mn86  1  0.66323431  -0.00271780  0.82936080  1
  Mn  Mn87  1  0.66826726  0.49977150  0.16335355  1
  Mn  Mn88  1  0.66615848  0.50203578  0.49786336  1
  Mn  Mn89  1  0.66747140  0.50234535  0.82994814  1
  Mn  Mn90  1  0.00019081  0.24810470  0.16753531  1
  Mn  Mn91  1  0.00086455  0.25118844  0.50014005  1
  Mn  Mn92  1  -0.00238752  0.24894214  0.83416200  1
  Mn  Mn93  1  0.00006491  0.75146233  0.16701524  1
  Mn  Mn94  1  -0.00306539  0.75083343  0.50228250  1
  Mn  Mn95  1  -0.00098993  0.75225722  0.83362862  1
  Mn  Mn96  1  0.33222786  0.24702893  0.17054276  1
  Mn  Mn97  1  0.33437587  0.24907254  0.50326507  1
  Mn  Mn98  1  0.33399791  0.24796537  0.83662303  1
  Mn  Mn99  1  0.33515796  0.75015971  0.16988498  1
  Mn  Mn100  1  0.33550059  0.74982180  0.50472758  1
  Mn  Mn101  1  0.33429798  0.75193349  0.83800817  1
  Mn  Mn102  1  0.66697274  0.24718289  0.16168543  1
  Mn  Mn103  1  0.66654172  0.25090158  0.49479710  1
  Mn  Mn104  1  0.66296615  0.25102855  0.82996425  1
  Mn  Mn105  1  0.66755509  0.75108496  0.16247264  1
  Mn  Mn106  1  0.66641562  0.74832642  0.49560319  1
  Mn  Mn107  1  0.66723998  0.74925829  0.82886448  1
  Mn  Mn108  1  0.16460695  0.24943670  0.00263733  1
  Mn  Mn109  1  0.16843555  0.25047845  0.33667653  1
  Mn  Mn110  1  0.16569639  0.24905190  0.67000269  1
  Mn  Mn111  1  0.16784468  0.75049129  0.00223332  1
  Mn  Mn112  1  0.16801713  0.75182176  0.33777515  1
  Mn  Mn113  1  0.16729492  0.75315661  0.66980242  1
  Mn  Mn114  1  0.50001136  0.24786549  -0.00047308  1
  Mn  Mn115  1  0.50187177  0.24713408  0.33422856  1
  Mn  Mn116  1  0.49993853  0.25013339  0.66768990  1
  Mn  Mn117  1  0.50125870  0.74928551  -0.00142518  1
  Mn  Mn118  1  0.50186415  0.75097334  0.33394687  1
  Mn  Mn119  1  0.49861096  0.74943496  0.66631721  1
  Mn  Mn120  1  0.83185801  0.24768595  -0.00430999  1
  Mn  Mn121  1  0.83195096  0.24848272  0.33115420  1
  Mn  Mn122  1  0.83151339  0.25070521  0.66274946  1
  Mn  Mn123  1  0.83370389  0.74925607  -0.00471713  1
  Mn  Mn124  1  0.83324430  0.74986290  0.33043382  1
  Mn  Mn125  1  0.83124196  0.75050094  0.66355183  1
  Mn  Mn126  1  0.16676866  0.00110124  -0.00050054  1
  Mn  Mn127  1  0.16538333  0.00110224  0.33768101  1
  Mn  Mn128  1  0.16586740  -0.00259839  0.67006665  1
  Mn  Mn129  1  0.16663548  0.49924264  0.00207865  1
  Mn  Mn130  1  0.16986324  0.49695537  0.33595526  1
  Mn  Mn131  1  0.16700748  0.50084976  0.66977114  1
  Mn  Mn132  1  0.49856577  -0.00064314  0.00019130  1
  Mn  Mn133  1  0.50211499  0.00247635  0.33300884  1
  Mn  Mn134  1  0.49714068  -0.00181030  0.66794071  1
  Mn  Mn135  1  0.50230778  0.50113808  -0.00123498  1
  Mn  Mn136  1  0.50229889  0.49890078  0.33565343  1
  Mn  Mn137  1  0.50132125  0.50241142  0.66649663  1
  Mn  Mn138  1  0.83230235  -0.00128554  -0.00424776  1
  Mn  Mn139  1  0.83184420  0.00115045  0.33047014  1
  Mn  Mn140  1  0.83354558  -0.00237221  0.66105665  1
  Mn  Mn141  1  0.83357472  0.50336936  -0.00383766  1
  Mn  Mn142  1  0.83332610  0.50061499  0.33190416  1
  Mn  Mn143  1  0.83016896  0.50231824  0.66562379  1
  O  O144  1  0.16305598  0.12424390  0.02044277  1
  O  O145  1  0.17067835  0.12638644  0.36479099  1
  O  O146  1  0.16406892  0.11940071  0.69129411  1
  O  O147  1  0.15676822  0.62572015  0.01255637  1
  O  O148  1  0.17542878  0.62431499  0.34630014  1
  O  O149  1  0.15983802  0.62841760  0.67959256  1
  O  O150  1  0.51312877  0.11843477  0.02060859  1
  O  O151  1  0.51551957  0.12408046  0.36073330  1
  O  O152  1  0.49706265  0.12141269  0.69379109  1
  O  O153  1  0.50817030  0.62701776  0.00919701  1
  O  O154  1  0.50106559  0.62401272  0.35566527  1
  O  O155  1  0.50621850  0.62710032  0.68955387  1
  O  O156  1  0.81947026  0.12093377  0.01364392  1
  O  O157  1  0.82255198  0.12406460  0.36008961  1
  O  O158  1  0.83194425  0.12208403  0.66974766  1
  O  O159  1  0.82184818  0.62882160  0.02164670  1
  O  O160  1  0.82932891  0.62506224  0.35600915  1
  O  O161  1  0.82193612  0.62814751  0.69024419  1
  O  O162  1  0.17792711  0.37165619  0.31457926  1
  O  O163  1  0.16989163  0.37613073  0.65014743  1
  O  O164  1  0.16663629  0.37059495  0.97565307  1
  O  O165  1  0.16330169  0.87774761  0.33051779  1
  O  O166  1  0.17675821  0.87648924  0.64187615  1
  O  O167  1  0.17098210  0.87898599  0.97940598  1
  O  O168  1  0.49064262  0.37005242  0.32422089  1
  O  O169  1  0.50547205  0.37954842  0.63888744  1
  O  O170  1  0.50815768  0.37502220  0.97746191  1
  O  O171  1  0.50360786  0.88100261  0.30911409  1
  O  O172  1  0.49404959  0.87260254  0.63868739  1
  O  O173  1  0.49326645  0.87802346  0.97670212  1
  O  O174  1  0.83093809  0.37528691  0.31925861  1
  O  O175  1  0.82527368  0.37972574  0.63921247  1
  O  O176  1  0.82918336  0.37831432  0.97222582  1
  O  O177  1  0.83720662  0.87591725  0.31921443  1
  O  O178  1  0.83850266  0.87219185  0.63510247  1
  O  O179  1  0.84396542  0.87259719  0.97254348  1
  O  O180  1  -0.00123179  0.37231381  0.18538854  1
  O  O181  1  -0.00627548  0.37499384  0.51169304  1
  O  O182  1  -0.01459786  0.37433136  0.84477853  1
  O  O183  1  -0.00489010  0.87684216  0.18595987  1
  O  O184  1  -0.00735099  0.87487152  0.52408052  1
  O  O185  1  -0.01089442  0.87551136  0.85962724  1
  O  O186  1  0.32882420  0.36923477  0.19091529  1
  O  O187  1  0.34370883  0.37170404  0.51424884  1
  O  O188  1  0.32576112  0.37136232  0.84532347  1
  O  O189  1  0.34338159  0.87912470  0.17864289  1
  O  O190  1  0.34409019  0.87635193  0.52798733  1
  O  O191  1  0.33017568  0.88001718  0.86563700  1
  O  O192  1  0.66885722  0.36850847  0.18645175  1
  O  O193  1  0.66679308  0.37955649  0.52323840  1
  O  O194  1  0.66313550  0.37849569  0.85450730  1
  O  O195  1  0.66132276  0.87835766  0.18640253  1
  O  O196  1  0.66763407  0.87125081  0.52028831  1
  O  O197  1  0.66516338  0.87175296  0.85190973  1
  O  O198  1  0.00520763  0.12378126  0.14820761  1
  O  O199  1  0.00543251  0.12574278  0.49095076  1
  O  O200  1  0.00906149  0.12121287  0.81051482  1
  O  O201  1  -0.00002559  0.62687542  0.14925095  1
  O  O202  1  -0.00440770  0.62574816  0.49065572  1
  O  O203  1  -0.00340794  0.63095901  0.80335562  1
  O  O204  1  0.33462538  0.12255545  0.14852301  1
  O  O205  1  0.33006085  0.12476644  0.48045430  1
  O  O206  1  0.34120542  0.12036889  0.81002418  1
  O  O207  1  0.33369806  0.62604839  0.15975781  1
  O  O208  1  0.33957210  0.62643602  0.47456356  1
  O  O209  1  0.33863367  0.63046953  0.81355054  1
  O  O210  1  0.66588678  0.12234379  0.13585585  1
  O  O211  1  0.66975332  0.12374695  0.47217447  1
  O  O212  1  0.65680858  0.12191471  0.82031521  1
  O  O213  1  0.67268014  0.62916935  0.14115810  1
  O  O214  1  0.66294902  0.62540253  0.47393987  1
  O  O215  1  0.67059217  0.62747359  0.80205342  1
  O  O216  1  0.08162493  0.00691287  0.25320224  1
  O  O217  1  0.08805520  0.00883167  0.58088620  1
  O  O218  1  0.08553583  0.01563747  0.91283228  1
  O  O219  1  0.08567784  0.49518001  0.25419320  1
  O  O220  1  0.08004837  0.51035042  0.59004404  1
  O  O221  1  0.07749790  0.51194688  0.92234280  1
  O  O222  1  0.41696808  0.02797655  0.25965967  1
  O  O223  1  0.41147754  0.02407026  0.59216451  1
  O  O224  1  0.41101814  0.02586349  0.92850532  1
  O  O225  1  0.41405969  0.51043552  0.26187751  1
  O  O226  1  0.41820542  0.52712050  0.58684114  1
  O  O227  1  0.42325277  0.50736148  0.91437407  1
  O  O228  1  0.74532156  0.02080197  0.24688090  1
  O  O229  1  0.75473078  0.00944410  0.56872770  1
  O  O230  1  0.74529704  0.00277090  0.91418218  1
  O  O231  1  0.75383192  0.51797134  0.24358290  1
  O  O232  1  0.74751007  0.52682238  0.58030834  1
  O  O233  1  0.75487227  0.52383664  0.90648558  1
  O  O234  1  0.25064803  0.22738589  0.25836687  1
  O  O235  1  0.24782958  0.22837506  0.58335477  1
  O  O236  1  0.24641931  0.22668968  0.91597397  1
  O  O237  1  0.25634831  0.74172517  0.25968286  1
  O  O238  1  0.26220264  0.73642373  0.59738262  1
  O  O239  1  0.25682370  0.74213876  0.92431344  1
  O  O240  1  0.58177819  0.22624857  0.24262183  1
  O  O241  1  0.57589330  0.23647249  0.56812988  1
  O  O242  1  0.57206743  0.23484615  0.90537126  1
  O  O243  1  0.58699957  0.74432123  0.25135964  1
  O  O244  1  0.58337697  0.73195976  0.57878776  1
  O  O245  1  0.59296600  0.73851380  0.91899559  1
  O  O246  1  0.90953943  0.23207662  0.24464696  1
  O  O247  1  0.91200006  0.23791927  0.57553905  1
  O  O248  1  0.91711909  0.22934414  0.91752954  1
  O  O249  1  0.91208466  0.73209372  0.24370783  1
  O  O250  1  0.91313073  0.72451174  0.58537296  1
  O  O251  1  0.91740834  0.72188872  0.91516212  1
  O  O252  1  0.08651827  0.48228781  0.08950428  1
  O  O253  1  0.08778441  0.47692376  0.41710892  1
  O  O254  1  0.08675012  0.48395793  0.75896260  1
  O  O255  1  0.07835466  0.98510819  0.07386953  1
  O  O256  1  0.07809734  0.97895507  0.41935148  1
  O  O257  1  0.08290618  0.96948799  0.75024406  1
  O  O258  1  0.41548880  0.49451633  0.08533923  1
  O  O259  1  0.42313456  0.48522442  0.42472144  1
  O  O260  1  0.42366434  0.48771017  0.75354597  1
  O  O261  1  0.42737966  0.98524386  0.08849846  1
  O  O262  1  0.42692797  0.99167514  0.42799751  1
  O  O263  1  0.41700427  0.97328227  0.76104774  1
  O  O264  1  0.74525006  0.48629955  0.06872032  1
  O  O265  1  0.74969409  0.47985513  0.41674246  1
  O  O266  1  0.74647379  0.47513023  0.74581521  1
  O  O267  1  0.74416409  0.98201238  0.07273355  1
  O  O268  1  0.74693140  0.97591569  0.40988425  1
  O  O269  1  0.75027924  0.97616698  0.74099941  1
  O  O270  1  0.24788256  0.25885822  0.08736374  1
  O  O271  1  0.25453815  0.27027510  0.41998297  1
  O  O272  1  0.25051547  0.25259383  0.75411850  1
  O  O273  1  0.25515389  0.76276676  0.08351038  1
  O  O274  1  0.24730786  0.76832167  0.43231549  1
  O  O275  1  0.24926532  0.77472094  0.75852264  1
  O  O276  1  0.59218633  0.26263454  0.07032763  1
  O  O277  1  0.59137992  0.27465442  0.40731137  1
  O  O278  1  0.58630897  0.27497847  0.74257084  1
  O  O279  1  0.58188029  0.77431442  0.08168363  1
  O  O280  1  0.58495538  0.77499089  0.41487599  1
  O  O281  1  0.58205957  0.77313797  0.74645834  1
  O  O282  1  0.91585186  0.24296321  0.07884705  1
  O  O283  1  0.91737223  0.26564723  0.41390425  1
  O  O284  1  0.90886414  0.26156487  0.75032814  1
  O  O285  1  0.92117690  0.75881253  0.07439242  1
  O  O286  1  0.91671112  0.76973785  0.41821282  1
  O  O287  1  0.91427694  0.77314191  0.75016108  1
  O  O288  1  0.24469117  0.48372873  0.09410277  1
  O  O289  1  0.25217106  0.47785846  0.42300299  1
  O  O290  1  0.24857383  0.49301653  0.75449047  1
  O  O291  1  0.25913909  0.98912721  0.07231600  1
  O  O292  1  0.24328050  0.98693393  0.43361683  1
  O  O293  1  0.25096196  0.97724188  0.75318157  1
  O  O294  1  0.58872612  0.48699793  0.07699443  1
  O  O295  1  0.58452259  0.47427892  0.41789802  1
  O  O296  1  0.58529190  0.47847639  0.74649095  1
  O  O297  1  0.58274119  0.97337203  0.07576921  1
  O  O298  1  0.58916930  0.97454082  0.40828977  1
  O  O299  1  0.58209392  0.97259426  0.74367532  1
  O  O300  1  0.91495368  0.50318991  0.08038053  1
  O  O301  1  0.91334074  0.48354053  0.41774543  1
  O  O302  1  0.90533487  0.49145121  0.75576980  1
  O  O303  1  0.91748861  0.99546048  0.07701112  1
  O  O304  1  0.91453924  0.98448351  0.41801425  1
  O  O305  1  0.91518823  0.97685036  0.74905231  1
  O  O306  1  0.08894617  0.26573149  0.09132231  1
  O  O307  1  0.08727237  0.27453615  0.41975743  1
  O  O308  1  0.09051531  0.26631206  0.76362191  1
  O  O309  1  0.07986099  0.76744517  0.08048489  1
  O  O310  1  0.08052457  0.77065818  0.42293321  1
  O  O311  1  0.08209074  0.77962799  0.75397147  1
  O  O312  1  0.42300885  0.24852317  0.08767460  1
  O  O313  1  0.42515978  0.25481393  0.42827941  1
  O  O314  1  0.42697053  0.26369805  0.76653331  1
  O  O315  1  0.41908282  0.76700670  0.08445441  1
  O  O316  1  0.42575791  0.76419448  0.42798128  1
  O  O317  1  0.41291559  0.77519951  0.75071261  1
  O  O318  1  0.74866888  0.26349684  0.07714532  1
  O  O319  1  0.75026846  0.27355480  0.41456504  1
  O  O320  1  0.74730826  0.27181718  0.74734156  1
  O  O321  1  0.74199954  0.76964079  0.06613910  1
  O  O322  1  0.74915284  0.77105700  0.41387238  1
  O  O323  1  0.74796968  0.77760556  0.74187808  1
  O  O324  1  0.25046781  0.01811695  0.25945042  1
  O  O325  1  0.25068600  0.02287500  0.59230306  1
  O  O326  1  0.24582539  0.02782332  0.91220246  1
  O  O327  1  0.25915105  0.50874478  0.26258448  1
  O  O328  1  0.25650894  0.51530132  0.58981075  1
  O  O329  1  0.25286072  0.51026962  0.92309333  1
  O  O330  1  0.58052751  0.02231516  0.24354424  1
  O  O331  1  0.57834404  0.00964438  0.56926886  1
  O  O332  1  0.57174032  0.00958084  0.91185453  1
  O  O333  1  0.58900758  0.50391715  0.25724837  1
  O  O334  1  0.58343002  0.52477754  0.58133383  1
  O  O335  1  0.59232110  0.51820807  0.91466454  1
  O  O336  1  0.90793908  0.01993185  0.24491359  1
  O  O337  1  0.91693204  0.01708500  0.58055625  1
  O  O338  1  0.92196108  0.01939045  0.91921648  1
  O  O339  1  0.91487005  0.51460671  0.24752105  1
  O  O340  1  0.91172575  0.52412343  0.58779474  1
  O  O341  1  0.91777001  0.52933334  0.91750944  1
  O  O342  1  0.08455841  0.24727950  0.25596131  1
  O  O343  1  0.08656985  0.23741884  0.58295491  1
  O  O344  1  0.07934132  0.22785103  0.92254852  1
  O  O345  1  0.07927835  0.75104183  0.25668360  1
  O  O346  1  0.07425482  0.74567430  0.59158786  1
  O  O347  1  0.07758915  0.74638129  0.92117905  1
  O  O348  1  0.41469560  0.22479517  0.26054695  1
  O  O349  1  0.41214706  0.22617762  0.59271695  1
  O  O350  1  0.41048032  0.22420978  0.92516924  1
  O  O351  1  0.41661265  0.73685960  0.25809635  1
  O  O352  1  0.41749208  0.72118637  0.58719475  1
  O  O353  1  0.42328596  0.74161761  0.91327678  1
  O  O354  1  0.74583925  0.22409431  0.24710974  1
  O  O355  1  0.75129530  0.23801163  0.57331425  1
  O  O356  1  0.73931727  0.24068959  0.91707875  1
  O  O357  1  0.75174768  0.73515238  0.24186255  1
  O  O358  1  0.74790529  0.72733541  0.57695739  1
  O  O359  1  0.75617674  0.73259209  0.90389593  1
