# generated using pymatgen
data_Ba17Sr5La8Pr42Mn72O216
_symmetry_space_group_name_H-M   'P 1'
_cell_length_a   16.67674748
_cell_length_b   15.70329750
_cell_length_c   16.82154646
_cell_angle_alpha   89.99561601
_cell_angle_beta   90.02005023
_cell_angle_gamma   90.00700763
_symmetry_Int_Tables_number   1
_chemical_formula_structural   Ba17Sr5La8Pr42Mn72O216
_chemical_formula_sum   'Ba17 Sr5 La8 Pr42 Mn72 O216'
_cell_volume   4405.22504308
_cell_formula_units_Z   1
loop_
 _symmetry_equiv_pos_site_id
 _symmetry_equiv_pos_as_xyz
  1  'x, y, z'
loop_
 _atom_site_type_symbol
 _atom_site_label
 _atom_site_symmetry_multiplicity
 _atom_site_fract_x
 _atom_site_fract_y
 _atom_site_fract_z
 _atom_site_occupancy
  Ba  Ba0  1  0.49970816  0.12387948  0.83364959  1
  Ba  Ba1  1  0.83395956  0.12598621  0.16609401  1
  Ba  Ba2  1  0.32965475  0.87339254  0.00094063  1
  Ba  Ba3  1  0.83520688  0.37474627  0.83060581  1
  Ba  Ba4  1  0.16371230  0.62565660  0.83408087  1
  Ba  Ba5  1  0.83422185  0.62416016  0.16717893  1
  Ba  Ba6  1  0.33482195  0.12722571  0.33189245  1
  Ba  Ba7  1  0.66786804  0.62497001  1.00097000  1
  Ba  Ba8  1  0.66548349  0.87364481  0.33629467  1
  Ba  Ba9  1  0.33218629  0.12443458  0.99663606  1
  Ba  Ba10  1  0.33560303  0.37659712  0.33264377  1
  Ba  Ba11  1  0.33437249  0.12589782  0.66455314  1
  Ba  Ba12  1  0.66683169  0.37658000  -0.00160043  1
  Ba  Ba13  1  0.66601185  0.12556236  1.00062961  1
  Ba  Ba14  1  0.33005052  0.62592545  0.99893417  1
  Ba  Ba15  1  0.16507002  0.62474034  0.50161851  1
  Ba  Ba16  1  0.50033450  0.12456606  0.16628383  1
  Sr  Sr17  1  0.16656209  0.87625108  0.16785752  1
  Sr  Sr18  1  -0.00081165  0.87533408  0.33374268  1
  Sr  Sr19  1  0.66372652  0.87332499  0.66630196  1
  Sr  Sr20  1  0.33264847  0.62249836  0.33087122  1
  Sr  Sr21  1  0.33635754  0.37690982  0.66530620  1
  La  La22  1  0.16827246  0.62964582  0.17101774  1
  La  La23  1  0.83122525  0.12108092  0.49716600  1
  La  La24  1  0.83016946  0.87414299  0.83138209  1
  La  La25  1  0.66704589  0.37543329  0.67268182  1
  La  La26  1  0.33097464  0.87274196  0.66746658  1
  La  La27  1  0.16899682  0.12154120  0.16762688  1
  La  La28  1  -0.00289700  0.12288727  0.99937020  1
  La  La29  1  0.83676334  0.37488386  0.16048508  1
  Pr  Pr30  1  -0.00431555  0.12651505  0.66547792  1
  Pr  Pr31  1  0.49435805  0.87496687  0.83353163  1
  Pr  Pr32  1  0.66897379  0.37380805  0.33400901  1
  Pr  Pr33  1  0.33804744  0.37663826  -0.00028625  1
  Pr  Pr34  1  0.00868397  0.37626766  0.67284180  1
  Pr  Pr35  1  0.33424191  0.62428159  0.66072563  1
  Pr  Pr36  1  0.16403043  0.12737387  0.50344878  1
  Pr  Pr37  1  0.17352406  0.37395239  0.49768481  1
  Pr  Pr38  1  0.17001042  0.87446559  0.83517979  1
  Pr  Pr39  1  0.16646738  0.87795177  0.49496567  1
  Pr  Pr40  1  0.00042124  0.37406382  0.33526445  1
  Pr  Pr41  1  0.00503081  0.37681016  0.00319962  1
  Pr  Pr42  1  0.83421455  0.37415963  0.50041444  1
  Pr  Pr43  1  0.17495181  0.37591008  0.83209542  1
  Pr  Pr44  1  0.17569274  0.37481263  0.16570317  1
  Pr  Pr45  1  0.66803507  0.12583495  0.66669937  1
  Pr  Pr46  1  -0.00630100  0.62332446  0.66458184  1
  Pr  Pr47  1  0.33049352  0.87520914  0.33174458  1
  Pr  Pr48  1  0.83185357  0.87473500  0.49399593  1
  Pr  Pr49  1  0.00119725  0.12331244  0.33031764  1
  Pr  Pr50  1  0.50033616  0.62523473  0.16917957  1
  Pr  Pr51  1  0.49419662  0.87556179  0.16607644  1
  Pr  Pr52  1  0.66692317  0.62744335  0.32831084  1
  Pr  Pr53  1  0.16458055  0.12521533  0.83682946  1
  Pr  Pr54  1  0.50097870  0.37385397  0.83350209  1
  Pr  Pr55  1  0.50531011  0.12529109  0.50254420  1
  Pr  Pr56  1  -0.00348652  0.62574244  0.99974026  1
  Pr  Pr57  1  0.82838342  0.12451274  0.83791472  1
  Pr  Pr58  1  0.50145446  0.62421528  0.50164991  1
  Pr  Pr59  1  0.83148551  0.62868104  0.49769263  1
  Pr  Pr60  1  0.49148649  0.87594824  0.49575233  1
  Pr  Pr61  1  0.83220928  0.87503548  0.16293822  1
  Pr  Pr62  1  0.49770759  0.37337557  0.49793685  1
  Pr  Pr63  1  0.00134981  0.62668112  0.33005570  1
  Pr  Pr64  1  0.66749834  0.12234925  0.32626876  1
  Pr  Pr65  1  0.49802194  0.37502746  0.16484250  1
  Pr  Pr66  1  0.83216140  0.62496244  0.83682268  1
  Pr  Pr67  1  0.00195501  0.87272487  0.66862778  1
  Pr  Pr68  1  0.65963607  0.87616696  0.00397348  1
  Pr  Pr69  1  0.66963282  0.62346449  0.66675289  1
  Pr  Pr70  1  0.49924461  0.62538903  0.83641515  1
  Pr  Pr71  1  0.00057273  0.87297687  0.00594674  1
  Mn  Mn72  1  -0.00004529  -0.00049893  0.16765895  1
  Mn  Mn73  1  -0.00089790  0.00123053  0.50115049  1
  Mn  Mn74  1  -0.00028213  -0.00172373  0.83266136  1
  Mn  Mn75  1  0.00395616  0.49931245  0.16855403  1
  Mn  Mn76  1  -0.00262117  0.49771236  0.50107005  1
  Mn  Mn77  1  0.00067836  0.50006896  0.83379861  1
  Mn  Mn78  1  0.33196249  -0.00032690  0.16712339  1
  Mn  Mn79  1  0.33273471  0.00074277  0.49904806  1
  Mn  Mn80  1  0.33140007  -0.00144786  0.83060878  1
  Mn  Mn81  1  0.33333782  0.50078333  0.16566186  1
  Mn  Mn82  1  0.33483302  0.50130624  0.49978322  1
  Mn  Mn83  1  0.33399290  0.50007917  0.83043671  1
  Mn  Mn84  1  0.66680015  -0.00201487  0.16831959  1
  Mn  Mn85  1  0.66683294  -0.00044413  0.50166943  1
  Mn  Mn86  1  0.66587967  -0.00507132  0.83204507  1
  Mn  Mn87  1  0.66621328  0.50046317  0.16979403  1
  Mn  Mn88  1  0.66835033  0.49954332  0.50065609  1
  Mn  Mn89  1  0.66639046  0.50161738  0.83128272  1
  Mn  Mn90  1  0.00395232  0.25037029  0.16842881  1
  Mn  Mn91  1  -0.00198088  0.25122858  0.50187953  1
  Mn  Mn92  1  0.00157790  0.24891585  0.83307599  1
  Mn  Mn93  1  0.00060537  0.75164917  0.16822769  1
  Mn  Mn94  1  -0.00137972  0.75044730  0.50067614  1
  Mn  Mn95  1  -0.00150930  0.75262513  0.83414262  1
  Mn  Mn96  1  0.33374662  0.25123850  0.16430360  1
  Mn  Mn97  1  0.33427516  0.24960519  0.49939717  1
  Mn  Mn98  1  0.33271258  0.25195365  0.83111520  1
  Mn  Mn99  1  0.33263298  0.74803172  0.16947396  1
  Mn  Mn100  1  0.33347104  0.74938207  0.49950632  1
  Mn  Mn101  1  0.33193519  0.74977470  0.83007585  1
  Mn  Mn102  1  0.66717577  0.25178473  0.16903605  1
  Mn  Mn103  1  0.66852201  0.25109709  0.50027238  1
  Mn  Mn104  1  0.66658199  0.25042525  0.83144085  1
  Mn  Mn105  1  0.66670884  0.75111468  0.16767906  1
  Mn  Mn106  1  0.66606863  0.74840680  0.50199670  1
  Mn  Mn107  1  0.66534453  0.75131213  0.83209009  1
  Mn  Mn108  1  0.16492527  0.25122275  -0.00088156  1
  Mn  Mn109  1  0.16489521  0.25017141  0.33393729  1
  Mn  Mn110  1  0.16658682  0.25017316  0.66762871  1
  Mn  Mn111  1  0.16250551  0.75013892  0.00290443  1
  Mn  Mn112  1  0.16618165  0.75147258  0.33528757  1
  Mn  Mn113  1  0.16424676  0.75037066  0.66639715  1
  Mn  Mn114  1  0.49945431  0.25154575  -0.00161142  1
  Mn  Mn115  1  0.50349068  0.25181354  0.33436341  1
  Mn  Mn116  1  0.50176324  0.25087136  0.66505602  1
  Mn  Mn117  1  0.49971380  0.74886730  0.00036705  1
  Mn  Mn118  1  0.49808350  0.74844254  0.33503520  1
  Mn  Mn119  1  0.50128606  0.74974976  0.66595940  1
  Mn  Mn120  1  0.83583282  0.25063448  -0.00125992  1
  Mn  Mn121  1  0.83470169  0.25228772  0.33353895  1
  Mn  Mn122  1  0.83419533  0.24743691  0.66428982  1
  Mn  Mn123  1  0.83346943  0.75107939  -0.00266454  1
  Mn  Mn124  1  0.83531070  0.75024037  0.33373066  1
  Mn  Mn125  1  0.83270302  0.75159292  0.66540125  1
  Mn  Mn126  1  0.16279331  0.00023598  0.00064491  1
  Mn  Mn127  1  0.16568030  -0.00058481  0.33453841  1
  Mn  Mn128  1  0.16400615  -0.00066270  0.66601058  1
  Mn  Mn129  1  0.16471102  0.49917790  0.00101169  1
  Mn  Mn130  1  0.16510282  0.49987693  0.33379777  1
  Mn  Mn131  1  0.16709076  0.50047510  0.66683898  1
  Mn  Mn132  1  0.49887531  -0.00200943  -0.00098305  1
  Mn  Mn133  1  0.49947116  -0.00182709  0.33503673  1
  Mn  Mn134  1  0.50216951  -0.00228629  0.66425557  1
  Mn  Mn135  1  0.49926726  0.50187960  -0.00028494  1
  Mn  Mn136  1  0.50304167  0.50075937  0.33473841  1
  Mn  Mn137  1  0.50117415  0.50125532  0.66688027  1
  Mn  Mn138  1  0.83352477  -0.00178432  -0.00305596  1
  Mn  Mn139  1  0.83512130  -0.00086107  0.33288255  1
  Mn  Mn140  1  0.83330680  -0.00172025  0.66623049  1
  Mn  Mn141  1  0.83563470  0.49969543  -0.00086613  1
  Mn  Mn142  1  0.83475653  0.49761873  0.33447080  1
  Mn  Mn143  1  0.83393861  0.50161989  0.66373420  1
  O  O144  1  0.16023720  0.12801278  0.02286745  1
  O  O145  1  0.15880439  0.12433313  0.35974040  1
  O  O146  1  0.16025181  0.12271099  0.69285121  1
  O  O147  1  0.15671574  0.62317726  0.02488588  1
  O  O148  1  0.16067829  0.62516382  0.34601207  1
  O  O149  1  0.16738387  0.62411907  0.67791986  1
  O  O150  1  0.49911656  0.12492744  0.00666886  1
  O  O151  1  0.50998006  0.12528091  0.35708819  1
  O  O152  1  0.50762847  0.12393980  0.67688270  1
  O  O153  1  0.49880114  0.62513386  0.02230951  1
  O  O154  1  0.50746488  0.62447258  0.35936036  1
  O  O155  1  0.49561110  0.62571906  0.69322060  1
  O  O156  1  0.83817909  0.12465772  0.00894185  1
  O  O157  1  0.83475474  0.12769505  0.35412067  1
  O  O158  1  0.83724337  0.11836162  0.69488235  1
  O  O159  1  0.84027700  0.62528563  0.01069719  1
  O  O160  1  0.83756189  0.62061257  0.35523509  1
  O  O161  1  0.83837790  0.62842937  0.69293180  1
  O  O162  1  0.15521559  0.37545476  0.31050882  1
  O  O163  1  0.15744914  0.37653911  0.64154766  1
  O  O164  1  0.15529851  0.37276829  0.97489067  1
  O  O165  1  0.16818359  0.87566156  0.31793454  1
  O  O166  1  0.15954251  0.87641761  0.63817212  1
  O  O167  1  0.15400378  0.87683774  0.97998471  1
  O  O168  1  0.51084217  0.37927377  0.31025980  1
  O  O169  1  0.51088100  0.37861054  0.64027449  1
  O  O170  1  0.49425331  0.37984225  0.97959649  1
  O  O171  1  0.49478808  0.86993845  0.31271278  1
  O  O172  1  0.50180057  0.87184161  0.63724772  1
  O  O173  1  0.50513298  0.87051792  0.98042369  1
  O  O174  1  0.83392205  0.37572662  0.30660151  1
  O  O175  1  0.82843734  0.37726098  0.64292994  1
  O  O176  1  0.84462221  0.37508959  0.98988082  1
  O  O177  1  0.83734221  0.87584826  0.31148716  1
  O  O178  1  0.83863465  0.87531316  0.63546683  1
  O  O179  1  0.84306562  0.87465438  0.97478752  1
  O  O180  1  0.00121648  0.37374728  0.19161603  1
  O  O181  1  -0.01136200  0.37321269  0.53217485  1
  O  O182  1  0.00413327  0.37056943  0.85771475  1
  O  O183  1  -0.00813292  0.87527194  0.18428651  1
  O  O184  1  -0.00212558  0.87999928  0.52594307  1
  O  O185  1  -0.00351463  0.87680981  0.86210279  1
  O  O186  1  0.33182550  0.37700562  0.17656906  1
  O  O187  1  0.33492526  0.37657414  0.51399393  1
  O  O188  1  0.33085947  0.37712986  0.85301736  1
  O  O189  1  0.33753982  0.87047334  0.18715077  1
  O  O190  1  0.33596208  0.87572596  0.52356911  1
  O  O191  1  0.33245494  0.87336525  0.84136161  1
  O  O192  1  0.66329700  0.37715132  0.19025794  1
  O  O193  1  0.67426684  0.37657945  0.53093884  1
  O  O194  1  0.66207661  0.37825660  0.83720155  1
  O  O195  1  0.67211835  0.87373466  0.17894626  1
  O  O196  1  0.67654480  0.87157757  0.51864120  1
  O  O197  1  0.67109595  0.87179044  0.85698489  1
  O  O198  1  0.00784186  0.12681347  0.14489412  1
  O  O199  1  0.00298285  0.12767159  0.47335271  1
  O  O200  1  0.00691685  0.12168645  0.80617047  1
  O  O201  1  0.00881376  0.62516447  0.14485626  1
  O  O202  1  -0.00684999  0.61946431  0.47279158  1
  O  O203  1  -0.00547706  0.63031806  0.80718903  1
  O  O204  1  0.32717639  0.12885293  0.15521325  1
  O  O205  1  0.33093224  0.12304199  0.48853132  1
  O  O206  1  0.32392563  0.12471529  0.82123962  1
  O  O207  1  0.33228172  0.62343037  0.15593306  1
  O  O208  1  0.34049024  0.62557209  0.48150942  1
  O  O209  1  0.33927106  0.62512636  0.80553359  1
  O  O210  1  0.66712178  0.12412662  0.16020815  1
  O  O211  1  0.66265006  0.13028851  0.47094621  1
  O  O212  1  0.67203888  0.12041356  0.81152785  1
  O  O213  1  0.66162793  0.62680299  0.15744090  1
  O  O214  1  0.66637455  0.62101598  0.47144145  1
  O  O215  1  0.66514537  0.62814268  0.80998461  1
  O  O216  1  0.08486564  0.02009235  0.25190105  1
  O  O217  1  0.07951801  0.02553673  0.58602574  1
  O  O218  1  0.07966535  0.02306848  0.91683650  1
  O  O219  1  0.08049624  0.52133562  0.25385951  1
  O  O220  1  0.07088370  0.51344772  0.59361088  1
  O  O221  1  0.07168003  0.51510617  0.93105471  1
  O  O222  1  0.41820949  0.00249568  0.25139844  1
  O  O223  1  0.42704574  0.01221806  0.57177237  1
  O  O224  1  0.41855017  -0.00078831  0.91196379  1
  O  O225  1  0.42290405  0.51531952  0.24753784  1
  O  O226  1  0.41923603  0.52122463  0.58653673  1
  O  O227  1  0.41820911  0.51554459  0.91094040  1
  O  O228  1  0.75171342  0.01166525  0.25326403  1
  O  O229  1  0.75135723  0.02531897  0.58444949  1
  O  O230  1  0.75733117  0.00908197  0.90771256  1
  O  O231  1  0.74354370  0.51256523  0.26256665  1
  O  O232  1  0.75017539  0.52849866  0.58181155  1
  O  O233  1  0.75162591  0.51386596  0.90826378  1
  O  O234  1  0.24192925  0.24201274  0.23811667  1
  O  O235  1  0.23901549  0.23886309  0.57712876  1
  O  O236  1  0.23615847  0.24082426  0.90660372  1
  O  O237  1  0.25187341  0.73713595  0.25586385  1
  O  O238  1  0.26043059  0.73833549  0.58850319  1
  O  O239  1  0.24192998  0.74588238  0.91623552  1
  O  O240  1  0.59230211  0.23761686  0.26211278  1
  O  O241  1  0.58865790  0.22956187  0.58277762  1
  O  O242  1  0.58136730  0.24870014  0.91295841  1
  O  O243  1  0.58110698  0.73129436  0.25515937  1
  O  O244  1  0.58661182  0.72297992  0.58917838  1
  O  O245  1  0.58060884  0.73495372  0.91418435  1
  O  O246  1  0.92460125  0.23698328  0.25539159  1
  O  O247  1  0.91247875  0.22397056  0.57781125  1
  O  O248  1  0.91739157  0.22665328  0.90769250  1
  O  O249  1  0.92403891  0.73301695  0.25589099  1
  O  O250  1  0.91347441  0.72668177  0.58180169  1
  O  O251  1  0.91471611  0.72960496  0.91254547  1
  O  O252  1  0.08928206  0.47488096  0.09107250  1
  O  O253  1  0.08046848  0.47339773  0.42392405  1
  O  O254  1  0.08810130  0.47905257  0.75749909  1
  O  O255  1  0.07588684  0.98459849  0.07975815  1
  O  O256  1  0.08519151  0.98297475  0.42299774  1
  O  O257  1  0.08304553  0.97253872  0.75280785  1
  O  O258  1  0.41599582  0.48121139  0.08231027  1
  O  O259  1  0.42758522  0.48709106  0.42356731  1
  O  O260  1  0.42337834  0.47853956  0.75049062  1
  O  O261  1  0.41960308  0.98399222  0.08616102  1
  O  O262  1  0.41178200  0.97790478  0.41262903  1
  O  O263  1  0.41679293  0.97910138  0.74142789  1
  O  O264  1  0.75623110  0.48553087  0.09220391  1
  O  O265  1  0.75463969  0.47606152  0.42193968  1
  O  O266  1  0.74774578  0.49321506  0.74048855  1
  O  O267  1  0.75026005  0.97714797  0.07685410  1
  O  O268  1  0.75324022  0.99034905  0.42260702  1
  O  O269  1  0.75124824  0.97746133  0.74718704  1
  O  O270  1  0.25227744  0.27384858  0.07336430  1
  O  O271  1  0.24430015  0.26354659  0.41715667  1
  O  O272  1  0.25163716  0.27121782  0.74599149  1
  O  O273  1  0.24219019  0.75636803  0.09086279  1
  O  O274  1  0.24803902  0.77239156  0.42077371  1
  O  O275  1  0.24617005  0.77056159  0.74823546  1
  O  O276  1  0.57956975  0.26681789  0.09196477  1
  O  O277  1  0.58638916  0.27878647  0.42255296  1
  O  O278  1  0.58430047  0.26732591  0.74653564  1
  O  O279  1  0.58241683  0.76981612  0.08526132  1
  O  O280  1  0.57323680  0.76319437  0.42856818  1
  O  O281  1  0.57681465  0.76890991  0.75425729  1
  O  O282  1  0.92622682  0.26723998  0.08305385  1
  O  O283  1  0.91691484  0.27345816  0.41703164  1
  O  O284  1  0.92912522  0.26237649  0.73939484  1
  O  O285  1  0.91582690  0.76849608  0.08330909  1
  O  O286  1  0.91419300  0.76882190  0.42084545  1
  O  O287  1  0.91747777  0.77515305  0.74686140  1
  O  O288  1  0.25008890  0.47909516  0.07775313  1
  O  O289  1  0.24484958  0.48582884  0.41859726  1
  O  O290  1  0.25136126  0.48216965  0.74766226  1
  O  O291  1  0.24181547  0.99165659  0.08575039  1
  O  O292  1  0.24998345  0.97777936  0.41590172  1
  O  O293  1  0.24682290  0.97669336  0.74435196  1
  O  O294  1  0.57675582  0.48785643  0.09176697  1
  O  O295  1  0.58895383  0.47421709  0.41946202  1
  O  O296  1  0.58452432  0.48648794  0.74540092  1
  O  O297  1  0.58069535  0.97801404  0.08646628  1
  O  O298  1  0.57254202  0.98398829  0.42931392  1
  O  O299  1  0.57990355  0.97685825  0.75418149  1
  O  O300  1  0.92748753  0.48386784  0.08235799  1
  O  O301  1  0.91746619  0.47147375  0.41666256  1
  O  O302  1  0.92597752  0.48609979  0.73656003  1
  O  O303  1  0.91307421  0.98072488  0.08279376  1
  O  O304  1  0.91373957  0.98518604  0.42226306  1
  O  O305  1  0.91838630  0.97541975  0.74751111  1
  O  O306  1  0.08929965  0.27375592  0.08919451  1
  O  O307  1  0.08152462  0.27552608  0.42541392  1
  O  O308  1  0.09037201  0.27104349  0.75714339  1
  O  O309  1  0.07905192  0.76982510  0.08488843  1
  O  O310  1  0.08360342  0.76815318  0.42138874  1
  O  O311  1  0.08218509  0.77543594  0.75718042  1
  O  O312  1  0.41676544  0.27190871  0.08195142  1
  O  O313  1  0.42594530  0.26192139  0.41959417  1
  O  O314  1  0.42173326  0.26987222  0.75045806  1
  O  O315  1  0.42192949  0.76185361  0.09031037  1
  O  O316  1  0.41106897  0.77238573  0.41342185  1
  O  O317  1  0.41469761  0.77123263  0.74070837  1
  O  O318  1  0.75460842  0.26666114  0.09228525  1
  O  O319  1  0.75217855  0.27413247  0.42052250  1
  O  O320  1  0.74659646  0.25792181  0.74131322  1
  O  O321  1  0.75234645  0.77165518  0.07804882  1
  O  O322  1  0.75546211  0.75841560  0.42251813  1
  O  O323  1  0.75114795  0.76772336  0.74649818  1
  O  O324  1  0.24585601  0.01095255  0.24952348  1
  O  O325  1  0.24074510  0.01207812  0.57526188  1
  O  O326  1  0.23708942  0.00838479  0.90941437  1
  O  O327  1  0.24449037  0.51107159  0.24277469  1
  O  O328  1  0.25437693  0.51139734  0.58666067  1
  O  O329  1  0.24425246  0.50402557  0.91522368  1
  O  O330  1  0.58695629  0.00984718  0.26019231  1
  O  O331  1  0.59049943  0.02036277  0.58713591  1
  O  O332  1  0.58778760  -0.00031108  0.92019091  1
  O  O333  1  0.58390669  0.52398912  0.25433986  1
  O  O334  1  0.58454205  0.52596570  0.58337889  1
  O  O335  1  0.57737803  0.51426074  0.90950945  1
  O  O336  1  0.92394667  0.01701995  0.25625945  1
  O  O337  1  0.91638944  0.02511870  0.58314785  1
  O  O338  1  0.91721955  0.02159867  0.91183596  1
  O  O339  1  0.92310201  0.51254840  0.25516375  1
  O  O340  1  0.90978334  0.52468039  0.57702151  1
  O  O341  1  0.91554849  0.52086044  0.90915635  1
  O  O342  1  0.08165064  0.22645919  0.25484859  1
  O  O343  1  0.07703605  0.22891646  0.58908940  1
  O  O344  1  0.07669024  0.22541465  0.92186035  1
  O  O345  1  0.08480052  0.73346512  0.25056880  1
  O  O346  1  0.07287655  0.73606951  0.59321533  1
  O  O347  1  0.07191140  0.73580171  0.92647042  1
  O  O348  1  0.42219792  0.24883734  0.24713883  1
  O  O349  1  0.42548089  0.24107210  0.57858003  1
  O  O350  1  0.41127116  0.25072919  0.91550859  1
  O  O351  1  0.42120705  0.72847570  0.25053913  1
  O  O352  1  0.42285147  0.72875291  0.57885526  1
  O  O353  1  0.42133412  0.73744992  0.90724731  1
  O  O354  1  0.74758272  0.23944436  0.25889864  1
  O  O355  1  0.75027312  0.22268893  0.57995910  1
  O  O356  1  0.75214465  0.23838176  0.90854757  1
  O  O357  1  0.74948704  0.73622528  0.25521104  1
  O  O358  1  0.74982410  0.72400140  0.58429005  1
  O  O359  1  0.75599992  0.73726985  0.90786646  1
