# generated using pymatgen
data_Ba17Sr5La8Pr42Mn72O216
_symmetry_space_group_name_H-M   'P 1'
_cell_length_a   16.67386510
_cell_length_b   15.69193738
_cell_length_c   16.83062129
_cell_angle_alpha   90.00787372
_cell_angle_beta   89.98580947
_cell_angle_gamma   89.99042632
_symmetry_Int_Tables_number   1
_chemical_formula_structural   Ba17Sr5La8Pr42Mn72O216
_chemical_formula_sum   'Ba17 Sr5 La8 Pr42 Mn72 O216'
_cell_volume   4403.65182723
_cell_formula_units_Z   1
loop_
 _symmetry_equiv_pos_site_id
 _symmetry_equiv_pos_as_xyz
  1  'x, y, z'
loop_
 _atom_site_type_symbol
 _atom_site_label
 _atom_site_symmetry_multiplicity
 _atom_site_fract_x
 _atom_site_fract_y
 _atom_site_fract_z
 _atom_site_occupancy
  Ba  Ba0  1  0.50014192  0.62565834  0.83548570  1
  Ba  Ba1  1  0.00029134  0.12375495  0.33135072  1
  Ba  Ba2  1  0.16573531  0.87330935  0.83100042  1
  Ba  Ba3  1  0.66398176  0.62667222  0.66758615  1
  Ba  Ba4  1  0.33253922  0.12625149  0.66677300  1
  Ba  Ba5  1  0.16784246  0.12370372  0.16743092  1
  Ba  Ba6  1  0.66821855  0.12386102  0.66924171  1
  Ba  Ba7  1  0.66485700  0.62567611  0.33583969  1
  Ba  Ba8  1  0.66717512  0.37416868  0.00326172  1
  Ba  Ba9  1  0.66612741  0.87453355  0.33259018  1
  Ba  Ba10  1  0.16849340  0.37501881  0.16777806  1
  Ba  Ba11  1  -0.00080948  0.62656647  0.33089896  1
  Ba  Ba12  1  -0.00023757  0.37702031  0.66652182  1
  Ba  Ba13  1  0.66762135  0.87650333  0.66933226  1
  Ba  Ba14  1  0.16765204  0.12410484  0.83275022  1
  Ba  Ba15  1  0.33281223  0.37653015  0.33379764  1
  Ba  Ba16  1  0.66703835  0.37510589  0.33357240  1
  Sr  Sr17  1  0.33326085  0.62365782  0.33327376  1
  Sr  Sr18  1  0.83354440  0.87414681  0.83122974  1
  Sr  Sr19  1  0.33312898  0.37492461  0.66584016  1
  Sr  Sr20  1  0.33530357  0.12641544  0.33157958  1
  Sr  Sr21  1  0.83196047  0.87231235  0.16319358  1
  La  La22  1  0.49814563  0.87400225  0.16924361  1
  La  La23  1  0.83642192  0.37743549  0.16587820  1
  La  La24  1  0.50068118  0.87706126  0.50016466  1
  La  La25  1  0.16927695  0.12784009  0.50095614  1
  La  La26  1  0.00342699  0.12402397  0.99870159  1
  La  La27  1  0.32975055  0.87239262  0.00150570  1
  La  La28  1  0.33337891  0.87596215  0.66916049  1
  La  La29  1  0.33067533  0.87510871  0.33460929  1
  Pr  Pr30  1  0.66759508  0.12339471  0.33388535  1
  Pr  Pr31  1  0.17182989  0.37371349  0.83045057  1
  Pr  Pr32  1  0.50161460  0.12737228  0.50250546  1
  Pr  Pr33  1  0.16495349  0.62066750  0.50013270  1
  Pr  Pr34  1  0.33123472  0.62730689  0.66346522  1
  Pr  Pr35  1  0.00314754  0.12255638  0.66158948  1
  Pr  Pr36  1  0.50057537  0.62232161  0.17076816  1
  Pr  Pr37  1  -0.00138743  0.87468684  0.67025427  1
  Pr  Pr38  1  0.49544679  0.37664959  0.16841481  1
  Pr  Pr39  1  0.67650470  0.12584733  0.99696711  1
  Pr  Pr40  1  0.49846370  0.37488563  0.83120963  1
  Pr  Pr41  1  -0.00226679  0.62702331  0.99844835  1
  Pr  Pr42  1  0.83024241  0.37571568  0.82950060  1
  Pr  Pr43  1  0.16304074  0.62237542  0.83266217  1
  Pr  Pr44  1  0.50568598  0.12391914  0.83818473  1
  Pr  Pr45  1  0.33490904  0.37591023  0.00323299  1
  Pr  Pr46  1  0.83435840  0.37539046  0.49530994  1
  Pr  Pr47  1  0.82696151  0.62497344  0.16864546  1
  Pr  Pr48  1  0.67025674  0.62500785  0.99691243  1
  Pr  Pr49  1  0.83832088  0.12433302  0.83290299  1
  Pr  Pr50  1  0.50393063  0.12726130  0.17020225  1
  Pr  Pr51  1  0.00406988  0.37360467  0.00033770  1
  Pr  Pr52  1  0.16607979  0.87550136  0.49824457  1
  Pr  Pr53  1  -0.00147621  0.87745700  0.33284253  1
  Pr  Pr54  1  0.16000486  0.87369670  0.16430925  1
  Pr  Pr55  1  0.00090745  0.87690832  -0.00062595  1
  Pr  Pr56  1  -0.00152266  0.62883960  0.65976118  1
  Pr  Pr57  1  0.49768552  0.62208306  0.50472419  1
  Pr  Pr58  1  0.83160114  0.62494021  0.83119888  1
  Pr  Pr59  1  0.82886344  0.87433668  0.49724255  1
  Pr  Pr60  1  0.49930310  0.87623914  0.83221943  1
  Pr  Pr61  1  0.16741717  0.62596391  0.17109845  1
  Pr  Pr62  1  0.66387386  0.37488970  0.67169644  1
  Pr  Pr63  1  0.83433652  0.12276681  0.50209024  1
  Pr  Pr64  1  0.00511213  0.37270205  0.33774076  1
  Pr  Pr65  1  0.33566529  0.12788353  0.99497799  1
  Pr  Pr66  1  0.17121118  0.37326251  0.49443168  1
  Pr  Pr67  1  0.50263954  0.37304680  0.50050915  1
  Pr  Pr68  1  0.83167597  0.12498338  0.16841125  1
  Pr  Pr69  1  0.82847350  0.62648323  0.50129415  1
  Pr  Pr70  1  0.66350272  0.87473571  0.00535786  1
  Pr  Pr71  1  0.32962128  0.62311289  0.99716335  1
  Mn  Mn72  1  -0.00302005  -0.00224389  0.16489966  1
  Mn  Mn73  1  0.00046223  -0.00221328  0.49986353  1
  Mn  Mn74  1  -0.00101105  -0.00099755  0.83175280  1
  Mn  Mn75  1  -0.00025278  0.50056342  0.16480502  1
  Mn  Mn76  1  -0.00104070  0.50085312  0.49921024  1
  Mn  Mn77  1  -0.00125395  0.50117009  0.83343350  1
  Mn  Mn78  1  0.33481990  -0.00147346  0.16681143  1
  Mn  Mn79  1  0.33254709  -0.00044195  0.49870365  1
  Mn  Mn80  1  0.33605181  -0.00055660  0.83474857  1
  Mn  Mn81  1  0.33415145  0.50211501  0.16528131  1
  Mn  Mn82  1  0.33292900  0.50131731  0.50188597  1
  Mn  Mn83  1  0.33227295  0.50043519  0.83308267  1
  Mn  Mn84  1  0.66581924  0.00097930  0.16583662  1
  Mn  Mn85  1  0.66656226  0.00058284  0.50003262  1
  Mn  Mn86  1  0.66901561  0.00064425  0.83795046  1
  Mn  Mn87  1  0.66590763  0.49899088  0.16638774  1
  Mn  Mn88  1  0.66664298  0.49941126  0.50279501  1
  Mn  Mn89  1  0.66662305  0.49956753  0.83515155  1
  Mn  Mn90  1  -0.00105746  0.25135267  0.16589923  1
  Mn  Mn91  1  -0.00036143  0.24976294  0.49992720  1
  Mn  Mn92  1  -0.00033585  0.25135046  0.83294296  1
  Mn  Mn93  1  -0.00238661  0.74974392  0.16348282  1
  Mn  Mn94  1  -0.00012649  0.75160192  0.49855001  1
  Mn  Mn95  1  -0.00173274  0.74727607  0.83098097  1
  Mn  Mn96  1  0.33492746  0.24861686  0.16520260  1
  Mn  Mn97  1  0.33360143  0.25007864  0.49970884  1
  Mn  Mn98  1  0.33559684  0.25082369  0.83383508  1
  Mn  Mn99  1  0.33426002  0.74966619  0.16791032  1
  Mn  Mn100  1  0.33191305  0.75014635  0.50016826  1
  Mn  Mn101  1  0.33303977  0.74885358  0.83339777  1
  Mn  Mn102  1  0.66684561  0.24932345  0.16765223  1
  Mn  Mn103  1  0.66875700  0.24982647  0.50226531  1
  Mn  Mn104  1  0.66748196  0.25021915  0.83527373  1
  Mn  Mn105  1  0.66483229  0.75065336  0.16491799  1
  Mn  Mn106  1  0.66469005  0.75056575  0.50049418  1
  Mn  Mn107  1  0.66819963  0.75036772  0.83674821  1
  Mn  Mn108  1  0.16789463  0.25010401  -0.00128268  1
  Mn  Mn109  1  0.16787658  0.24879927  0.33343634  1
  Mn  Mn110  1  0.16626733  0.25261752  0.66584637  1
  Mn  Mn111  1  0.16559101  0.74846533  0.00014594  1
  Mn  Mn112  1  0.16735992  0.75057983  0.33214688  1
  Mn  Mn113  1  0.16620809  0.74851311  0.66371993  1
  Mn  Mn114  1  0.49975553  0.24956544  0.00268641  1
  Mn  Mn115  1  0.50024217  0.24906668  0.33542485  1
  Mn  Mn116  1  0.49924919  0.25021417  0.66807674  1
  Mn  Mn117  1  0.49956339  0.75058260  0.00275216  1
  Mn  Mn118  1  0.49666056  0.74900408  0.33502462  1
  Mn  Mn119  1  0.49770460  0.75136269  0.66751970  1
  Mn  Mn120  1  0.83796405  0.25017484  -0.00023504  1
  Mn  Mn121  1  0.83369643  0.24914817  0.33226521  1
  Mn  Mn122  1  0.83383497  0.25072876  0.66574835  1
  Mn  Mn123  1  0.83337143  0.75051736  -0.00193939  1
  Mn  Mn124  1  0.83369479  0.75081785  0.33131929  1
  Mn  Mn125  1  0.83407727  0.75048326  0.66630128  1
  Mn  Mn126  1  0.16804896  -0.00205540  0.00106972  1
  Mn  Mn127  1  0.16838779  -0.00233855  0.33246792  1
  Mn  Mn128  1  0.16625201  -0.00003948  0.66335351  1
  Mn  Mn129  1  0.16540328  0.50227419  -0.00097047  1
  Mn  Mn130  1  0.16644254  0.50275009  0.33365986  1
  Mn  Mn131  1  0.16708621  0.49969188  0.66723394  1
  Mn  Mn132  1  0.50014047  -0.00021573  0.00246080  1
  Mn  Mn133  1  0.49812681  0.00081294  0.33381893  1
  Mn  Mn134  1  0.49906481  0.00122600  0.66759429  1
  Mn  Mn135  1  0.49970245  0.50041270  0.00211214  1
  Mn  Mn136  1  0.49906237  0.50021906  0.33634620  1
  Mn  Mn137  1  0.49701702  0.49883065  0.66800307  1
  Mn  Mn138  1  0.83434453  -0.00143155  -0.00118025  1
  Mn  Mn139  1  0.83318506  -0.00084874  0.33202886  1
  Mn  Mn140  1  0.83594543  0.00009618  0.66742861  1
  Mn  Mn141  1  0.83666006  0.50061586  -0.00085590  1
  Mn  Mn142  1  0.83444642  0.50073857  0.33182184  1
  Mn  Mn143  1  0.83252026  0.49936895  0.66536825  1
  O  O144  1  0.16671398  0.12089897  0.00942238  1
  O  O145  1  0.16805742  0.11925078  0.35467527  1
  O  O146  1  0.15903766  0.12618535  0.67553017  1
  O  O147  1  0.16719121  0.62625875  0.02745929  1
  O  O148  1  0.16690993  0.62954522  0.35587764  1
  O  O149  1  0.16609200  0.62306998  0.69006141  1
  O  O150  1  0.48936320  0.12328510  0.02738708  1
  O  O151  1  0.49858052  0.12515481  0.35845556  1
  O  O152  1  0.49854024  0.12687861  0.69235970  1
  O  O153  1  0.49858739  0.62882833  0.02675604  1
  O  O154  1  0.49468263  0.62549528  0.35906097  1
  O  O155  1  0.49067077  0.62534412  0.67841497  1
  O  O156  1  0.83756095  0.12395992  0.02493807  1
  O  O157  1  0.83073261  0.12470773  0.35702742  1
  O  O158  1  0.84332945  0.12597266  0.68929524  1
  O  O159  1  0.83763061  0.62645239  0.02582799  1
  O  O160  1  0.83480888  0.62609266  0.35569624  1
  O  O161  1  0.84094113  0.62403026  0.68683501  1
  O  O162  1  0.16159831  0.37795784  0.32768212  1
  O  O163  1  0.16843269  0.37952174  0.64039064  1
  O  O164  1  0.16571491  0.38041409  0.97496199  1
  O  O165  1  0.17149552  0.87193957  0.30841088  1
  O  O166  1  0.16365377  0.87229614  0.64183626  1
  O  O167  1  0.16643733  0.87194497  0.98661463  1
  O  O168  1  0.50001594  0.37318976  0.31315691  1
  O  O169  1  0.50380593  0.37343411  0.64545990  1
  O  O170  1  0.49334227  0.37199833  0.97511595  1
  O  O171  1  0.49365931  0.87489627  0.31270255  1
  O  O172  1  0.49381560  0.87612371  0.64681806  1
  O  O173  1  0.50723474  0.87623220  0.97486274  1
  O  O174  1  0.83857462  0.37407932  0.31019049  1
  O  O175  1  0.82806111  0.37525307  0.63990003  1
  O  O176  1  0.84270293  0.37499019  0.97211302  1
  O  O177  1  0.83873099  0.87541779  0.31401086  1
  O  O178  1  0.84291760  0.87543721  0.64257373  1
  O  O179  1  0.82943886  0.87427773  0.97844841  1
  O  O180  1  -0.00713610  0.37943827  0.19137073  1
  O  O181  1  -0.00524768  0.37541715  0.51149773  1
  O  O182  1  -0.00706993  0.37849021  0.85841998  1
  O  O183  1  0.00090705  0.87254185  0.18696002  1
  O  O184  1  0.00255968  0.87375682  0.52831654  1
  O  O185  1  -0.00382345  0.86806965  0.85597275  1
  O  O186  1  0.34026769  0.37686966  0.17658680  1
  O  O187  1  0.32527899  0.37874875  0.51654671  1
  O  O188  1  0.33216921  0.37733959  0.85930132  1
  O  O189  1  0.33906272  0.87223769  0.19233969  1
  O  O190  1  0.32761021  0.87290432  0.52630320  1
  O  O191  1  0.33938477  0.87379648  0.85564969  1
  O  O192  1  0.67287530  0.37284241  0.17810183  1
  O  O193  1  0.66941285  0.37352774  0.52596232  1
  O  O194  1  0.66872106  0.37425383  0.84772381  1
  O  O195  1  0.66573185  0.87798685  0.17676174  1
  O  O196  1  0.66853339  0.87758025  0.51067318  1
  O  O197  1  0.66655790  0.87733876  0.86101272  1
  O  O198  1  -0.00873471  0.12241006  0.14314554  1
  O  O199  1  -0.00314158  0.12365323  0.48634350  1
  O  O200  1  -0.00627579  0.12919246  0.80678508  1
  O  O201  1  0.00194639  0.62555076  0.14111285  1
  O  O202  1  0.00072526  0.62708673  0.48520196  1
  O  O203  1  0.00028565  0.62302350  0.80333350  1
  O  O204  1  0.34185769  0.12146558  0.13960344  1
  O  O205  1  0.33277194  0.12128273  0.48182317  1
  O  O206  1  0.34131713  0.12470584  0.82453094  1
  O  O207  1  0.33653598  0.62751892  0.13927597  1
  O  O208  1  0.34134330  0.62763679  0.48176275  1
  O  O209  1  0.32774210  0.62356795  0.80803838  1
  O  O210  1  0.66304066  0.12481815  0.14044424  1
  O  O211  1  0.66635715  0.12532263  0.47929632  1
  O  O212  1  0.66369149  0.12694800  0.82503713  1
  O  O213  1  0.66311416  0.62508865  0.14182456  1
  O  O214  1  0.66505092  0.62460260  0.49267912  1
  O  O215  1  0.67181138  0.62243330  0.82346557  1
  O  O216  1  0.08377820  0.00039571  0.24922433  1
  O  O217  1  0.08438569  0.01770480  0.57799953  1
  O  O218  1  0.07570516  0.00939661  0.91823245  1
  O  O219  1  0.08567658  0.51706014  0.24335531  1
  O  O220  1  0.08214967  0.52187686  0.58557942  1
  O  O221  1  0.08101092  0.52573498  0.91934055  1
  O  O222  1  0.42570117  0.01635843  0.24019115  1
  O  O223  1  0.42013554  0.01253459  0.57326139  1
  O  O224  1  0.42990905  0.01693858  0.91286198  1
  O  O225  1  0.41756931  0.51731767  0.24601364  1
  O  O226  1  0.41116558  0.51725714  0.58815906  1
  O  O227  1  0.40661019  0.51585934  0.92491098  1
  O  O228  1  0.74801857  0.02415127  0.24700537  1
  O  O229  1  0.75955177  0.01261791  0.57796331  1
  O  O230  1  0.75479646  0.02485679  0.91646732  1
  O  O231  1  0.75136300  0.51532141  0.24591282  1
  O  O232  1  0.75472363  0.51692690  0.58083278  1
  O  O233  1  0.75617536  0.51923616  0.91711212  1
  O  O234  1  0.25632085  0.23794116  0.24957984  1
  O  O235  1  0.24483511  0.23901106  0.57705927  1
  O  O236  1  0.25741152  0.24043081  0.92001716  1
  O  O237  1  0.25105843  0.72972284  0.24737970  1
  O  O238  1  0.24600202  0.72457938  0.57816991  1
  O  O239  1  0.24766810  0.72726060  0.91587770  1
  O  O240  1  0.58568901  0.22579960  0.25806491  1
  O  O241  1  0.58112843  0.23592623  0.58393972  1
  O  O242  1  0.58459015  0.22765760  0.92705498  1
  O  O243  1  0.57658061  0.73668320  0.24223439  1
  O  O244  1  0.57344027  0.74179186  0.57937089  1
  O  O245  1  0.59098829  0.73556521  0.92909994  1
  O  O246  1  0.90658021  0.23510651  0.23971322  1
  O  O247  1  0.91685372  0.22990342  0.58322708  1
  O  O248  1  0.91983603  0.22459904  0.91842473  1
  O  O249  1  0.91173292  0.73459824  0.23971710  1
  O  O250  1  0.91709397  0.73008332  0.58052542  1
  O  O251  1  0.91526911  0.72367756  0.91134198  1
  O  O252  1  0.07969626  0.48416064  0.07722877  1
  O  O253  1  0.08291373  0.48390733  0.42127489  1
  O  O254  1  0.09056738  0.48383370  0.76102464  1
  O  O255  1  0.08013619  0.97938855  0.08274245  1
  O  O256  1  0.08222925  0.97381211  0.41599232  1
  O  O257  1  0.07718785  0.98624216  0.73948768  1
  O  O258  1  0.41925979  0.48124153  0.08406477  1
  O  O259  1  0.42248194  0.48468857  0.42861376  1
  O  O260  1  0.41922687  0.47896100  0.75581746  1
  O  O261  1  0.41137950  0.97261468  0.07576383  1
  O  O262  1  0.41005821  0.97759039  0.41342691  1
  O  O263  1  0.41503068  0.97812987  0.74955199  1
  O  O264  1  0.75743674  0.49107327  0.08561259  1
  O  O265  1  0.75797662  0.48726505  0.42397902  1
  O  O266  1  0.74852215  0.47913187  0.74631178  1
  O  O267  1  0.74394694  0.98866467  0.07600391  1
  O  O268  1  0.75432184  0.98926123  0.41854525  1
  O  O269  1  0.75527471  0.99264825  0.75394431  1
  O  O270  1  0.25568313  0.26049373  0.07672980  1
  O  O271  1  0.24607192  0.25922860  0.42158086  1
  O  O272  1  0.24982654  0.26863299  0.75258148  1
  O  O273  1  0.25082509  0.76883937  0.08732080  1
  O  O274  1  0.24900030  0.77114998  0.41946866  1
  O  O275  1  0.25487962  0.76273039  0.73806441  1
  O  O276  1  0.57219925  0.26400624  0.09457933  1
  O  O277  1  0.58007010  0.26332543  0.42529703  1
  O  O278  1  0.57988671  0.27044900  0.75385539  1
  O  O279  1  0.58013677  0.77309504  0.08448910  1
  O  O280  1  0.57614308  0.76286536  0.42053552  1
  O  O281  1  0.58029934  0.76650491  0.75977187  1
  O  O282  1  0.92071630  0.27481593  0.07887127  1
  O  O283  1  0.91912679  0.26970311  0.41239578  1
  O  O284  1  0.90807640  0.26895198  0.75820934  1
  O  O285  1  0.92045980  0.76818414  0.07292815  1
  O  O286  1  0.91974537  0.77489075  0.41765399  1
  O  O287  1  0.92036197  0.76624620  0.74408527  1
  O  O288  1  0.25789967  0.48937220  0.07177912  1
  O  O289  1  0.24503317  0.49391791  0.42538229  1
  O  O290  1  0.25047160  0.47970089  0.75116250  1
  O  O291  1  0.24815316  0.97573233  0.09245712  1
  O  O292  1  0.24692771  0.97553898  0.41907746  1
  O  O293  1  0.25105240  0.98554582  0.74296702  1
  O  O294  1  0.57746788  0.48437173  0.09127155  1
  O  O295  1  0.58170223  0.48502627  0.42436974  1
  O  O296  1  0.58085172  0.47893233  0.75031156  1
  O  O297  1  0.57516944  0.98136636  0.08988904  1
  O  O298  1  0.57482904  0.99015285  0.42237410  1
  O  O299  1  0.57689260  0.98837945  0.76661319  1
  O  O300  1  0.92066354  0.47815485  0.07794844  1
  O  O301  1  0.91895144  0.47967153  0.41189461  1
  O  O302  1  0.90762626  0.48434681  0.75563438  1
  O  O303  1  0.91841112  0.97805344  0.07582193  1
  O  O304  1  0.91809504  0.97666117  0.41960687  1
  O  O305  1  0.91909442  0.98034714  0.74814334  1
  O  O306  1  0.07952923  0.26223358  0.07832319  1
  O  O307  1  0.08422438  0.26628390  0.42180973  1
  O  O308  1  0.08626973  0.27033377  0.75642252  1
  O  O309  1  0.08008779  0.77067348  0.08016782  1
  O  O310  1  0.08186175  0.77601522  0.41487286  1
  O  O311  1  0.07882004  0.76149096  0.74212663  1
  O  O312  1  0.41464226  0.27152972  0.07838767  1
  O  O313  1  0.42078564  0.26414510  0.42117157  1
  O  O314  1  0.41872170  0.27228161  0.75426008  1
  O  O315  1  0.41738664  0.77431501  0.08573051  1
  O  O316  1  0.41304452  0.77483558  0.42115078  1
  O  O317  1  0.41768182  0.77120058  0.75250773  1
  O  O318  1  0.75988027  0.25885831  0.08639213  1
  O  O319  1  0.75774968  0.26441440  0.42134944  1
  O  O320  1  0.74893929  0.27062398  0.74445930  1
  O  O321  1  0.74353982  0.76191806  0.07570884  1
  O  O322  1  0.75629643  0.76088121  0.42193524  1
  O  O323  1  0.75559483  0.75858399  0.75462768  1
  O  O324  1  0.26049164  0.00896586  0.25611663  1
  O  O325  1  0.24418933  0.01172782  0.57595326  1
  O  O326  1  0.26358080  0.00920108  0.92695369  1
  O  O327  1  0.24937944  0.52023312  0.24305548  1
  O  O328  1  0.24952719  0.52648791  0.58361442  1
  O  O329  1  0.24350655  0.52394640  0.91175499  1
  O  O330  1  0.58638635  0.02285812  0.25350499  1
  O  O331  1  0.58049650  0.01410828  0.58228738  1
  O  O332  1  0.59058298  0.02266745  0.93163934  1
  O  O333  1  0.57785721  0.51315491  0.24709405  1
  O  O334  1  0.57464789  0.50925353  0.58130193  1
  O  O335  1  0.58595056  0.51432065  0.92609410  1
  O  O336  1  0.91079092  0.01331970  0.24306309  1
  O  O337  1  0.92021538  0.01975790  0.58530557  1
  O  O338  1  0.91572936  0.02115156  0.91516168  1
  O  O339  1  0.90947749  0.51791078  0.23760588  1
  O  O340  1  0.91556018  0.52084481  0.58072566  1
  O  O341  1  0.91797296  0.52815122  0.91608222  1
  O  O342  1  0.07857226  0.24575459  0.25236562  1
  O  O343  1  0.08011048  0.23337869  0.58300539  1
  O  O344  1  0.07900658  0.24096570  0.91909366  1
  O  O345  1  0.08887267  0.73784311  0.24029928  1
  O  O346  1  0.08480232  0.72797847  0.58026078  1
  O  O347  1  0.08005387  0.72420839  0.91355219  1
  O  O348  1  0.42475370  0.23449489  0.24180908  1
  O  O349  1  0.42173107  0.23855920  0.57882373  1
  O  O350  1  0.42244216  0.22998183  0.91634100  1
  O  O351  1  0.41665736  0.72876988  0.24859299  1
  O  O352  1  0.40923640  0.73432648  0.58604532  1
  O  O353  1  0.41151044  0.73600604  0.92761232  1
  O  O354  1  0.74810209  0.22473631  0.25353146  1
  O  O355  1  0.75763259  0.23048826  0.57832701  1
  O  O356  1  0.75788414  0.23051689  0.91572496  1
  O  O357  1  0.75049754  0.73502935  0.24120098  1
  O  O358  1  0.75637254  0.73994963  0.58023585  1
  O  O359  1  0.75299423  0.72592927  0.91726905  1
