# generated using pymatgen
data_Ba17Sr5La8Pr42Mn72O216
_symmetry_space_group_name_H-M   'P 1'
_cell_length_a   16.67448055
_cell_length_b   15.70268029
_cell_length_c   16.82024346
_cell_angle_alpha   89.99410058
_cell_angle_beta   89.96658334
_cell_angle_gamma   90.03529371
_symmetry_Int_Tables_number   1
_chemical_formula_structural   Ba17Sr5La8Pr42Mn72O216
_chemical_formula_sum   'Ba17 Sr5 La8 Pr42 Mn72 O216'
_cell_volume   4404.11064212
_cell_formula_units_Z   1
loop_
 _symmetry_equiv_pos_site_id
 _symmetry_equiv_pos_as_xyz
  1  'x, y, z'
loop_
 _atom_site_type_symbol
 _atom_site_label
 _atom_site_symmetry_multiplicity
 _atom_site_fract_x
 _atom_site_fract_y
 _atom_site_fract_z
 _atom_site_occupancy
  Ba  Ba0  1  0.16505935  0.37175311  0.50415481  1
  Ba  Ba1  1  0.33278241  0.62607890  0.66552736  1
  Ba  Ba2  1  0.83538320  0.87617525  0.16630758  1
  Ba  Ba3  1  0.16777285  0.12412454  0.16999017  1
  Ba  Ba4  1  0.66574555  0.62642314  0.99747846  1
  Ba  Ba5  1  0.16617063  0.62330566  0.50274808  1
  Ba  Ba6  1  0.33242682  0.62434928  0.33322065  1
  Ba  Ba7  1  0.33563509  0.87600878  0.66918621  1
  Ba  Ba8  1  0.16566960  0.62516539  0.17156717  1
  Ba  Ba9  1  0.16327237  0.37352737  0.83522916  1
  Ba  Ba10  1  -0.00127252  0.37413585  0.00073524  1
  Ba  Ba11  1  0.66608637  0.12413940  0.99617624  1
  Ba  Ba12  1  0.50198434  0.37358319  0.49429200  1
  Ba  Ba13  1  0.33216272  0.12375698  0.66734246  1
  Ba  Ba14  1  -0.00362897  0.62618438  0.66676811  1
  Ba  Ba15  1  0.83168487  0.62692219  0.50063236  1
  Ba  Ba16  1  0.33470511  0.87562654  0.00122542  1
  Sr  Sr17  1  -0.00026281  0.62381058  0.33460806  1
  Sr  Sr18  1  0.82995518  0.62525612  0.83406633  1
  Sr  Sr19  1  0.16835774  0.12351807  0.50304100  1
  Sr  Sr20  1  0.67119575  0.87399205  0.00100917  1
  Sr  Sr21  1  0.49998298  0.37563711  0.16347181  1
  La  La22  1  0.49804063  0.12313310  0.16230712  1
  La  La23  1  0.16749506  0.37741620  0.16728755  1
  La  La24  1  0.33308494  0.87606178  0.33475675  1
  La  La25  1  0.49802703  0.12577159  0.49860994  1
  La  La26  1  0.83729138  0.37624036  0.49990816  1
  La  La27  1  0.66722074  0.37649919  -0.00074142  1
  La  La28  1  0.66844175  0.37633991  0.66320293  1
  La  La29  1  0.83227875  0.62336456  0.16856403  1
  Pr  Pr30  1  0.33496991  0.12656111  0.99749646  1
  Pr  Pr31  1  0.32834177  0.37430072  0.66750989  1
  Pr  Pr32  1  0.49427553  0.62658046  0.83285823  1
  Pr  Pr33  1  0.33121207  0.37299472  0.00367734  1
  Pr  Pr34  1  0.17287138  0.12280630  0.84134361  1
  Pr  Pr35  1  0.49263936  0.12362820  0.83404270  1
  Pr  Pr36  1  0.00293639  0.37507070  0.33552537  1
  Pr  Pr37  1  0.16363578  0.62664383  0.83939060  1
  Pr  Pr38  1  -0.00386397  0.62611439  0.99743733  1
  Pr  Pr39  1  0.83241410  0.37599343  0.16508126  1
  Pr  Pr40  1  0.00079858  0.12682577  0.66487047  1
  Pr  Pr41  1  0.83134990  0.12690949  0.16668186  1
  Pr  Pr42  1  0.50273817  0.37508340  0.82558216  1
  Pr  Pr43  1  0.67245689  0.87492373  0.66621936  1
  Pr  Pr44  1  0.33494764  0.13021737  0.33324477  1
  Pr  Pr45  1  0.49755814  0.62500417  0.50033326  1
  Pr  Pr46  1  0.16686470  0.87580644  0.83170252  1
  Pr  Pr47  1  0.83379822  0.12666877  0.83819729  1
  Pr  Pr48  1  0.33160048  0.62320426  0.99750192  1
  Pr  Pr49  1  0.50460305  0.87398455  0.15913992  1
  Pr  Pr50  1  0.83469985  0.87407622  0.83642825  1
  Pr  Pr51  1  0.50904425  0.87542543  0.82922800  1
  Pr  Pr52  1  0.49518234  0.62773397  0.16507086  1
  Pr  Pr53  1  0.83159711  0.12199563  0.50465198  1
  Pr  Pr54  1  0.50014795  0.87677991  0.49684247  1
  Pr  Pr55  1  0.00229041  0.87196874  0.66739987  1
  Pr  Pr56  1  0.16721112  0.87242223  0.16812908  1
  Pr  Pr57  1  0.66376976  0.62583468  0.66283799  1
  Pr  Pr58  1  -0.00072097  0.38214077  0.67101204  1
  Pr  Pr59  1  0.66399535  0.12566561  0.66462274  1
  Pr  Pr60  1  0.66964057  0.37561147  0.33457594  1
  Pr  Pr61  1  0.83102686  0.37655681  0.83191899  1
  Pr  Pr62  1  0.00046852  0.12256782  0.99796631  1
  Pr  Pr63  1  0.00734372  0.87540400  0.33623800  1
  Pr  Pr64  1  0.17208725  0.87340726  0.50479710  1
  Pr  Pr65  1  0.00299929  0.87388481  0.00609015  1
  Pr  Pr66  1  0.66371918  0.12702319  0.32667366  1
  Pr  Pr67  1  0.32697679  0.37496497  0.33623344  1
  Pr  Pr68  1  0.67461531  0.87674715  0.33424015  1
  Pr  Pr69  1  0.00004386  0.12655954  0.33366774  1
  Pr  Pr70  1  0.66355686  0.62328763  0.32608452  1
  Pr  Pr71  1  0.84374187  0.87313563  0.49556309  1
  Mn  Mn72  1  -0.00040243  0.00187290  0.16851483  1
  Mn  Mn73  1  0.00097997  0.00154853  0.50162896  1
  Mn  Mn74  1  -0.00141533  -0.00048046  0.83341006  1
  Mn  Mn75  1  -0.00219304  0.49887517  0.16893972  1
  Mn  Mn76  1  -0.00086947  0.49840114  0.50135409  1
  Mn  Mn77  1  -0.00249135  0.50166153  0.83488925  1
  Mn  Mn78  1  0.33581431  0.00066989  0.16934934  1
  Mn  Mn79  1  0.33396362  -0.00071667  0.49931224  1
  Mn  Mn80  1  0.33423883  -0.00150501  0.83559393  1
  Mn  Mn81  1  0.33566624  0.49737955  0.16596262  1
  Mn  Mn82  1  0.33449598  0.49783140  0.50034068  1
  Mn  Mn83  1  0.33306373  0.49949557  0.83417280  1
  Mn  Mn84  1  0.66755239  0.00118010  0.16529670  1
  Mn  Mn85  1  0.66775575  0.00070418  0.49879858  1
  Mn  Mn86  1  0.66832236  -0.00045306  0.83048466  1
  Mn  Mn87  1  0.66493457  0.49853980  0.16556076  1
  Mn  Mn88  1  0.66745491  0.50131276  0.49678775  1
  Mn  Mn89  1  0.66541716  0.50026642  0.83073031  1
  Mn  Mn90  1  -0.00202857  0.24842255  0.16894727  1
  Mn  Mn91  1  -0.00136296  0.24705347  0.50136865  1
  Mn  Mn92  1  -0.00335310  0.24760726  0.83164597  1
  Mn  Mn93  1  -0.00096906  0.74931966  0.16855404  1
  Mn  Mn94  1  0.00139386  0.75107400  0.50098970  1
  Mn  Mn95  1  -0.00159562  0.75165585  0.83629342  1
  Mn  Mn96  1  0.33579796  0.25016027  0.16710642  1
  Mn  Mn97  1  0.33345973  0.24902866  0.50017859  1
  Mn  Mn98  1  0.33348724  0.25174079  0.83480097  1
  Mn  Mn99  1  0.33554887  0.75230357  0.16759856  1
  Mn  Mn100  1  0.33508424  0.75214726  0.50027115  1
  Mn  Mn101  1  0.33315487  0.74980205  0.83514395  1
  Mn  Mn102  1  0.66556233  0.25082714  0.16491653  1
  Mn  Mn103  1  0.66956198  0.24731934  0.49640807  1
  Mn  Mn104  1  0.66585392  0.25003194  0.82970668  1
  Mn  Mn105  1  0.66743438  0.75030871  0.16590329  1
  Mn  Mn106  1  0.66540407  0.75306455  0.49837464  1
  Mn  Mn107  1  0.66761460  0.75134199  0.83093088  1
  Mn  Mn108  1  0.16581758  0.24977611  0.00358226  1
  Mn  Mn109  1  0.16625047  0.24751883  0.33534483  1
  Mn  Mn110  1  0.16345132  0.24799926  0.66895013  1
  Mn  Mn111  1  0.16660447  0.75000556  0.00296461  1
  Mn  Mn112  1  0.16573981  0.75204137  0.33488828  1
  Mn  Mn113  1  0.16556689  0.75139157  0.66994211  1
  Mn  Mn114  1  0.49967480  0.25208519  -0.00373475  1
  Mn  Mn115  1  0.50209841  0.24991314  0.32828805  1
  Mn  Mn116  1  0.50057863  0.25016112  0.66390712  1
  Mn  Mn117  1  0.50044688  0.74976051  -0.00233110  1
  Mn  Mn118  1  0.50239534  0.75273650  0.33066518  1
  Mn  Mn119  1  0.50342578  0.75110859  0.66429748  1
  Mn  Mn120  1  0.83301871  0.25047267  0.00047677  1
  Mn  Mn121  1  0.83413736  0.24858269  0.33473672  1
  Mn  Mn122  1  0.83161995  0.24733916  0.66768124  1
  Mn  Mn123  1  0.83408855  0.74986226  0.00011796  1
  Mn  Mn124  1  0.83374972  0.75038432  0.33302352  1
  Mn  Mn125  1  0.83093453  0.75319947  0.66683220  1
  Mn  Mn126  1  0.16691400  -0.00074685  0.00325207  1
  Mn  Mn127  1  0.16739076  0.00083016  0.33716495  1
  Mn  Mn128  1  0.16358848  0.00109195  0.66980839  1
  Mn  Mn129  1  0.16582391  0.50001317  0.00312358  1
  Mn  Mn130  1  0.16482818  0.49856323  0.33452945  1
  Mn  Mn131  1  0.16581563  0.49844434  0.67019710  1
  Mn  Mn132  1  0.50150608  -0.00057745  -0.00222461  1
  Mn  Mn133  1  0.50163655  -0.00021164  0.32963952  1
  Mn  Mn134  1  0.50403040  0.00146400  0.66402947  1
  Mn  Mn135  1  0.49831520  0.49854847  -0.00364631  1
  Mn  Mn136  1  0.50108709  0.49920353  0.32874917  1
  Mn  Mn137  1  0.50032563  0.49889216  0.66374279  1
  Mn  Mn138  1  0.83532283  0.00051155  0.00001480  1
  Mn  Mn139  1  0.83455396  0.00148518  0.33548349  1
  Mn  Mn140  1  0.83301434  -0.00044935  0.66866309  1
  Mn  Mn141  1  0.83248912  0.49968754  -0.00030486  1
  Mn  Mn142  1  0.83356784  0.49911459  0.33308194  1
  Mn  Mn143  1  0.83018851  0.50010795  0.66688389  1
  O  O144  1  0.16465972  0.12576320  0.01385647  1
  O  O145  1  0.16788770  0.12359055  0.35351537  1
  O  O146  1  0.15639206  0.12363002  0.69594298  1
  O  O147  1  0.16609972  0.62529630  0.01570497  1
  O  O148  1  0.16274470  0.62909336  0.34380432  1
  O  O149  1  0.16523765  0.62602838  0.69114922  1
  O  O150  1  0.49528085  0.12658794  0.01784855  1
  O  O151  1  0.50442262  0.12258762  0.35604625  1
  O  O152  1  0.50871165  0.12577902  0.69004689  1
  O  O153  1  0.49491756  0.62231866  0.02126531  1
  O  O154  1  0.50916978  0.63097591  0.35732943  1
  O  O155  1  0.50854938  0.62306173  0.68866004  1
  O  O156  1  0.83724094  0.12600649  0.02078237  1
  O  O157  1  0.83141877  0.12493342  0.36274301  1
  O  O158  1  0.83194967  0.12245246  0.69607282  1
  O  O159  1  0.83770300  0.62251786  0.02201397  1
  O  O160  1  0.82326188  0.62568111  0.34366590  1
  O  O161  1  0.82248759  0.63014145  0.68381438  1
  O  O162  1  0.16662750  0.36889989  0.31551370  1
  O  O163  1  0.16200404  0.37030586  0.66217189  1
  O  O164  1  0.17271080  0.37379941  0.99100138  1
  O  O165  1  0.16099065  0.87935267  0.31219750  1
  O  O166  1  0.15871419  0.87887249  0.65142874  1
  O  O167  1  0.15923250  0.87439856  0.97533640  1
  O  O168  1  0.51090468  0.37131660  0.31196568  1
  O  O169  1  0.49827771  0.37400591  0.65147579  1
  O  O170  1  0.49702909  0.37497284  0.96940285  1
  O  O171  1  0.50164788  0.87813964  0.30141783  1
  O  O172  1  0.51160051  0.87884773  0.64201797  1
  O  O173  1  0.50304762  0.87575461  0.97397068  1
  O  O174  1  0.83681630  0.37073530  0.30801057  1
  O  O175  1  0.83209191  0.36780476  0.64385486  1
  O  O176  1  0.83051595  0.37470482  0.97762827  1
  O  O177  1  0.83541468  0.87767633  0.32179491  1
  O  O178  1  0.82682892  0.88001953  0.63867346  1
  O  O179  1  0.84254658  0.87692601  0.98114045  1
  O  O180  1  -0.01155697  0.37100341  0.19148987  1
  O  O181  1  -0.00830315  0.36622905  0.52576622  1
  O  O182  1  -0.01147256  0.37419323  0.84393160  1
  O  O183  1  0.00268506  0.87901911  0.19024478  1
  O  O184  1  -0.00478853  0.88020214  0.52250610  1
  O  O185  1  -0.00315410  0.87767426  0.86358911  1
  O  O186  1  0.33849541  0.37138702  0.19179419  1
  O  O187  1  0.33744815  0.37157940  0.51996701  1
  O  O188  1  0.34151269  0.37617840  0.85996953  1
  O  O189  1  0.34624075  0.88031725  0.19049402  1
  O  O190  1  0.33838827  0.87710990  0.51123860  1
  O  O191  1  0.33342464  0.87470728  0.84493795  1
  O  O192  1  0.66685529  0.37298268  0.19104953  1
  O  O193  1  0.67157065  0.36899624  0.52050401  1
  O  O194  1  0.66025311  0.37242477  0.85448949  1
  O  O195  1  0.65800686  0.87701333  0.18846791  1
  O  O196  1  0.65552072  0.87808572  0.52514579  1
  O  O197  1  0.65729878  0.87640235  0.85100885  1
  O  O198  1  -0.00437284  0.12473985  0.14322326  1
  O  O199  1  -0.00841093  0.12336951  0.47615791  1
  O  O200  1  -0.01035797  0.12041680  0.80626133  1
  O  O201  1  -0.00327207  0.62373623  0.14434650  1
  O  O202  1  0.00009266  0.62891487  0.48710862  1
  O  O203  1  0.00686293  0.62813409  0.82300690  1
  O  O204  1  0.33793515  0.12569654  0.14092499  1
  O  O205  1  0.33663288  0.12245325  0.47755995  1
  O  O206  1  0.33270479  0.12447046  0.82389879  1
  O  O207  1  0.33933452  0.62245783  0.14327789  1
  O  O208  1  0.34174900  0.62819403  0.48993573  1
  O  O209  1  0.33440441  0.62498315  0.82071307  1
  O  O210  1  0.67413174  0.12618175  0.15267078  1
  O  O211  1  0.67695143  0.12356625  0.46973527  1
  O  O212  1  0.67712744  0.12516510  0.80788569  1
  O  O213  1  0.67581953  0.62352731  0.15616850  1
  O  O214  1  0.66330516  0.63241052  0.47091333  1
  O  O215  1  0.66644547  0.62708376  0.80714180  1
  O  O216  1  0.07460018  0.01550451  0.26227858  1
  O  O217  1  0.07477769  0.01836305  0.59102976  1
  O  O218  1  0.08096112  0.02270648  0.91367647  1
  O  O219  1  0.07612085  0.50032603  0.25494295  1
  O  O220  1  0.07886129  0.50052140  0.58928293  1
  O  O221  1  0.08212160  0.51774826  0.92002956  1
  O  O222  1  0.41717364  0.02857351  0.25256516  1
  O  O223  1  0.42454445  0.01256440  0.57774110  1
  O  O224  1  0.41429991  0.02051240  0.92119578  1
  O  O225  1  0.42298252  0.51604160  0.24005687  1
  O  O226  1  0.42314177  0.51409708  0.57896204  1
  O  O227  1  0.41389782  0.52357617  0.91738373  1
  O  O228  1  0.74556139  0.01578778  0.26015612  1
  O  O229  1  0.74695261  0.02369750  0.59082784  1
  O  O230  1  0.75613591  0.00899932  0.91106847  1
  O  O231  1  0.74505172  0.50856004  0.25577406  1
  O  O232  1  0.74022494  0.51191616  0.59027880  1
  O  O233  1  0.74850478  0.50607269  0.91410974  1
  O  O234  1  0.25908994  0.23671249  0.25688256  1
  O  O235  1  0.24927527  0.24101561  0.58792969  1
  O  O236  1  0.25318900  0.23245955  0.92123035  1
  O  O237  1  0.24979857  0.75456884  0.25118590  1
  O  O238  1  0.24699412  0.75024163  0.58338593  1
  O  O239  1  0.24700676  0.73022075  0.91982615  1
  O  O240  1  0.58237993  0.22615257  0.24501246  1
  O  O241  1  0.58777173  0.22619710  0.57647470  1
  O  O242  1  0.57639395  0.23310794  0.90270630  1
  O  O243  1  0.58074574  0.72809608  0.24494041  1
  O  O244  1  0.58026978  0.72586623  0.57609724  1
  O  O245  1  0.57311999  0.73497978  0.90161940  1
  O  O246  1  0.91554213  0.22140133  0.25460036  1
  O  O247  1  0.91390158  0.22291215  0.58613407  1
  O  O248  1  0.92045024  0.22645496  0.91992320  1
  O  O249  1  0.91013267  0.73114241  0.24132774  1
  O  O250  1  0.91118986  0.75021052  0.58162341  1
  O  O251  1  0.91618396  0.73095061  0.91593503  1
  O  O252  1  0.08580712  0.48276671  0.09246789  1
  O  O253  1  0.07829083  0.48350622  0.41491823  1
  O  O254  1  0.07750943  0.48820431  0.75148143  1
  O  O255  1  0.08605323  0.97871070  0.08520397  1
  O  O256  1  0.08709403  0.97920080  0.42480626  1
  O  O257  1  0.07996431  0.97575008  0.75426418  1
  O  O258  1  0.41359874  0.47834059  0.07579431  1
  O  O259  1  0.41603855  0.48494200  0.40628547  1
  O  O260  1  0.41940857  0.48111505  0.75156760  1
  O  O261  1  0.42499964  0.98795487  0.09163260  1
  O  O262  1  0.42245644  0.98051552  0.41191723  1
  O  O263  1  0.43007685  0.98925670  0.75695312  1
  O  O264  1  0.74937317  0.47803106  0.08571917  1
  O  O265  1  0.75513449  0.47645868  0.41842570  1
  O  O266  1  0.74953920  0.47564439  0.75116522  1
  O  O267  1  0.75461345  0.99224716  0.08513369  1
  O  O268  1  0.75568009  0.97658774  0.42549311  1
  O  O269  1  0.75412932  0.97393363  0.75271028  1
  O  O270  1  0.25199227  0.27086135  0.09091381  1
  O  O271  1  0.25399960  0.26175998  0.41417024  1
  O  O272  1  0.25299044  0.26195434  0.75267660  1
  O  O273  1  0.24789281  0.76736019  0.08839187  1
  O  O274  1  0.25091056  0.77188555  0.41679584  1
  O  O275  1  0.24320493  0.76361810  0.75961786  1
  O  O276  1  0.58269809  0.26896304  0.07376620  1
  O  O277  1  0.59293215  0.25850031  0.40534628  1
  O  O278  1  0.58635191  0.26959196  0.74380437  1
  O  O279  1  0.58456664  0.76500623  0.08065246  1
  O  O280  1  0.58666043  0.78027343  0.41034227  1
  O  O281  1  0.59270717  0.76998795  0.73919354  1
  O  O282  1  0.90656068  0.26169846  0.09520363  1
  O  O283  1  0.91514614  0.26987404  0.41747564  1
  O  O284  1  0.90589264  0.26633341  0.75571977  1
  O  O285  1  0.92770952  0.76161215  0.07489141  1
  O  O286  1  0.92322357  0.76892491  0.41258430  1
  O  O287  1  0.91702154  0.77457405  0.74980092  1
  O  O288  1  0.25376608  0.47947875  0.08394945  1
  O  O289  1  0.25280302  0.48440614  0.41409479  1
  O  O290  1  0.25574011  0.48170237  0.74971861  1
  O  O291  1  0.24839140  0.98130188  0.09546879  1
  O  O292  1  0.24980994  0.97767286  0.41772381  1
  O  O293  1  0.24221052  0.98946319  0.76048055  1
  O  O294  1  0.58482746  0.48065633  0.07421446  1
  O  O295  1  0.59464692  0.48748619  0.40481689  1
  O  O296  1  0.58723917  0.47912364  0.74212795  1
  O  O297  1  0.58392179  0.98466459  0.07859157  1
  O  O298  1  0.58649294  0.97951560  0.40801138  1
  O  O299  1  0.59370015  0.98471333  0.73823136  1
  O  O300  1  0.91035663  0.48500289  0.09027335  1
  O  O301  1  0.91811426  0.47856405  0.41285232  1
  O  O302  1  0.91172967  0.48368979  0.75039341  1
  O  O303  1  0.92682002  0.98882359  0.07360541  1
  O  O304  1  0.92255240  0.98164296  0.41369031  1
  O  O305  1  0.91714353  0.97237158  0.74858832  1
  O  O306  1  0.08207693  0.26357436  0.08960835  1
  O  O307  1  0.07435651  0.25984956  0.41229683  1
  O  O308  1  0.06646002  0.26053988  0.74010653  1
  O  O309  1  0.08605844  0.77256566  0.08907615  1
  O  O310  1  0.08740562  0.77607989  0.42214594  1
  O  O311  1  0.08224950  0.77430811  0.75753981  1
  O  O312  1  0.41251294  0.26729254  0.07743013  1
  O  O313  1  0.41402423  0.26002819  0.40334917  1
  O  O314  1  0.41669813  0.26833394  0.75310171  1
  O  O315  1  0.42514579  0.76368660  0.08852682  1
  O  O316  1  0.42287452  0.77327614  0.41284175  1
  O  O317  1  0.43051770  0.76219188  0.75638946  1
  O  O318  1  0.74773172  0.27291714  0.08288985  1
  O  O319  1  0.75330516  0.27400868  0.41603873  1
  O  O320  1  0.74601627  0.27322930  0.74604094  1
  O  O321  1  0.75306738  0.75938155  0.08643397  1
  O  O322  1  0.75270495  0.77744929  0.42516227  1
  O  O323  1  0.75411200  0.77728949  0.75341536  1
  O  O324  1  0.25844467  0.01172739  0.25983471  1
  O  O325  1  0.24219919  0.00810087  0.58327550  1
  O  O326  1  0.24969168  0.01812555  0.92297604  1
  O  O327  1  0.24960135  0.49789942  0.24854820  1
  O  O328  1  0.25278284  0.49920532  0.58928894  1
  O  O329  1  0.24919810  0.51986093  0.91740517  1
  O  O330  1  0.58036970  0.02357883  0.24545052  1
  O  O331  1  0.58407724  0.02898301  0.57558893  1
  O  O332  1  0.57542483  0.01750435  0.89976237  1
  O  O333  1  0.58077333  0.52314247  0.24351812  1
  O  O334  1  0.58240346  0.52170555  0.57719678  1
  O  O335  1  0.57366506  0.51450598  0.90295032  1
  O  O336  1  0.91036412  0.02638265  0.24888925  1
  O  O337  1  0.91154328  0.02113515  0.58243675  1
  O  O338  1  0.91643526  0.02396087  0.91406063  1
  O  O339  1  0.90993375  0.51749659  0.24739915  1
  O  O340  1  0.91096543  0.50221162  0.58269511  1
  O  O341  1  0.91754812  0.51944991  0.91964157  1
  O  O342  1  0.07695892  0.23698709  0.25569151  1
  O  O343  1  0.07981169  0.22623978  0.58153066  1
  O  O344  1  0.08212611  0.22713997  0.90920115  1
  O  O345  1  0.07469679  0.74508087  0.25792156  1
  O  O346  1  0.07980662  0.74993778  0.58752462  1
  O  O347  1  0.08096909  0.73191421  0.92316929  1
  O  O348  1  0.42075475  0.22498929  0.24469274  1
  O  O349  1  0.42219251  0.23155533  0.57708126  1
  O  O350  1  0.41542929  0.22861360  0.91703802  1
  O  O351  1  0.42211822  0.73360324  0.24737397  1
  O  O352  1  0.42518757  0.74238417  0.57793489  1
  O  O353  1  0.41262276  0.72793778  0.92128139  1
  O  O354  1  0.75249257  0.23001238  0.25337074  1
  O  O355  1  0.75098609  0.22398858  0.58395873  1
  O  O356  1  0.75575131  0.23996153  0.90757849  1
  O  O357  1  0.74052452  0.74258047  0.25959129  1
  O  O358  1  0.73689689  0.74058636  0.59224425  1
  O  O359  1  0.75077746  0.74611941  0.91353137  1
