# generated using pymatgen
data_Ba17Sr5La8Pr42Mn72O216
_symmetry_space_group_name_H-M   'P 1'
_cell_length_a   16.67462444
_cell_length_b   15.70557893
_cell_length_c   16.82013284
_cell_angle_alpha   90.00560579
_cell_angle_beta   90.02091454
_cell_angle_gamma   90.00742494
_symmetry_Int_Tables_number   1
_chemical_formula_structural   Ba17Sr5La8Pr42Mn72O216
_chemical_formula_sum   'Ba17 Sr5 La8 Pr42 Mn72 O216'
_cell_volume   4404.93391839
_cell_formula_units_Z   1
loop_
 _symmetry_equiv_pos_site_id
 _symmetry_equiv_pos_as_xyz
  1  'x, y, z'
loop_
 _atom_site_type_symbol
 _atom_site_label
 _atom_site_symmetry_multiplicity
 _atom_site_fract_x
 _atom_site_fract_y
 _atom_site_fract_z
 _atom_site_occupancy
  Ba  Ba0  1  0.50219531  0.12438322  0.50473621  1
  Ba  Ba1  1  0.33634660  0.12343249  0.66373116  1
  Ba  Ba2  1  0.66420576  0.87471817  0.33413241  1
  Ba  Ba3  1  0.66507317  0.87658353  0.00414565  1
  Ba  Ba4  1  0.16399784  0.87340285  0.16398645  1
  Ba  Ba5  1  0.83050653  0.37509723  0.16855802  1
  Ba  Ba6  1  0.33458837  0.62486783  0.99741332  1
  Ba  Ba7  1  0.66637703  0.37284276  0.00151466  1
  Ba  Ba8  1  0.16538630  0.37662263  0.49732257  1
  Ba  Ba9  1  0.66612475  0.12350371  0.33786384  1
  Ba  Ba10  1  0.00029705  0.12688029  0.33133159  1
  Ba  Ba11  1  0.83748767  0.12319782  0.83312772  1
  Ba  Ba12  1  0.00042889  0.37678932  0.66650258  1
  Ba  Ba13  1  0.16621282  0.37558320  0.82949507  1
  Ba  Ba14  1  0.66955821  0.62509539  0.66824264  1
  Ba  Ba15  1  0.33167226  0.37499356  -0.00254974  1
  Ba  Ba16  1  0.33017913  0.87385036  0.33094634  1
  Sr  Sr17  1  -0.00413790  0.87311101  0.66772778  1
  Sr  Sr18  1  -0.00621832  0.37412798  0.33485964  1
  Sr  Sr19  1  0.83297759  0.12664971  0.16983864  1
  Sr  Sr20  1  0.17076851  0.62455968  0.16338912  1
  Sr  Sr21  1  0.49613839  0.37738178  0.83486648  1
  La  La22  1  0.66841221  0.62422532  0.33463458  1
  La  La23  1  0.66233474  0.37386311  0.67506225  1
  La  La24  1  0.83812334  0.12406183  0.50308944  1
  La  La25  1  0.33526394  0.62238530  0.66648824  1
  La  La26  1  -0.00490290  0.87520486  0.00121240  1
  La  La27  1  0.33306178  0.62495025  0.32708795  1
  La  La28  1  0.82857633  0.88096162  0.16975024  1
  La  La29  1  0.16899998  0.62210902  0.83331963  1
  Pr  Pr30  1  0.33023485  0.87346570  0.00444271  1
  Pr  Pr31  1  0.50194094  0.62255411  0.16772465  1
  Pr  Pr32  1  0.66222535  0.87641025  0.67356162  1
  Pr  Pr33  1  0.00780938  0.12500520  0.65985227  1
  Pr  Pr34  1  0.67633592  0.12625169  0.66312083  1
  Pr  Pr35  1  0.49775278  0.37216496  0.16295573  1
  Pr  Pr36  1  0.00688374  0.62041331  0.32816829  1
  Pr  Pr37  1  0.17233498  0.12505267  0.49858503  1
  Pr  Pr38  1  0.50320373  0.12692206  0.17264382  1
  Pr  Pr39  1  0.33168725  0.87701990  0.66258313  1
  Pr  Pr40  1  0.50812015  0.62270364  0.84124816  1
  Pr  Pr41  1  0.50107341  0.63075274  0.50411339  1
  Pr  Pr42  1  0.33305018  0.36932621  0.67291485  1
  Pr  Pr43  1  0.67503410  0.62369446  0.99805829  1
  Pr  Pr44  1  0.49627464  0.37602662  0.50353511  1
  Pr  Pr45  1  0.82801943  0.37690559  0.49706990  1
  Pr  Pr46  1  0.67583891  0.12602633  1.00394490  1
  Pr  Pr47  1  0.82518617  0.87598362  0.83223560  1
  Pr  Pr48  1  0.83451638  0.62631295  0.16871669  1
  Pr  Pr49  1  -0.00390871  0.37393118  0.00043236  1
  Pr  Pr50  1  0.16906570  0.62550610  0.49620246  1
  Pr  Pr51  1  0.16718844  0.12766163  0.82976488  1
  Pr  Pr52  1  0.16867853  0.12649100  0.16578103  1
  Pr  Pr53  1  0.33324301  0.12149025  0.99308129  1
  Pr  Pr54  1  0.15808727  0.37596071  0.15991017  1
  Pr  Pr55  1  0.83063922  0.37544725  0.82997869  1
  Pr  Pr56  1  0.33174898  0.37789646  0.33296618  1
  Pr  Pr57  1  0.49769794  0.87498233  0.49929124  1
  Pr  Pr58  1  0.49399895  0.87883613  0.16518476  1
  Pr  Pr59  1  0.00584570  0.62510978  1.00006751  1
  Pr  Pr60  1  0.82550239  0.87250932  0.50041527  1
  Pr  Pr61  1  0.00725937  0.62433452  0.66469762  1
  Pr  Pr62  1  0.00288538  0.12510334  0.99970218  1
  Pr  Pr63  1  0.16713727  0.87142873  0.82760880  1
  Pr  Pr64  1  0.50459455  0.12724212  0.83641817  1
  Pr  Pr65  1  0.84238332  0.62710223  0.50380944  1
  Pr  Pr66  1  0.66282034  0.37148819  0.33495291  1
  Pr  Pr67  1  0.49369555  0.87273335  0.83488242  1
  Pr  Pr68  1  0.33219873  0.12559157  0.33061758  1
  Pr  Pr69  1  0.16503693  0.87699119  0.48879843  1
  Pr  Pr70  1  0.84287398  0.62815503  0.83622370  1
  Pr  Pr71  1  -0.00465534  0.87483146  0.33745233  1
  Mn  Mn72  1  -0.00136541  -0.00093844  0.16673517  1
  Mn  Mn73  1  0.00046220  -0.00280854  0.50106762  1
  Mn  Mn74  1  0.00263998  -0.00254302  0.83148400  1
  Mn  Mn75  1  -0.00087247  0.50103115  0.16501439  1
  Mn  Mn76  1  -0.00101150  0.50107039  0.49736686  1
  Mn  Mn77  1  -0.00073795  0.50234657  0.83299742  1
  Mn  Mn78  1  0.33176401  0.00249632  0.16219367  1
  Mn  Mn79  1  0.33295725  -0.00122544  0.49779269  1
  Mn  Mn80  1  0.33368639  -0.00142439  0.83233499  1
  Mn  Mn81  1  0.33251905  0.50011730  0.16680725  1
  Mn  Mn82  1  0.33496065  0.50218021  0.49859418  1
  Mn  Mn83  1  0.33620100  0.50012766  0.82940680  1
  Mn  Mn84  1  0.66475080  0.00012475  0.16876518  1
  Mn  Mn85  1  0.66846212  -0.00126772  0.50565248  1
  Mn  Mn86  1  0.66507266  0.00131033  0.83583034  1
  Mn  Mn87  1  0.66480347  0.50228917  0.16778214  1
  Mn  Mn88  1  0.66529538  0.50002225  0.50072896  1
  Mn  Mn89  1  0.66879731  0.50054215  0.83437773  1
  Mn  Mn90  1  -0.00183076  0.25045975  0.16556823  1
  Mn  Mn91  1  -0.00054440  0.25018561  0.49836533  1
  Mn  Mn92  1  0.00030863  0.24845266  0.83183982  1
  Mn  Mn93  1  -0.00237311  0.74952169  0.16721681  1
  Mn  Mn94  1  0.00160153  0.75059889  0.50035089  1
  Mn  Mn95  1  0.00117008  0.75231366  0.83287143  1
  Mn  Mn96  1  0.33097155  0.24963586  0.16549074  1
  Mn  Mn97  1  0.33431160  0.25367494  0.49840296  1
  Mn  Mn98  1  0.33499568  0.24721083  0.83211706  1
  Mn  Mn99  1  0.33368588  0.74869353  0.16450801  1
  Mn  Mn100  1  0.33244533  0.74755894  0.49895054  1
  Mn  Mn101  1  0.33481022  0.75183812  0.83063784  1
  Mn  Mn102  1  0.66544441  0.24929924  0.16952908  1
  Mn  Mn103  1  0.66782633  0.25270265  0.50450347  1
  Mn  Mn104  1  0.66652958  0.24831276  0.83484735  1
  Mn  Mn105  1  0.66441751  0.74823372  0.16766368  1
  Mn  Mn106  1  0.66655463  0.74835816  0.50258488  1
  Mn  Mn107  1  0.66764523  0.75060474  0.83652444  1
  Mn  Mn108  1  0.16476719  0.24912045  -0.00125535  1
  Mn  Mn109  1  0.16710028  0.25114193  0.32964460  1
  Mn  Mn110  1  0.16807245  0.24826407  0.66365044  1
  Mn  Mn111  1  0.16518957  0.74955469  -0.00492727  1
  Mn  Mn112  1  0.16412172  0.74870860  0.33028508  1
  Mn  Mn113  1  0.16818754  0.75078513  0.66216200  1
  Mn  Mn114  1  0.49905532  0.24719699  0.00302980  1
  Mn  Mn115  1  0.49706185  0.25181391  0.33489591  1
  Mn  Mn116  1  0.50246014  0.25049539  0.67028913  1
  Mn  Mn117  1  0.50144096  0.75025741  0.00175394  1
  Mn  Mn118  1  0.49975225  0.74846310  0.33531772  1
  Mn  Mn119  1  0.49929024  0.75082181  0.66956755  1
  Mn  Mn120  1  0.83585727  0.24856909  0.00017131  1
  Mn  Mn121  1  0.83132652  0.25090375  0.33572190  1
  Mn  Mn122  1  0.83603156  0.25126738  0.66597920  1
  Mn  Mn123  1  0.83521102  0.75028123  0.00283728  1
  Mn  Mn124  1  0.83317999  0.74732407  0.33577933  1
  Mn  Mn125  1  0.83505380  0.75042048  0.66862088  1
  Mn  Mn126  1  0.16484058  0.00065271  -0.00462651  1
  Mn  Mn127  1  0.16465496  0.00141266  0.32996672  1
  Mn  Mn128  1  0.16657625  -0.00486088  0.66249931  1
  Mn  Mn129  1  0.16536812  0.50031429  -0.00199181  1
  Mn  Mn130  1  0.16624742  0.49933449  0.32883330  1
  Mn  Mn131  1  0.16944273  0.50305427  0.66359846  1
  Mn  Mn132  1  0.49897750  0.00288763  0.00140569  1
  Mn  Mn133  1  0.49732418  -0.00036737  0.33459182  1
  Mn  Mn134  1  0.50229425  -0.00295799  0.67024603  1
  Mn  Mn135  1  0.50169972  0.49862694  0.00231953  1
  Mn  Mn136  1  0.49985439  0.49927512  0.33598298  1
  Mn  Mn137  1  0.50011688  0.50231771  0.66798117  1
  Mn  Mn138  1  0.83520650  0.00071159  0.00156364  1
  Mn  Mn139  1  0.83317948  -0.00094223  0.33546829  1
  Mn  Mn140  1  0.83596770  -0.00266218  0.66784387  1
  Mn  Mn141  1  0.83604766  0.50208404  -0.00020729  1
  Mn  Mn142  1  0.83092681  0.50130335  0.33554756  1
  Mn  Mn143  1  0.83472300  0.50227339  0.66627824  1
  O  O144  1  0.16580900  0.12426182  0.02244466  1
  O  O145  1  0.17223900  0.12731855  0.35386362  1
  O  O146  1  0.16176865  0.11727875  0.68531445  1
  O  O147  1  0.16127227  0.62513396  0.01334903  1
  O  O148  1  0.16265201  0.62421136  0.35177390  1
  O  O149  1  0.16674062  0.63031783  0.68880746  1
  O  O150  1  0.48706390  0.12353249  0.02901754  1
  O  O151  1  0.48990412  0.12703152  0.34789283  1
  O  O152  1  0.50588547  0.12047936  0.68987061  1
  O  O153  1  0.50616501  0.62524696  0.02140082  1
  O  O154  1  0.49791165  0.62180043  0.36266730  1
  O  O155  1  0.49157199  0.62865159  0.69636720  1
  O  O156  1  0.84226383  0.12285245  0.01709784  1
  O  O157  1  0.83259972  0.12651332  0.35651542  1
  O  O158  1  0.83300060  0.12234787  0.67707122  1
  O  O159  1  0.83939999  0.62725404  0.02368984  1
  O  O160  1  0.82737451  0.62468206  0.36098448  1
  O  O161  1  0.84152237  0.62824335  0.69208049  1
  O  O162  1  0.17498371  0.37539484  0.30516088  1
  O  O163  1  0.17717379  0.37761769  0.65525272  1
  O  O164  1  0.15655079  0.37408927  0.98616631  1
  O  O165  1  0.15795571  0.87367174  0.32195423  1
  O  O166  1  0.17425319  0.87154608  0.63257383  1
  O  O167  1  0.16530038  0.87647733  0.97253832  1
  O  O168  1  0.49895684  0.37758890  0.30651899  1
  O  O169  1  0.50517235  0.37915670  0.64848105  1
  O  O170  1  0.50072026  0.37119926  0.98581955  1
  O  O171  1  0.49820524  0.87174254  0.30990089  1
  O  O172  1  0.50984466  0.87248772  0.64404961  1
  O  O173  1  0.49663684  0.87844409  0.97787811  1
  O  O174  1  0.82995884  0.37891299  0.32585643  1
  O  O175  1  0.83042590  0.37835895  0.64341565  1
  O  O176  1  0.83960543  0.37754259  0.97438073  1
  O  O177  1  0.83921945  0.86800059  0.31273851  1
  O  O178  1  0.83011356  0.87269458  0.64404077  1
  O  O179  1  0.83707298  0.87390406  0.97705078  1
  O  O180  1  0.00943882  0.37726970  0.18217378  1
  O  O181  1  -0.00734747  0.37865970  0.50979460  1
  O  O182  1  -0.00403073  0.38052959  0.85561463  1
  O  O183  1  -0.00298727  0.87062987  0.19286875  1
  O  O184  1  0.01413849  0.87265414  0.52037635  1
  O  O185  1  0.01368759  0.87452596  0.85860936  1
  O  O186  1  0.33519059  0.37491409  0.19021306  1
  O  O187  1  0.33784215  0.38275125  0.52759578  1
  O  O188  1  0.33459353  0.37253948  0.83830494  1
  O  O189  1  0.33913939  0.87515451  0.17499079  1
  O  O190  1  0.32555132  0.87028109  0.51836551  1
  O  O191  1  0.33458951  0.87650541  0.86036541  1
  O  O192  1  0.65995851  0.37856235  0.18932146  1
  O  O193  1  0.67039826  0.37877174  0.52981751  1
  O  O194  1  0.67671791  0.37588325  0.84417292  1
  O  O195  1  0.67018792  0.87244319  0.17733915  1
  O  O196  1  0.67169342  0.87288038  0.52783386  1
  O  O197  1  0.67157188  0.87530940  0.84884199  1
  O  O198  1  -0.00018933  0.12528323  0.14443201  1
  O  O199  1  -0.00688509  0.12106049  0.48890624  1
  O  O200  1  0.00375760  0.11588823  0.80368107  1
  O  O201  1  -0.01196961  0.62622128  0.14322779  1
  O  O202  1  -0.00517256  0.62753272  0.47359615  1
  O  O203  1  -0.00789954  0.63013900  0.80827550  1
  O  O204  1  0.32696790  0.12593384  0.13654339  1
  O  O205  1  0.33053897  0.12555305  0.47677205  1
  O  O206  1  0.33544850  0.12052246  0.81876874  1
  O  O207  1  0.33902200  0.62541922  0.15435393  1
  O  O208  1  0.34096493  0.62453250  0.47179606  1
  O  O209  1  0.33777039  0.62955921  0.81087465  1
  O  O210  1  0.65600223  0.12393123  0.15077694  1
  O  O211  1  0.67210806  0.12645627  0.49607021  1
  O  O212  1  0.65931896  0.12248197  0.80760454  1
  O  O213  1  0.65619745  0.62541934  0.14295652  1
  O  O214  1  0.65785265  0.62199042  0.47802390  1
  O  O215  1  0.66252013  0.62683715  0.82420997  1
  O  O216  1  0.08940422  0.01734328  0.23956865  1
  O  O217  1  0.08779667  0.02057154  0.57676671  1
  O  O218  1  0.08833394  0.02645626  0.90963302  1
  O  O219  1  0.08390316  0.51931031  0.24214230  1
  O  O220  1  0.08650221  0.52284189  0.57755691  1
  O  O221  1  0.08253690  0.52350380  0.91254795  1
  O  O222  1  0.41282309  0.02216500  0.24105322  1
  O  O223  1  0.42017955  -0.00334089  0.58332360  1
  O  O224  1  0.42215916  0.02029383  0.91497780  1
  O  O225  1  0.41892889  0.51965438  0.25367049  1
  O  O226  1  0.41848178  0.52537862  0.57970122  1
  O  O227  1  0.42698133  0.51389845  0.90733408  1
  O  O228  1  0.75176428  0.00725168  0.24779653  1
  O  O229  1  0.75805744  0.01505644  0.58198973  1
  O  O230  1  0.74913088  0.01560815  0.92036359  1
  O  O231  1  0.75085920  0.52493683  0.24748998  1
  O  O232  1  0.76120456  0.51899813  0.57097118  1
  O  O233  1  0.75896293  0.52290706  0.91211661  1
  O  O234  1  0.25253077  0.22422692  0.24888378  1
  O  O235  1  0.24816717  0.23520178  0.57481211  1
  O  O236  1  0.25157173  0.22813660  0.91841454  1
  O  O237  1  0.25137868  0.73393299  0.25287095  1
  O  O238  1  0.25324066  0.72156278  0.58230139  1
  O  O239  1  0.24619070  0.73861122  0.90538052  1
  O  O240  1  0.57701853  0.23966237  0.25189744  1
  O  O241  1  0.59726272  0.23947511  0.59901814  1
  O  O242  1  0.58427193  0.22199385  0.92639552  1
  O  O243  1  0.58502779  0.72486064  0.25756941  1
  O  O244  1  0.57961903  0.73422257  0.58561131  1
  O  O245  1  0.59013622  0.73197667  0.92682154  1
  O  O246  1  0.91828704  0.24390012  0.24949631  1
  O  O247  1  0.92373615  0.23177256  0.59149666  1
  O  O248  1  0.92807610  0.23604957  0.92340164  1
  O  O249  1  0.91702233  0.72378154  0.25794711  1
  O  O250  1  0.92523935  0.73189995  0.58902008  1
  O  O251  1  0.92414765  0.73313097  0.92637282  1
  O  O252  1  0.07749798  0.48644294  0.07661918  1
  O  O253  1  0.07536170  0.49268844  0.40715295  1
  O  O254  1  0.07900006  0.50161427  0.74851704  1
  O  O255  1  0.07411905  0.98673213  0.07058568  1
  O  O256  1  0.07757907  0.98284398  0.41290483  1
  O  O257  1  0.08588870  0.97417487  0.74555451  1
  O  O258  1  0.41755955  0.48649659  0.08930805  1
  O  O259  1  0.41705879  0.47418894  0.41720052  1
  O  O260  1  0.41274508  0.48202249  0.74066245  1
  O  O261  1  0.41233845  0.97891801  0.07663093  1
  O  O262  1  0.41667074  0.98169082  0.41922569  1
  O  O263  1  0.41572669  0.97356753  0.74851988  1
  O  O264  1  0.74770643  0.50005375  0.07905867  1
  O  O265  1  0.73856136  0.48073984  0.41089183  1
  O  O266  1  0.74764510  0.48332600  0.74514032  1
  O  O267  1  0.74963045  0.99625295  0.08511249  1
  O  O268  1  0.75316640  0.98428102  0.42475214  1
  O  O269  1  0.74691686  0.98151136  0.74484299  1
  O  O270  1  0.23805737  0.26588134  0.09121777  1
  O  O271  1  0.25651378  0.26674617  0.40647176  1
  O  O272  1  0.25196387  0.25471852  0.74529854  1
  O  O273  1  0.24922951  0.76342328  0.07303521  1
  O  O274  1  0.23839382  0.75722023  0.42252737  1
  O  O275  1  0.24993532  0.77376689  0.74284293  1
  O  O276  1  0.57585786  0.25968938  0.09175157  1
  O  O277  1  0.57979079  0.27386423  0.42437256  1
  O  O278  1  0.57897933  0.26648830  0.75972381  1
  O  O279  1  0.56976101  0.76565524  0.09750206  1
  O  O280  1  0.57631688  0.76406035  0.42451677  1
  O  O281  1  0.57722069  0.76984974  0.75698124  1
  O  O282  1  0.91808839  0.26722283  0.08032464  1
  O  O283  1  0.90594567  0.26247831  0.42761670  1
  O  O284  1  0.90752943  0.26834662  0.75790671  1
  O  O285  1  0.90943696  0.77420799  0.09189812  1
  O  O286  1  0.91401818  0.77280379  0.42565002  1
  O  O287  1  0.90891355  0.77258603  0.76329531  1
  O  O288  1  0.24203300  0.48625607  0.08901960  1
  O  O289  1  0.25612265  0.48900882  0.41142539  1
  O  O290  1  0.25729753  0.49590945  0.74079435  1
  O  O291  1  0.25205701  0.98608513  0.07400420  1
  O  O292  1  0.24233603  0.98941124  0.41835513  1
  O  O293  1  0.24868418  0.97374858  0.74607997  1
  O  O294  1  0.57473163  0.48516443  0.09607713  1
  O  O295  1  0.58006237  0.47214484  0.41878648  1
  O  O296  1  0.58189749  0.48884731  0.75540086  1
  O  O297  1  0.57202153  0.98827627  0.09184117  1
  O  O298  1  0.58013672  0.98327604  0.43297768  1
  O  O299  1  0.57633285  0.97582963  0.76018360  1
  O  O300  1  0.91888887  0.48336108  0.07957386  1
  O  O301  1  0.90392045  0.49061120  0.42741777  1
  O  O302  1  0.90688695  0.48671302  0.76136542  1
  O  O303  1  0.91295181  0.97621889  0.08847368  1
  O  O304  1  0.91438509  0.97395199  0.42481426  1
  O  O305  1  0.91132179  0.97373181  0.75870752  1
  O  O306  1  0.07550213  0.26412553  0.07423340  1
  O  O307  1  0.08123256  0.26147653  0.40888075  1
  O  O308  1  0.08084717  0.25165369  0.74575856  1
  O  O309  1  0.07249986  0.76147104  0.07097550  1
  O  O310  1  0.07626813  0.76441586  0.41114473  1
  O  O311  1  0.08548178  0.76778587  0.74451790  1
  O  O312  1  0.41635442  0.26567745  0.08866316  1
  O  O313  1  0.41559376  0.27825911  0.41561257  1
  O  O314  1  0.41706143  0.26362667  0.74732346  1
  O  O315  1  0.41447829  0.76995500  0.07641140  1
  O  O316  1  0.41878842  0.76635553  0.42209082  1
  O  O317  1  0.41336317  0.77992260  0.74516958  1
  O  O318  1  0.74729283  0.24887226  0.08222473  1
  O  O319  1  0.74257465  0.27408730  0.41836036  1
  O  O320  1  0.74609829  0.26395154  0.74014117  1
  O  O321  1  0.74926155  0.75401465  0.08361162  1
  O  O322  1  0.75171198  0.76251523  0.41905127  1
  O  O323  1  0.74711514  0.76965181  0.74855079  1
  O  O324  1  0.25127963  0.02200559  0.24643561  1
  O  O325  1  0.24770398  0.01477601  0.57692064  1
  O  O326  1  0.24892302  0.02094931  0.91334359  1
  O  O327  1  0.25503607  0.51808476  0.25260930  1
  O  O328  1  0.25218006  0.52821770  0.57590218  1
  O  O329  1  0.24867961  0.51320565  0.90883766  1
  O  O330  1  0.57584728  0.01086690  0.24929374  1
  O  O331  1  0.59783077  0.01029710  0.60176268  1
  O  O332  1  0.58335016  0.02781789  0.92581191  1
  O  O333  1  0.58461498  0.52357859  0.25834011  1
  O  O334  1  0.57864561  0.51687895  0.58063720  1
  O  O335  1  0.59147049  0.51767798  0.92385403  1
  O  O336  1  0.91715547  0.00499411  0.25222079  1
  O  O337  1  0.92384606  0.01203611  0.59109261  1
  O  O338  1  0.92850026  0.00941525  0.92593881  1
  O  O339  1  0.91730188  0.52059617  0.25409782  1
  O  O340  1  0.92361582  0.52546194  0.58921283  1
  O  O341  1  0.92173730  0.52624927  0.91965702  1
  O  O342  1  0.09358709  0.23782002  0.23576910  1
  O  O343  1  0.08733177  0.22948396  0.57772991  1
  O  O344  1  0.08763706  0.22444845  0.91209154  1
  O  O345  1  0.08139948  0.72748512  0.24725544  1
  O  O346  1  0.08846169  0.72293996  0.57679294  1
  O  O347  1  0.08609288  0.72640026  0.90844878  1
  O  O348  1  0.41176113  0.23069380  0.24948163  1
  O  O349  1  0.42165870  0.24934271  0.58284300  1
  O  O350  1  0.41953822  0.22744566  0.91684117  1
  O  O351  1  0.42261765  0.72867637  0.25031287  1
  O  O352  1  0.41752952  0.73404955  0.58527610  1
  O  O353  1  0.43079659  0.73740509  0.90802851  1
  O  O354  1  0.74677401  0.24250110  0.25287946  1
  O  O355  1  0.76163788  0.23559668  0.57723820  1
  O  O356  1  0.74999164  0.23336296  0.91818792  1
  O  O357  1  0.75095534  0.72712084  0.24712837  1
  O  O358  1  0.76085355  0.73283718  0.57752829  1
  O  O359  1  0.75948474  0.72991001  0.91512490  1
