# generated using pymatgen
data_Ba17Sr5La8Pr42Mn72O216
_symmetry_space_group_name_H-M   'P 1'
_cell_length_a   16.68861844
_cell_length_b   15.71643775
_cell_length_c   16.82768135
_cell_angle_alpha   90.00976156
_cell_angle_beta   89.97010835
_cell_angle_gamma   90.00874052
_symmetry_Int_Tables_number   1
_chemical_formula_structural   Ba17Sr5La8Pr42Mn72O216
_chemical_formula_sum   'Ba17 Sr5 La8 Pr42 Mn72 O216'
_cell_volume   4413.65833350
_cell_formula_units_Z   1
loop_
 _symmetry_equiv_pos_site_id
 _symmetry_equiv_pos_as_xyz
  1  'x, y, z'
loop_
 _atom_site_type_symbol
 _atom_site_label
 _atom_site_symmetry_multiplicity
 _atom_site_fract_x
 _atom_site_fract_y
 _atom_site_fract_z
 _atom_site_occupancy
  Ba  Ba0  1  0.16651324  0.87547488  0.83224517  1
  Ba  Ba1  1  0.50126327  0.62322121  0.83513208  1
  Ba  Ba2  1  -0.00279127  0.87359027  0.32947113  1
  Ba  Ba3  1  -0.00330481  0.87565547  -0.00007577  1
  Ba  Ba4  1  0.83643768  0.62329859  0.83393660  1
  Ba  Ba5  1  0.33365085  0.87487979  -0.00004444  1
  Ba  Ba6  1  0.16400352  0.37535775  0.49675044  1
  Ba  Ba7  1  0.66665039  0.87675198  0.66776627  1
  Ba  Ba8  1  0.83141987  0.87422467  0.83374194  1
  Ba  Ba9  1  0.33053273  0.37597891  0.66443738  1
  Ba  Ba10  1  0.17030594  0.12619052  0.49789084  1
  Ba  Ba11  1  0.16369350  0.37582425  0.16417353  1
  Ba  Ba12  1  0.83348124  0.87624593  0.49847197  1
  Ba  Ba13  1  0.16433579  0.87441907  0.16278178  1
  Ba  Ba14  1  0.33630502  0.12533838  0.33218892  1
  Ba  Ba15  1  0.49916132  0.87346261  0.50211858  1
  Ba  Ba16  1  0.83565903  0.12557583  0.49889612  1
  Sr  Sr17  1  0.66155742  0.37376093  0.66568864  1
  Sr  Sr18  1  0.49598978  0.87607958  0.16963334  1
  Sr  Sr19  1  0.50300251  0.12060091  0.17317873  1
  Sr  Sr20  1  0.33059570  0.87566077  0.66967047  1
  Sr  Sr21  1  0.49354432  0.37638948  0.49915985  1
  La  La22  1  -0.00417949  0.37131378  0.66603103  1
  La  La23  1  0.00575324  0.12451544  0.33268397  1
  La  La24  1  0.17570882  0.62516968  0.49998523  1
  La  La25  1  0.49352396  0.37533667  0.82953771  1
  La  La26  1  0.65616873  0.37313086  0.33901851  1
  La  La27  1  0.67388879  0.12587086  0.66512294  1
  La  La28  1  0.33858768  0.12303490  1.00439923  1
  La  La29  1  0.17237617  0.62837695  0.16553150  1
  Pr  Pr30  1  0.01122777  0.62344449  0.99445210  1
  Pr  Pr31  1  0.00719560  0.12135106  0.66296240  1
  Pr  Pr32  1  -0.00339391  0.87773766  0.67018988  1
  Pr  Pr33  1  0.50536332  0.12718265  0.83630904  1
  Pr  Pr34  1  0.51004735  0.62388088  0.50698019  1
  Pr  Pr35  1  0.82536441  0.87591902  0.16047352  1
  Pr  Pr36  1  0.00713751  0.62608283  0.33286363  1
  Pr  Pr37  1  0.32816503  0.87821726  0.33400304  1
  Pr  Pr38  1  0.34269549  0.62321618  0.33242867  1
  Pr  Pr39  1  0.32601160  0.37273212  0.34087417  1
  Pr  Pr40  1  0.49467111  0.87548196  0.82692333  1
  Pr  Pr41  1  0.34060561  0.12281793  0.66109534  1
  Pr  Pr42  1  0.84136878  0.62235988  0.16698897  1
  Pr  Pr43  1  0.49054918  0.37297927  0.16958467  1
  Pr  Pr44  1  0.50426224  0.12579781  0.50278549  1
  Pr  Pr45  1  0.67130153  0.62386083  0.99525583  1
  Pr  Pr46  1  0.15962726  0.37531471  0.82642121  1
  Pr  Pr47  1  0.32951913  0.37701886  -0.00025304  1
  Pr  Pr48  1  0.66225884  0.87688757  0.33823721  1
  Pr  Pr49  1  0.00934528  0.62925637  0.66627212  1
  Pr  Pr50  1  0.17362150  0.11953051  0.17084127  1
  Pr  Pr51  1  0.81797624  0.37623849  0.16624390  1
  Pr  Pr52  1  0.67245072  0.12715164  1.00193401  1
  Pr  Pr53  1  0.82190539  0.37538797  0.83063959  1
  Pr  Pr54  1  0.66871458  0.12019845  0.33335201  1
  Pr  Pr55  1  -0.01427328  0.37595762  0.00369481  1
  Pr  Pr56  1  0.16419649  0.87561852  0.49550333  1
  Pr  Pr57  1  0.83907354  0.12747203  0.17233905  1
  Pr  Pr58  1  -0.01343537  0.37648950  0.33750476  1
  Pr  Pr59  1  0.82226479  0.37360923  0.49947994  1
  Pr  Pr60  1  0.84166852  0.12516485  0.83423269  1
  Pr  Pr61  1  0.84224256  0.62478706  0.50548750  1
  Pr  Pr62  1  0.34401526  0.62741800  0.66470186  1
  Pr  Pr63  1  0.65993446  0.87164084  0.00127883  1
  Pr  Pr64  1  0.67689639  0.62572642  0.66621651  1
  Pr  Pr65  1  0.17480377  0.62583621  0.83220170  1
  Pr  Pr66  1  0.67292069  0.62770532  0.33492736  1
  Pr  Pr67  1  0.01148926  0.12652484  0.99860704  1
  Pr  Pr68  1  0.17762817  0.12407138  0.83076023  1
  Pr  Pr69  1  0.65435062  0.37766091  0.00148685  1
  Pr  Pr70  1  0.50441015  0.62848821  0.16683076  1
  Pr  Pr71  1  0.33688505  0.62815030  0.99844731  1
  Mn  Mn72  1  -0.00353182  0.00233626  0.16408054  1
  Mn  Mn73  1  0.00135650  0.00020603  0.49914833  1
  Mn  Mn74  1  0.00131587  0.00280351  0.83200427  1
  Mn  Mn75  1  -0.00185941  0.49905105  0.16664956  1
  Mn  Mn76  1  -0.00131827  0.50012026  0.50000087  1
  Mn  Mn77  1  0.00092981  0.49775894  0.83372822  1
  Mn  Mn78  1  0.33624191  -0.00112801  0.16666868  1
  Mn  Mn79  1  0.33530049  -0.00178072  0.50129531  1
  Mn  Mn80  1  0.33601129  0.00319238  0.83173150  1
  Mn  Mn81  1  0.33518785  0.50044881  0.16653346  1
  Mn  Mn82  1  0.33577808  0.50219660  0.49775839  1
  Mn  Mn83  1  0.33128457  0.49965152  0.83477712  1
  Mn  Mn84  1  0.66550920  -0.00078020  0.16590382  1
  Mn  Mn85  1  0.66673165  0.00096187  0.50005893  1
  Mn  Mn86  1  0.66628859  0.00427638  0.83621498  1
  Mn  Mn87  1  0.66307558  0.50130481  0.16814515  1
  Mn  Mn88  1  0.66775683  0.49939140  0.49985307  1
  Mn  Mn89  1  0.66559886  0.49759019  0.83283303  1
  Mn  Mn90  1  -0.00258453  0.25312642  0.16574821  1
  Mn  Mn91  1  -0.00189433  0.25190774  0.49998687  1
  Mn  Mn92  1  0.00071729  0.25054183  0.83550518  1
  Mn  Mn93  1  -0.00313129  0.74668808  0.16382330  1
  Mn  Mn94  1  0.00216970  0.74825565  0.49893446  1
  Mn  Mn95  1  0.00174006  0.74858103  0.83134003  1
  Mn  Mn96  1  0.33353428  0.25254236  0.16636171  1
  Mn  Mn97  1  0.33505076  0.24938228  0.49928614  1
  Mn  Mn98  1  0.33348416  0.24862401  0.83428295  1
  Mn  Mn99  1  0.33686914  0.74698894  0.16700735  1
  Mn  Mn100  1  0.33541002  0.75033172  0.49944191  1
  Mn  Mn101  1  0.33422117  0.74957626  0.83153920  1
  Mn  Mn102  1  0.66375970  0.25162172  0.16746454  1
  Mn  Mn103  1  0.66409074  0.25086141  0.50099789  1
  Mn  Mn104  1  0.66647901  0.24993751  0.83431498  1
  Mn  Mn105  1  0.66615746  0.74805434  0.16736574  1
  Mn  Mn106  1  0.66967542  0.74861758  0.49849218  1
  Mn  Mn107  1  0.66579965  0.74960496  0.83477398  1
  Mn  Mn108  1  0.16783739  0.25096726  -0.00294940  1
  Mn  Mn109  1  0.16418821  0.25121451  0.32830128  1
  Mn  Mn110  1  0.16575617  0.25059986  0.66716220  1
  Mn  Mn111  1  0.16693650  0.74825796  -0.00028904  1
  Mn  Mn112  1  0.16812358  0.74778561  0.33369834  1
  Mn  Mn113  1  0.16957753  0.74891501  0.66393486  1
  Mn  Mn114  1  0.49999183  0.24933017  0.00274535  1
  Mn  Mn115  1  0.50047815  0.24972490  0.33413798  1
  Mn  Mn116  1  0.50047927  0.25104157  0.66871159  1
  Mn  Mn117  1  0.50093237  0.75086376  0.00229146  1
  Mn  Mn118  1  0.50067926  0.74796324  0.33493906  1
  Mn  Mn119  1  0.50262622  0.74936520  0.66824734  1
  Mn  Mn120  1  0.83096764  0.25033185  0.00153103  1
  Mn  Mn121  1  0.83093125  0.25160768  0.33170141  1
  Mn  Mn122  1  0.83376074  0.25197438  0.66852626  1
  Mn  Mn123  1  0.83131544  0.74874981  0.00209398  1
  Mn  Mn124  1  0.83252891  0.74704452  0.33133436  1
  Mn  Mn125  1  0.83611025  0.74844942  0.66671454  1
  Mn  Mn126  1  0.16801422  0.00365987  0.00024954  1
  Mn  Mn127  1  0.16621034  -0.00136018  0.33234488  1
  Mn  Mn128  1  0.16832262  -0.00037123  0.66478110  1
  Mn  Mn129  1  0.16690907  0.49782584  -0.00425652  1
  Mn  Mn130  1  0.16567953  0.50218165  0.33121325  1
  Mn  Mn131  1  0.16611771  0.50040770  0.66598525  1
  Mn  Mn132  1  0.50274073  0.00260817  0.00187804  1
  Mn  Mn133  1  0.50056114  -0.00181513  0.33465959  1
  Mn  Mn134  1  0.50069959  0.00196967  0.66983376  1
  Mn  Mn135  1  0.49818574  0.49778840  0.00285024  1
  Mn  Mn136  1  0.50053876  0.50264330  0.33421171  1
  Mn  Mn137  1  0.50272597  0.49754930  0.66696568  1
  Mn  Mn138  1  0.83078514  0.00356132  0.00183315  1
  Mn  Mn139  1  0.83302406  0.00059368  0.32910275  1
  Mn  Mn140  1  0.83441551  0.00212955  0.66880860  1
  Mn  Mn141  1  0.83069647  0.49814145  0.00093197  1
  Mn  Mn142  1  0.83037222  0.50147231  0.33496472  1
  Mn  Mn143  1  0.83570947  0.49751112  0.66644529  1
  O  O144  1  0.16308041  0.13179839  0.02481910  1
  O  O145  1  0.15863964  0.12415598  0.33813718  1
  O  O146  1  0.15721972  0.12768194  0.68655338  1
  O  O147  1  0.16126767  0.61938678  0.01880738  1
  O  O148  1  0.15811104  0.62503334  0.35419759  1
  O  O149  1  0.15926413  0.62248374  0.68869276  1
  O  O150  1  0.50130064  0.12872258  0.02524597  1
  O  O151  1  0.50449387  0.12598737  0.35473466  1
  O  O152  1  0.49347301  0.12785054  0.69190998  1
  O  O153  1  0.49530460  0.61839734  0.02345568  1
  O  O154  1  0.49124093  0.62402197  0.36122571  1
  O  O155  1  0.49813283  0.62193925  0.67638963  1
  O  O156  1  0.82329172  0.13048716  0.02931463  1
  O  O157  1  0.82145903  0.12919610  0.34054888  1
  O  O158  1  0.82993087  0.13100786  0.68883890  1
  O  O159  1  0.82056468  0.62120026  0.02367670  1
  O  O160  1  0.82171427  0.62134819  0.36153656  1
  O  O161  1  0.82770608  0.62046150  0.67499521  1
  O  O162  1  0.17563062  0.38048067  0.32091702  1
  O  O163  1  0.16288118  0.37744879  0.65517086  1
  O  O164  1  0.17818609  0.37369688  0.96957609  1
  O  O165  1  0.17629141  0.87026629  0.32181640  1
  O  O166  1  0.16928024  0.87097964  0.64049172  1
  O  O167  1  0.16657176  0.87475797  0.99177281  1
  O  O168  1  0.50797292  0.37950405  0.31205960  1
  O  O169  1  0.50421525  0.37427917  0.64899711  1
  O  O170  1  0.50356875  0.37295579  0.97466536  1
  O  O171  1  0.51335814  0.87007120  0.31931320  1
  O  O172  1  0.50031687  0.87572706  0.66096351  1
  O  O173  1  0.50877147  0.88129459  0.97322662  1
  O  O174  1  0.83747736  0.37829266  0.30861985  1
  O  O175  1  0.84202776  0.37514679  0.64326790  1
  O  O176  1  0.83723549  0.37208023  0.97443821  1
  O  O177  1  0.82816479  0.87205992  0.30572782  1
  O  O178  1  0.84435551  0.87236305  0.65822350  1
  O  O179  1  0.82777141  0.87715880  0.99080952  1
  O  O180  1  -0.00271800  0.37669342  0.19369114  1
  O  O181  1  -0.00676654  0.37670515  0.52072016  1
  O  O182  1  0.01038390  0.37217078  0.86289110  1
  O  O183  1  -0.01002105  0.87195632  0.17301785  1
  O  O184  1  0.00787713  0.86936416  0.52272809  1
  O  O185  1  -0.00085761  0.87620262  0.84041382  1
  O  O186  1  0.33832640  0.37892363  0.19481997  1
  O  O187  1  0.33299607  0.37721053  0.50529888  1
  O  O188  1  0.33060609  0.37252644  0.85654804  1
  O  O189  1  0.33465070  0.86742767  0.18781351  1
  O  O190  1  0.32539203  0.87264593  0.51981070  1
  O  O191  1  0.34141269  0.87728484  0.84214884  1
  O  O192  1  0.66633064  0.37877548  0.19625263  1
  O  O193  1  0.66911194  0.37574204  0.51523898  1
  O  O194  1  0.67027324  0.37150924  0.85849538  1
  O  O195  1  0.67540258  0.86904010  0.19434318  1
  O  O196  1  0.66596650  0.87455603  0.50580378  1
  O  O197  1  0.66105517  0.88206781  0.85721753  1
  O  O198  1  -0.01234611  0.13222481  0.14160493  1
  O  O199  1  0.00142875  0.13044691  0.47924313  1
  O  O200  1  -0.00588987  0.13011329  0.80777485  1
  O  O201  1  -0.01008896  0.61966287  0.13848749  1
  O  O202  1  -0.00543140  0.62210378  0.47635688  1
  O  O203  1  0.00687563  0.62062895  0.81115105  1
  O  O204  1  0.33238313  0.13061739  0.15024821  1
  O  O205  1  0.34506842  0.12288969  0.48963635  1
  O  O206  1  0.33658189  0.12781042  0.80677991  1
  O  O207  1  0.34304115  0.62100430  0.14190074  1
  O  O208  1  0.34166091  0.62678876  0.47651909  1
  O  O209  1  0.32876499  0.62260447  0.81083991  1
  O  O210  1  0.66637950  0.12971608  0.14489848  1
  O  O211  1  0.66222419  0.12838668  0.47891678  1
  O  O212  1  0.65780804  0.12986627  0.80943312  1
  O  O213  1  0.65734558  0.62282250  0.13701810  1
  O  O214  1  0.67366090  0.62193249  0.47987678  1
  O  O215  1  0.66579231  0.61792313  0.81236088  1
  O  O216  1  0.08216333  0.01651233  0.24311576  1
  O  O217  1  0.08661171  0.01063797  0.58191019  1
  O  O218  1  0.08868599  0.02506591  0.90978492  1
  O  O219  1  0.08761903  0.52480004  0.23907691  1
  O  O220  1  0.08905302  0.52174640  0.57191864  1
  O  O221  1  0.09521173  0.51720654  0.90268170  1
  O  O222  1  0.42224341  0.00221848  0.24943626  1
  O  O223  1  0.42442910  0.01863002  0.58155412  1
  O  O224  1  0.42508213  0.02345746  0.91290807  1
  O  O225  1  0.42773955  0.52150044  0.24321037  1
  O  O226  1  0.42419225  0.51630109  0.57431453  1
  O  O227  1  0.41214861  0.50888995  0.92287303  1
  O  O228  1  0.75678643  0.01764303  0.23690368  1
  O  O229  1  0.75001392  0.01358450  0.58506238  1
  O  O230  1  0.75472298  0.02918235  0.91421582  1
  O  O231  1  0.75524406  0.52093089  0.24074263  1
  O  O232  1  0.76086553  0.51058640  0.56975917  1
  O  O233  1  0.75120066  0.50801804  0.91588732  1
  O  O234  1  0.24839210  0.23860535  0.24472074  1
  O  O235  1  0.25760734  0.23393126  0.59409084  1
  O  O236  1  0.25801956  0.22216560  0.91985278  1
  O  O237  1  0.25752138  0.72479795  0.25485804  1
  O  O238  1  0.25860216  0.72237634  0.58764034  1
  O  O239  1  0.25278034  0.72910372  0.91787182  1
  O  O240  1  0.59538895  0.23394711  0.26156519  1
  O  O241  1  0.58572749  0.22639032  0.59138571  1
  O  O242  1  0.59108885  0.23225488  0.92797468  1
  O  O243  1  0.58941051  0.72455694  0.25498928  1
  O  O244  1  0.59265635  0.72758395  0.58914475  1
  O  O245  1  0.59079270  0.73369976  0.93046161  1
  O  O246  1  0.92386830  0.23248165  0.26021627  1
  O  O247  1  0.92458621  0.23492385  0.59858851  1
  O  O248  1  0.92638438  0.22943479  0.92621200  1
  O  O249  1  0.91974217  0.72158764  0.25509894  1
  O  O250  1  0.92552381  0.72830392  0.58636821  1
  O  O251  1  0.92190073  0.73122308  0.93038679  1
  O  O252  1  0.07303516  0.48216285  0.06285452  1
  O  O253  1  0.06408943  0.48655479  0.40348952  1
  O  O254  1  0.07123489  0.47877540  0.74300058  1
  O  O255  1  0.07498299  1.00231312  0.07998979  1
  O  O256  1  0.08589435  0.98493377  0.41615295  1
  O  O257  1  0.07680263  0.98806931  0.73904401  1
  O  O258  1  0.41359922  0.47128044  0.08202465  1
  O  O259  1  0.40749544  0.48338787  0.40159648  1
  O  O260  1  0.41319360  0.48658169  0.75382212  1
  O  O261  1  0.41692576  0.99342435  0.08002248  1
  O  O262  1  0.41072870  0.98029484  0.41047450  1
  O  O263  1  0.41332377  0.98789166  0.74655024  1
  O  O264  1  0.73742508  0.47586485  0.08034731  1
  O  O265  1  0.74011036  0.47682103  0.40654099  1
  O  O266  1  0.74651917  0.48013899  0.74463535  1
  O  O267  1  0.73857229  0.98235180  0.07426852  1
  O  O268  1  0.74252928  0.98939895  0.40055591  1
  O  O269  1  0.74579945  1.00036343  0.75165583  1
  O  O270  1  0.25152607  0.26707327  0.07715134  1
  O  O271  1  0.24944789  0.25851463  0.41246300  1
  O  O272  1  0.23625856  0.26015645  0.76163621  1
  O  O273  1  0.24875336  0.74548877  0.08544488  1
  O  O274  1  0.24451204  0.76171313  0.42690550  1
  O  O275  1  0.24833784  0.75473383  0.74921497  1
  O  O276  1  0.57588886  0.27609945  0.09216185  1
  O  O277  1  0.57686447  0.26645337  0.42370018  1
  O  O278  1  0.57516397  0.26671714  0.76098373  1
  O  O279  1  0.58106137  0.76917687  0.09080241  1
  O  O280  1  0.58085417  0.74987363  0.41980352  1
  O  O281  1  0.57729366  0.76446220  0.76195499  1
  O  O282  1  0.90403674  0.27529551  0.09524646  1
  O  O283  1  0.90624107  0.27312504  0.42135049  1
  O  O284  1  0.90917521  0.27239220  0.76483458  1
  O  O285  1  0.89951983  0.75708254  0.09690078  1
  O  O286  1  0.91173414  0.75318206  0.41884707  1
  O  O287  1  0.92114730  0.75407154  0.74640340  1
  O  O288  1  0.25125573  0.48804389  0.07943119  1
  O  O289  1  0.24829236  0.49892511  0.41864014  1
  O  O290  1  0.23848615  0.48755930  0.76351566  1
  O  O291  1  0.24922813  1.00130631  0.08446713  1
  O  O292  1  0.24886936  0.98158691  0.42026899  1
  O  O293  1  0.24590329  0.99777897  0.75132866  1
  O  O294  1  0.57459470  0.47596657  0.09397405  1
  O  O295  1  0.57617488  0.49052154  0.42412282  1
  O  O296  1  0.57895536  0.47754439  0.75952591  1
  O  O297  1  0.58199302  0.97848882  0.08770099  1
  O  O298  1  0.58150127  0.99412814  0.41849558  1
  O  O299  1  0.57207424  0.99160637  0.76535130  1
  O  O300  1  0.90346240  0.47840184  0.09414396  1
  O  O301  1  0.90237886  0.48166473  0.43017972  1
  O  O302  1  0.91160046  0.47420394  0.76234996  1
  O  O303  1  0.89986089  0.99196646  0.09468772  1
  O  O304  1  0.91599574  0.99562453  0.41365069  1
  O  O305  1  0.91583013  0.99581734  0.75280941  1
  O  O306  1  0.06860558  0.26784819  0.06718024  1
  O  O307  1  0.07094747  0.26585653  0.39918312  1
  O  O308  1  0.07416185  0.27066650  0.74684702  1
  O  O309  1  0.07681740  0.74824521  0.07835287  1
  O  O310  1  0.08264454  0.76115240  0.41655553  1
  O  O311  1  0.07904295  0.76395536  0.73378786  1
  O  O312  1  0.41119489  0.27475663  0.07773630  1
  O  O313  1  0.41399956  0.26856893  0.40827466  1
  O  O314  1  0.41537528  0.26717892  0.75220745  1
  O  O315  1  0.41929401  0.75899588  0.08483256  1
  O  O316  1  0.40377294  0.76785544  0.40397807  1
  O  O317  1  0.41377586  0.75847836  0.74672932  1
  O  O318  1  0.73688386  0.27629365  0.07655494  1
  O  O319  1  0.74334148  0.27005300  0.40755458  1
  O  O320  1  0.74693366  0.26953852  0.74743689  1
  O  O321  1  0.74122929  0.76903275  0.07977597  1
  O  O322  1  0.74008108  0.76353852  0.40103011  1
  O  O323  1  0.74573441  0.75249745  0.74391608  1
  O  O324  1  0.24938022  0.00931495  0.24954808  1
  O  O325  1  0.25960331  0.01576941  0.59103712  1
  O  O326  1  0.25737995  0.02418167  0.91721761  1
  O  O327  1  0.25778874  0.52586687  0.24958215  1
  O  O328  1  0.25915120  0.52484599  0.58797082  1
  O  O329  1  0.25482341  0.52562122  0.92147263  1
  O  O330  1  0.59307364  0.01425221  0.25822079  1
  O  O331  1  0.58552200  0.02453439  0.59232087  1
  O  O332  1  0.59086111  0.02904273  0.92543480  1
  O  O333  1  0.58941537  0.52685562  0.25840625  1
  O  O334  1  0.59651212  0.52128202  0.58790396  1
  O  O335  1  0.59082928  0.51105695  0.93078518  1
  O  O336  1  0.91996675  0.02335370  0.25271057  1
  O  O337  1  0.92604748  0.01265605  0.59139836  1
  O  O338  1  0.91990302  0.02636515  0.92442739  1
  O  O339  1  0.92039637  0.52282100  0.26505462  1
  O  O340  1  0.92911942  0.52068240  0.59314011  1
  O  O341  1  0.93174348  0.51208357  0.92893655  1
  O  O342  1  0.08627962  0.22906070  0.23560933  1
  O  O343  1  0.08320231  0.23959860  0.58600901  1
  O  O344  1  0.09251699  0.22554181  0.90651589  1
  O  O345  1  0.08457719  0.72851354  0.24304469  1
  O  O346  1  0.09262203  0.72536152  0.57559358  1
  O  O347  1  0.08887257  0.72864473  0.91020763  1
  O  O348  1  0.42855130  0.24321087  0.24259799  1
  O  O349  1  0.42407718  0.23216227  0.58180354  1
  O  O350  1  0.42341630  0.22991048  0.91547296  1
  O  O351  1  0.42378502  0.72634130  0.24757787  1
  O  O352  1  0.42377233  0.73036958  0.57650715  1
  O  O353  1  0.41532487  0.73690670  0.91896325  1
  O  O354  1  0.75899851  0.24096429  0.23671605  1
  O  O355  1  0.75009023  0.24236395  0.58096339  1
  O  O356  1  0.75678943  0.22731704  0.90932138  1
  O  O357  1  0.75490819  0.71978946  0.24107016  1
  O  O358  1  0.75819307  0.73191710  0.57631521  1
  O  O359  1  0.74814251  0.73659655  0.91974514  1
