# generated using pymatgen
data_Ba17Sr5La8Pr42Mn72O216
_symmetry_space_group_name_H-M   'P 1'
_cell_length_a   16.67912241
_cell_length_b   15.70257854
_cell_length_c   16.81886834
_cell_angle_alpha   89.99494923
_cell_angle_beta   90.02709041
_cell_angle_gamma   90.00154232
_symmetry_Int_Tables_number   1
_chemical_formula_structural   Ba17Sr5La8Pr42Mn72O216
_chemical_formula_sum   'Ba17 Sr5 La8 Pr42 Mn72 O216'
_cell_volume   4404.94906254
_cell_formula_units_Z   1
loop_
 _symmetry_equiv_pos_site_id
 _symmetry_equiv_pos_as_xyz
  1  'x, y, z'
loop_
 _atom_site_type_symbol
 _atom_site_label
 _atom_site_symmetry_multiplicity
 _atom_site_fract_x
 _atom_site_fract_y
 _atom_site_fract_z
 _atom_site_occupancy
  Ba  Ba0  1  -0.00161176  0.12561976  0.66774920  1
  Ba  Ba1  1  0.33165716  0.37482193  0.66732599  1
  Ba  Ba2  1  0.16990567  0.12407504  0.16527560  1
  Ba  Ba3  1  0.66594391  0.87472887  0.66769108  1
  Ba  Ba4  1  -0.00121247  0.37673127  0.00068032  1
  Ba  Ba5  1  0.83097550  0.62595200  0.83491149  1
  Ba  Ba6  1  0.83221662  0.62525247  0.49985612  1
  Ba  Ba7  1  0.83225538  0.12402621  0.83531190  1
  Ba  Ba8  1  0.49943536  0.37446157  0.49779929  1
  Ba  Ba9  1  0.33208905  0.87533545  0.66597000  1
  Ba  Ba10  1  0.83309258  0.12424099  0.50088096  1
  Ba  Ba11  1  -0.00262122  0.37566327  0.66859880  1
  Ba  Ba12  1  0.83216023  0.12328543  0.16804598  1
  Ba  Ba13  1  0.66575039  0.37572081  0.66663798  1
  Ba  Ba14  1  0.00114828  0.87498004  0.66558858  1
  Ba  Ba15  1  0.16750079  0.87419951  0.50081970  1
  Ba  Ba16  1  0.83192007  0.37527058  0.16457540  1
  Sr  Sr17  1  0.83031526  0.62150283  0.17047017  1
  Sr  Sr18  1  0.66912312  0.37574108  -0.00120865  1
  Sr  Sr19  1  0.66313494  0.62342957  0.32947815  1
  Sr  Sr20  1  0.16803762  0.62455311  0.83318123  1
  Sr  Sr21  1  0.83095883  0.37619997  0.83378451  1
  La  La22  1  0.33338562  0.62599270  0.33211278  1
  La  La23  1  0.32853512  0.37349302  0.33628095  1
  La  La24  1  -0.00208813  0.62261559  0.99753712  1
  La  La25  1  0.50181762  0.62420207  0.49937558  1
  La  La26  1  0.16610094  0.12664065  0.83487114  1
  La  La27  1  0.50005303  0.37532575  0.82562513  1
  La  La28  1  0.33106350  0.37586162  -0.00059858  1
  La  La29  1  0.33703998  0.62581540  0.99586931  1
  Pr  Pr30  1  0.66742809  0.62203407  1.00065333  1
  Pr  Pr31  1  0.49705172  0.87504030  0.82612887  1
  Pr  Pr32  1  0.66159174  0.12762276  0.32870735  1
  Pr  Pr33  1  0.16892127  0.62406801  0.50610585  1
  Pr  Pr34  1  -0.00387418  0.62444311  0.66615062  1
  Pr  Pr35  1  0.33430238  0.62378666  0.66459487  1
  Pr  Pr36  1  0.83860180  0.87051779  0.16943186  1
  Pr  Pr37  1  0.67679716  0.87365942  0.33932537  1
  Pr  Pr38  1  0.16172565  0.87374001  0.82605574  1
  Pr  Pr39  1  0.16871333  0.12522303  0.50298829  1
  Pr  Pr40  1  0.83906963  0.87401410  0.83142996  1
  Pr  Pr41  1  0.50051047  0.12572473  0.50105213  1
  Pr  Pr42  1  0.16583188  0.87447566  0.16693858  1
  Pr  Pr43  1  0.33754187  0.12380600  0.99560817  1
  Pr  Pr44  1  0.50105282  0.87139440  0.16221647  1
  Pr  Pr45  1  0.33478365  0.87906881  0.33846424  1
  Pr  Pr46  1  0.16254624  0.37464129  0.16322889  1
  Pr  Pr47  1  0.66804947  0.12856241  0.99850065  1
  Pr  Pr48  1  0.33409758  0.12499664  0.33115165  1
  Pr  Pr49  1  0.00001967  0.87400678  -0.00029913  1
  Pr  Pr50  1  0.50080025  0.37725144  0.16022831  1
  Pr  Pr51  1  0.50334682  0.87484981  0.49356491  1
  Pr  Pr52  1  0.83287783  0.37266833  0.49931026  1
  Pr  Pr53  1  0.66839451  0.12908037  0.66471265  1
  Pr  Pr54  1  0.50277372  0.62609516  0.82880630  1
  Pr  Pr55  1  0.49854617  0.12423746  0.16585194  1
  Pr  Pr56  1  0.16044673  0.37392430  0.49949531  1
  Pr  Pr57  1  -0.00626564  0.37479273  0.33395183  1
  Pr  Pr58  1  0.66667665  0.62152956  0.66317221  1
  Pr  Pr59  1  0.00249398  0.12198419  0.32932708  1
  Pr  Pr60  1  0.50024470  0.62482541  0.16670723  1
  Pr  Pr61  1  0.16718361  0.62248067  0.16765230  1
  Pr  Pr62  1  -0.00054148  0.12945374  0.99502493  1
  Pr  Pr63  1  -0.00030245  0.62915144  0.32912989  1
  Pr  Pr64  1  0.00003736  0.87742739  0.33890534  1
  Pr  Pr65  1  0.33510719  0.12602749  0.66678454  1
  Pr  Pr66  1  0.15885654  0.37706777  0.83121072  1
  Pr  Pr67  1  0.67374625  0.37665489  0.33535617  1
  Pr  Pr68  1  0.67355798  0.87479354  0.00268492  1
  Pr  Pr69  1  0.33160963  0.87431540  -0.00076800  1
  Pr  Pr70  1  0.50467756  0.12400932  0.82972963  1
  Pr  Pr71  1  0.84287865  0.87551124  0.50024649  1
  Mn  Mn72  1  0.00172925  -0.00306665  0.16644780  1
  Mn  Mn73  1  0.00209464  0.00130050  0.49879323  1
  Mn  Mn74  1  0.00205209  0.00032971  0.83634773  1
  Mn  Mn75  1  0.00116715  0.50307062  0.16769731  1
  Mn  Mn76  1  0.00046243  0.50055540  0.49891827  1
  Mn  Mn77  1  -0.00049573  0.50240730  0.83370931  1
  Mn  Mn78  1  0.33511340  -0.00289856  0.16638734  1
  Mn  Mn79  1  0.33498213  0.00182601  0.49954166  1
  Mn  Mn80  1  0.33361673  0.00033212  0.83470606  1
  Mn  Mn81  1  0.33378026  0.50058255  0.16650115  1
  Mn  Mn82  1  0.33184380  0.49946104  0.49739708  1
  Mn  Mn83  1  0.33376708  0.50163787  0.83396505  1
  Mn  Mn84  1  0.66395628  -0.00346073  0.16848406  1
  Mn  Mn85  1  0.66610265  -0.00108842  0.49922667  1
  Mn  Mn86  1  0.66440417  -0.00210574  0.83669145  1
  Mn  Mn87  1  0.66428390  0.50046816  0.16654017  1
  Mn  Mn88  1  0.66628123  0.50061181  0.49713562  1
  Mn  Mn89  1  0.66533588  0.50136271  0.83420512  1
  Mn  Mn90  1  0.00112523  0.24721522  0.16664961  1
  Mn  Mn91  1  0.00067532  0.25143140  0.49820412  1
  Mn  Mn92  1  -0.00120626  0.25083220  0.83401444  1
  Mn  Mn93  1  0.00242613  0.75066730  0.16632427  1
  Mn  Mn94  1  0.00194348  0.74710466  0.49820065  1
  Mn  Mn95  1  0.00206903  0.74748058  0.83516072  1
  Mn  Mn96  1  0.33477233  0.25068820  0.16666380  1
  Mn  Mn97  1  0.33151830  0.24979949  0.49851342  1
  Mn  Mn98  1  0.33383330  0.24925183  0.83491904  1
  Mn  Mn99  1  0.33287690  0.75074034  0.16589946  1
  Mn  Mn100  1  0.33522143  0.74974126  0.49771222  1
  Mn  Mn101  1  0.33374479  0.74919158  0.83392873  1
  Mn  Mn102  1  0.66306573  0.24955565  0.16521727  1
  Mn  Mn103  1  0.66618526  0.24971333  0.49687121  1
  Mn  Mn104  1  0.66570489  0.25013856  0.83423470  1
  Mn  Mn105  1  0.66524013  0.75205188  0.16861913  1
  Mn  Mn106  1  0.66613217  0.75026154  0.49936328  1
  Mn  Mn107  1  0.66391764  0.75127143  0.83621878  1
  Mn  Mn108  1  0.16943614  0.25016437  0.00085163  1
  Mn  Mn109  1  0.16511261  0.25085584  0.33340957  1
  Mn  Mn110  1  0.16792858  0.25005152  0.66818203  1
  Mn  Mn111  1  0.16846073  0.75082419  0.00013954  1
  Mn  Mn112  1  0.16807495  0.74769219  0.33236534  1
  Mn  Mn113  1  0.16802993  0.74763152  0.66890004  1
  Mn  Mn114  1  0.49994440  0.24998456  -0.00258145  1
  Mn  Mn115  1  0.49876660  0.25038210  0.32890690  1
  Mn  Mn116  1  0.49898589  0.24840209  0.66582285  1
  Mn  Mn117  1  0.50099633  0.75089514  -0.00308612  1
  Mn  Mn118  1  0.49996615  0.75025555  0.32991934  1
  Mn  Mn119  1  0.49905049  0.75024306  0.66423760  1
  Mn  Mn120  1  0.83247017  0.25061036  0.00110522  1
  Mn  Mn121  1  0.83345439  0.24897626  0.33391008  1
  Mn  Mn122  1  0.83157577  0.25055822  0.66744302  1
  Mn  Mn123  1  0.83277936  0.75090118  0.00327800  1
  Mn  Mn124  1  0.83353546  0.74834845  0.33315427  1
  Mn  Mn125  1  0.83201046  0.75062084  0.66795652  1
  Mn  Mn126  1  0.16854944  -0.00288553  -0.00028407  1
  Mn  Mn127  1  0.16829265  0.00004458  0.33293106  1
  Mn  Mn128  1  0.16811890  0.00158153  0.66880261  1
  Mn  Mn129  1  0.16923068  0.50195630  0.00111003  1
  Mn  Mn130  1  0.16508628  0.50099331  0.33370274  1
  Mn  Mn131  1  0.16760678  0.50151676  0.66848077  1
  Mn  Mn132  1  0.50068027  -0.00213060  -0.00205766  1
  Mn  Mn133  1  0.50078234  0.00007632  0.33050860  1
  Mn  Mn134  1  0.49963925  0.00042716  0.66440534  1
  Mn  Mn135  1  0.50039824  0.50027634  -0.00330563  1
  Mn  Mn136  1  0.49854592  0.50008207  0.32932816  1
  Mn  Mn137  1  0.49869366  0.50162263  0.66581942  1
  Mn  Mn138  1  0.83385242  -0.00284240  0.00317374  1
  Mn  Mn139  1  0.83320204  0.00041438  0.33450550  1
  Mn  Mn140  1  0.83104234  -0.00130621  0.66783268  1
  Mn  Mn141  1  0.83174322  0.50108545  0.00223451  1
  Mn  Mn142  1  0.83338601  0.50100388  0.33353328  1
  Mn  Mn143  1  0.83223432  0.50110858  0.66756515  1
  O  O144  1  0.17284216  0.12375533  0.01037658  1
  O  O145  1  0.16637555  0.12834848  0.35735160  1
  O  O146  1  0.17715618  0.12634610  0.68910343  1
  O  O147  1  0.17575889  0.63003371  0.02617221  1
  O  O148  1  0.16733647  0.62353010  0.36190076  1
  O  O149  1  0.17902160  0.62448216  0.68404914  1
  O  O150  1  0.49696192  0.12072267  0.02575073  1
  O  O151  1  0.50344231  0.12013040  0.35745073  1
  O  O152  1  0.50465573  0.12274050  0.68418846  1
  O  O153  1  0.49833548  0.62807987  0.02608379  1
  O  O154  1  0.49759094  0.62415289  0.35466393  1
  O  O155  1  0.50452254  0.62688433  0.68384600  1
  O  O156  1  0.83410073  0.11850413  0.01118353  1
  O  O157  1  0.83275629  0.12443649  0.34420823  1
  O  O158  1  0.82501942  0.12108203  0.67694735  1
  O  O159  1  0.83080431  0.63164736  0.01922464  1
  O  O160  1  0.83973118  0.62478181  0.34301178  1
  O  O161  1  0.83421382  0.62756980  0.67749595  1
  O  O162  1  0.16886293  0.37769480  0.30518643  1
  O  O163  1  0.16600316  0.37623225  0.64531815  1
  O  O164  1  0.17403789  0.37365977  0.97642115  1
  O  O165  1  0.16940645  0.87095947  0.31089157  1
  O  O166  1  0.16604393  0.87408671  0.65964527  1
  O  O167  1  0.16672366  0.87262905  0.97058686  1
  O  O168  1  0.49150199  0.37717017  0.30465401  1
  O  O169  1  0.49742002  0.37558741  0.65925953  1
  O  O170  1  0.49732412  0.37663331  0.96949966  1
  O  O171  1  0.48978443  0.87962154  0.30541370  1
  O  O172  1  0.49725527  0.87599803  0.63997160  1
  O  O173  1  0.49577346  0.87476053  0.96801438  1
  O  O174  1  0.83250802  0.37507238  0.32093469  1
  O  O175  1  0.83097117  0.37882655  0.64526773  1
  O  O176  1  0.82950285  0.37584910  0.98860462  1
  O  O177  1  0.83470537  0.87459188  0.31332437  1
  O  O178  1  0.83181410  0.87384132  0.64511327  1
  O  O179  1  0.83000378  0.87424143  0.97647078  1
  O  O180  1  0.01080697  0.37941963  0.18835570  1
  O  O181  1  0.00662598  0.37742395  0.51304940  1
  O  O182  1  0.00898153  0.37729937  0.84360936  1
  O  O183  1  0.00684636  0.87220775  0.19475399  1
  O  O184  1  -0.00163281  0.87236147  0.50649718  1
  O  O185  1  0.00922713  0.87293753  0.85462985  1
  O  O186  1  0.34136051  0.37992958  0.19417423  1
  O  O187  1  0.32924260  0.37293788  0.51015119  1
  O  O188  1  0.34716830  0.37449413  0.85540358  1
  O  O189  1  0.33781327  0.87447276  0.19524128  1
  O  O190  1  0.34310791  0.87644709  0.50920311  1
  O  O191  1  0.34414484  0.87441708  0.85597978  1
  O  O192  1  0.65393600  0.37365123  0.18969725  1
  O  O193  1  0.67095765  0.37517598  0.50763005  1
  O  O194  1  0.65510125  0.37585787  0.84906234  1
  O  O195  1  0.65335671  0.87539470  0.19627881  1
  O  O196  1  0.65519419  0.87520174  0.51173540  1
  O  O197  1  0.65009005  0.87458646  0.86133915  1
  O  O198  1  0.00130377  0.11547114  0.14120407  1
  O  O199  1  0.00691276  0.12801583  0.47317477  1
  O  O200  1  0.00507200  0.12462648  0.82959782  1
  O  O201  1  0.00837184  0.63042352  0.14176975  1
  O  O202  1  0.00654031  0.62287619  0.47166245  1
  O  O203  1  0.00048411  0.62615083  0.81349366  1
  O  O204  1  0.33984088  0.11952579  0.13814495  1
  O  O205  1  0.33041613  0.12627900  0.47372222  1
  O  O206  1  0.32247327  0.12476327  0.81354784  1
  O  O207  1  0.33089242  0.62511198  0.13835186  1
  O  O208  1  0.32844075  0.62464029  0.47561542  1
  O  O209  1  0.33112296  0.62657648  0.81084167  1
  O  O210  1  0.65841847  0.11944968  0.14205934  1
  O  O211  1  0.65932273  0.12262276  0.47151592  1
  O  O212  1  0.66099436  0.12052661  0.81082803  1
  O  O213  1  0.65946002  0.63047323  0.14466196  1
  O  O214  1  0.65874106  0.62662709  0.47887251  1
  O  O215  1  0.66041865  0.62946742  0.80854831  1
  O  O216  1  0.08286682  0.01334415  0.25132974  1
  O  O217  1  0.08909579  0.01770852  0.57552410  1
  O  O218  1  0.08955363  0.01751880  0.91796325  1
  O  O219  1  0.08506815  0.52801683  0.25156633  1
  O  O220  1  0.08650837  0.52308889  0.57968554  1
  O  O221  1  0.08622779  0.51852440  0.92043276  1
  O  O222  1  0.41822298  0.02493458  0.25289949  1
  O  O223  1  0.41562538  0.02695017  0.58115699  1
  O  O224  1  0.41912446  0.02407238  0.91450717  1
  O  O225  1  0.41638017  0.52757159  0.24447109  1
  O  O226  1  0.41803422  0.52261981  0.58077890  1
  O  O227  1  0.42098609  0.52517654  0.91244344  1
  O  O228  1  0.73820916  0.00951957  0.26296643  1
  O  O229  1  0.73758472  0.01499532  0.59007777  1
  O  O230  1  0.73774764  0.00897068  0.93027593  1
  O  O231  1  0.74483927  0.50910622  0.25341850  1
  O  O232  1  0.74491238  0.51579342  0.58735538  1
  O  O233  1  0.74274262  0.51382445  0.92171823  1
  O  O234  1  0.25787827  0.23685782  0.26211697  1
  O  O235  1  0.25558215  0.22744037  0.58649034  1
  O  O236  1  0.26069317  0.23536223  0.92667190  1
  O  O237  1  0.24641622  0.72591793  0.24820480  1
  O  O238  1  0.25158430  0.73132859  0.58221156  1
  O  O239  1  0.25935170  0.73711453  0.92609227  1
  O  O240  1  0.57876861  0.22510921  0.24450983  1
  O  O241  1  0.58260843  0.22921977  0.57811147  1
  O  O242  1  0.58306352  0.22466872  0.91910881  1
  O  O243  1  0.57331440  0.73365841  0.24046578  1
  O  O244  1  0.57849438  0.73133768  0.57669953  1
  O  O245  1  0.58084627  0.72268735  0.91721200  1
  O  O246  1  0.92256648  0.23788955  0.25842610  1
  O  O247  1  0.91615528  0.24680650  0.57925778  1
  O  O248  1  0.92232849  0.23923751  0.92288852  1
  O  O249  1  0.92011516  0.73590882  0.24807720  1
  O  O250  1  0.92381421  0.73566432  0.58410977  1
  O  O251  1  0.92375141  0.74171928  0.92408650  1
  O  O252  1  0.09121442  0.49033113  0.09134426  1
  O  O253  1  0.08116229  0.47704092  0.41122693  1
  O  O254  1  0.08549379  0.49384836  0.75199748  1
  O  O255  1  0.08402329  0.97303445  0.08134688  1
  O  O256  1  0.07967788  0.98764993  0.40900405  1
  O  O257  1  0.08691918  0.99244413  0.75702872  1
  O  O258  1  0.41580268  0.48002685  0.07756947  1
  O  O259  1  0.40883859  0.48869827  0.40573986  1
  O  O260  1  0.41421104  0.49709567  0.74879260  1
  O  O261  1  0.41803710  0.97294203  0.08039990  1
  O  O262  1  0.42386270  0.98299140  0.41504525  1
  O  O263  1  0.41706659  0.99311785  0.75270356  1
  O  O264  1  0.74291919  0.49592124  0.08383087  1
  O  O265  1  0.75215226  0.48268456  0.41721108  1
  O  O266  1  0.74542106  0.49439247  0.75199267  1
  O  O267  1  0.75104688  0.97234180  0.09518238  1
  O  O268  1  0.75475834  0.97536331  0.42538049  1
  O  O269  1  0.75226474  0.97837298  0.76585347  1
  O  O270  1  0.25091939  0.27416215  0.08959347  1
  O  O271  1  0.23987917  0.26935539  0.42359331  1
  O  O272  1  0.24356621  0.26864525  0.76575347  1
  O  O273  1  0.24980132  0.77845547  0.08579991  1
  O  O274  1  0.25887544  0.76398468  0.40683393  1
  O  O275  1  0.24685204  0.76617576  0.76104204  1
  O  O276  1  0.57667807  0.26756193  0.08391984  1
  O  O277  1  0.58893049  0.26459775  0.40418666  1
  O  O278  1  0.57582820  0.25699569  0.75736131  1
  O  O279  1  0.58482464  0.77466064  0.07760240  1
  O  O280  1  0.58496912  0.77137724  0.40822857  1
  O  O281  1  0.57628409  0.76464995  0.75499597  1
  O  O282  1  0.91968661  0.25261154  0.08488650  1
  O  O283  1  0.91652589  0.27142182  0.41803202  1
  O  O284  1  0.91247155  0.25928828  0.75538128  1
  O  O285  1  0.91978732  0.77460717  0.08521208  1
  O  O286  1  0.91777519  0.76780624  0.41440359  1
  O  O287  1  0.91559393  0.76551264  0.75724484  1
  O  O288  1  0.25005142  0.47615940  0.08942975  1
  O  O289  1  0.24199898  0.47881043  0.41780883  1
  O  O290  1  0.24489630  0.48174843  0.76278694  1
  O  O291  1  0.24797973  0.97202635  0.08466273  1
  O  O292  1  0.25647601  0.98786479  0.41319080  1
  O  O293  1  0.24606926  0.98419175  0.76343478  1
  O  O294  1  0.57734755  0.48381214  0.08265382  1
  O  O295  1  0.58550007  0.48442254  0.40522254  1
  O  O296  1  0.57492222  0.49303421  0.75654657  1
  O  O297  1  0.58296510  0.97290612  0.07985752  1
  O  O298  1  0.58556497  0.97686125  0.40542496  1
  O  O299  1  0.57683974  0.98579485  0.75548849  1
  O  O300  1  0.91909340  0.49983136  0.08748284  1
  O  O301  1  0.91526580  0.47799425  0.42008132  1
  O  O302  1  0.91355082  0.49365055  0.75219962  1
  O  O303  1  0.91744334  0.96882451  0.08890171  1
  O  O304  1  0.91814221  0.98222750  0.41498234  1
  O  O305  1  0.91486941  0.98396217  0.76030506  1
  O  O306  1  0.08974277  0.26265031  0.08532896  1
  O  O307  1  0.08022942  0.27460982  0.40990526  1
  O  O308  1  0.08665938  0.25837663  0.75499530  1
  O  O309  1  0.08596077  0.77497156  0.08363359  1
  O  O310  1  0.07965320  0.76288407  0.40713061  1
  O  O311  1  0.08563865  0.75726746  0.75437359  1
  O  O312  1  0.41595112  0.27265224  0.07709290  1
  O  O313  1  0.40744747  0.25932384  0.40608973  1
  O  O314  1  0.41229772  0.25100217  0.75040073  1
  O  O315  1  0.41826116  0.77252804  0.07886785  1
  O  O316  1  0.42257643  0.76789571  0.41573514  1
  O  O317  1  0.41785056  0.76037337  0.75174189  1
  O  O318  1  0.74251597  0.25490466  0.08255151  1
  O  O319  1  0.75279559  0.26789158  0.41853329  1
  O  O320  1  0.74480891  0.25691069  0.75186717  1
  O  O321  1  0.75164416  0.77588860  0.09269943  1
  O  O322  1  0.75357104  0.77209355  0.42371566  1
  O  O323  1  0.75226779  0.77049245  0.76536803  1
  O  O324  1  0.25652043  0.01271646  0.25608948  1
  O  O325  1  0.25328392  0.02122792  0.58493975  1
  O  O326  1  0.26033174  0.01167896  0.92625285  1
  O  O327  1  0.24987363  0.52297826  0.25341503  1
  O  O328  1  0.25284118  0.51996486  0.58531440  1
  O  O329  1  0.26070067  0.51399663  0.92590142  1
  O  O330  1  0.57685687  0.02376056  0.24598537  1
  O  O331  1  0.57807538  0.02014587  0.57410364  1
  O  O332  1  0.58089687  0.02638691  0.91830587  1
  O  O333  1  0.57590999  0.51875672  0.24240949  1
  O  O334  1  0.58210151  0.51903802  0.58173755  1
  O  O335  1  0.58288821  0.52683970  0.91830665  1
  O  O336  1  0.92260159  0.00924849  0.25455151  1
  O  O337  1  0.91734537  0.00376714  0.57788969  1
  O  O338  1  0.92907786  0.00557097  0.92801337  1
  O  O339  1  0.92441805  0.51390979  0.25637279  1
  O  O340  1  0.92408462  0.51669416  0.58688532  1
  O  O341  1  0.92139277  0.51479789  0.92205558  1
  O  O342  1  0.08158186  0.23185034  0.25355413  1
  O  O343  1  0.09287422  0.23639747  0.57094778  1
  O  O344  1  0.08870313  0.23465656  0.91736050  1
  O  O345  1  0.08676118  0.72634166  0.24765563  1
  O  O346  1  0.08523090  0.72478331  0.58190885  1
  O  O347  1  0.08487609  0.72880970  0.92210029  1
  O  O348  1  0.41811498  0.22374283  0.24463535  1
  O  O349  1  0.41717700  0.22719409  0.57848127  1
  O  O350  1  0.42059233  0.22313807  0.91294552  1
  O  O351  1  0.41422920  0.72689054  0.24819928  1
  O  O352  1  0.41520038  0.72493935  0.58158829  1
  O  O353  1  0.41970286  0.72684095  0.91388319  1
  O  O354  1  0.73924868  0.23929664  0.25773845  1
  O  O355  1  0.74272844  0.23641166  0.58530201  1
  O  O356  1  0.74358208  0.23797714  0.92101619  1
  O  O357  1  0.74464966  0.74225668  0.25571427  1
  O  O358  1  0.74004972  0.73449389  0.59072969  1
  O  O359  1  0.73826367  0.73972074  0.93056790  1
