# generated using pymatgen
data_Ba17Sr5La8Pr42Mn72O216
_symmetry_space_group_name_H-M   'P 1'
_cell_length_a   16.67106043
_cell_length_b   15.70571427
_cell_length_c   16.82068994
_cell_angle_alpha   90.01563918
_cell_angle_beta   89.99398506
_cell_angle_gamma   89.99232504
_symmetry_Int_Tables_number   1
_chemical_formula_structural   Ba17Sr5La8Pr42Mn72O216
_chemical_formula_sum   'Ba17 Sr5 La8 Pr42 Mn72 O216'
_cell_volume   4404.17635269
_cell_formula_units_Z   1
loop_
 _symmetry_equiv_pos_site_id
 _symmetry_equiv_pos_as_xyz
  1  'x, y, z'
loop_
 _atom_site_type_symbol
 _atom_site_label
 _atom_site_symmetry_multiplicity
 _atom_site_fract_x
 _atom_site_fract_y
 _atom_site_fract_z
 _atom_site_occupancy
  Ba  Ba0  1  0.49904107  0.87582736  0.16716539  1
  Ba  Ba1  1  0.83395982  0.87251155  0.83125493  1
  Ba  Ba2  1  0.00387319  0.12538693  0.66649954  1
  Ba  Ba3  1  0.66614008  0.87428434  0.66833062  1
  Ba  Ba4  1  0.66459923  0.62403333  0.33432302  1
  Ba  Ba5  1  0.33191769  0.37667451  0.00240502  1
  Ba  Ba6  1  0.83078543  0.87396235  0.16772457  1
  Ba  Ba7  1  0.66595257  0.12724555  0.66733794  1
  Ba  Ba8  1  0.33146379  0.37365572  0.33603672  1
  Ba  Ba9  1  0.49883322  0.62456894  0.50280051  1
  Ba  Ba10  1  -0.00052933  0.62587308  0.33216555  1
  Ba  Ba11  1  0.50054676  0.87386847  0.83433416  1
  Ba  Ba12  1  0.49915391  0.12385151  0.16599066  1
  Ba  Ba13  1  0.16611785  0.37476404  0.16386649  1
  Ba  Ba14  1  -0.00036827  0.87568319  0.66527408  1
  Ba  Ba15  1  0.83208883  0.62502064  0.17061422  1
  Ba  Ba16  1  0.83577772  0.12569791  0.16616435  1
  Sr  Sr17  1  0.16818146  0.37546833  0.83056111  1
  Sr  Sr18  1  0.83189290  0.62443179  0.50126054  1
  Sr  Sr19  1  0.66674191  0.62864133  0.66054124  1
  Sr  Sr20  1  0.66821687  0.87545612  0.33248207  1
  Sr  Sr21  1  0.16426251  0.37258034  0.49519814  1
  La  La22  1  0.66669992  0.12283246  0.33107842  1
  La  La23  1  0.16688254  0.62250052  0.16857665  1
  La  La24  1  0.50564596  0.12415217  0.83795801  1
  La  La25  1  0.83297032  0.62697269  0.83122390  1
  La  La26  1  0.33609096  0.87814173  0.33731735  1
  La  La27  1  0.83782286  0.12026851  0.83525587  1
  La  La28  1  0.66922681  0.38051758  0.66827668  1
  La  La29  1  0.17115728  0.12748400  0.50014982  1
  Pr  Pr30  1  -0.00070092  0.62534806  0.99912230  1
  Pr  Pr31  1  0.66844920  0.37379863  0.00375265  1
  Pr  Pr32  1  0.49523154  0.62386374  0.17518617  1
  Pr  Pr33  1  0.50415241  0.37496482  0.49952692  1
  Pr  Pr34  1  0.66662887  0.12021311  0.99584932  1
  Pr  Pr35  1  0.33105643  0.62315283  0.33339662  1
  Pr  Pr36  1  0.16716843  0.62156907  0.50075027  1
  Pr  Pr37  1  0.83350414  0.37982100  0.16686969  1
  Pr  Pr38  1  0.66237678  0.62866565  1.00087212  1
  Pr  Pr39  1  0.33469230  0.12791548  0.33236818  1
  Pr  Pr40  1  0.49699126  0.12618334  0.50297220  1
  Pr  Pr41  1  0.00583163  0.12457463  0.32889713  1
  Pr  Pr42  1  0.33191591  0.62544522  0.66552884  1
  Pr  Pr43  1  0.33456492  0.12540433  0.66954301  1
  Pr  Pr44  1  0.83657184  0.12283192  0.50344538  1
  Pr  Pr45  1  0.66903227  0.37315489  0.33298998  1
  Pr  Pr46  1  0.33476868  0.87231715  0.67112651  1
  Pr  Pr47  1  0.16219696  0.87812899  0.49548107  1
  Pr  Pr48  1  0.00343372  0.12592414  0.99276763  1
  Pr  Pr49  1  -0.00342114  0.37554410  0.33340921  1
  Pr  Pr50  1  0.83645248  0.37430612  0.83062246  1
  Pr  Pr51  1  0.33489092  0.37803660  0.67093383  1
  Pr  Pr52  1  -0.01118842  0.87387194  0.33547615  1
  Pr  Pr53  1  0.17148846  0.12745256  0.16520789  1
  Pr  Pr54  1  0.00083110  0.37586821  0.66700742  1
  Pr  Pr55  1  0.33772471  0.12754760  0.99857218  1
  Pr  Pr56  1  0.83175182  0.37292571  0.50014267  1
  Pr  Pr57  1  0.33035585  0.87548621  0.00686444  1
  Pr  Pr58  1  0.50935795  0.87472851  0.49819609  1
  Pr  Pr59  1  0.16615639  0.62623771  0.83296583  1
  Pr  Pr60  1  0.82576643  0.87510343  0.49896695  1
  Pr  Pr61  1  0.50119890  0.37673145  0.16461972  1
  Pr  Pr62  1  -0.00053082  0.62663019  0.65892595  1
  Pr  Pr63  1  0.16611079  0.87435907  0.82755355  1
  Pr  Pr64  1  0.50144830  0.62605755  0.83185662  1
  Pr  Pr65  1  0.17239581  0.12304654  0.83538808  1
  Pr  Pr66  1  0.66916267  0.87599488  0.00437111  1
  Pr  Pr67  1  0.16041071  0.87427847  0.16387211  1
  Pr  Pr68  1  0.50064474  0.37439566  0.83207833  1
  Pr  Pr69  1  -0.00160959  0.37512967  0.00228170  1
  Pr  Pr70  1  -0.00825791  0.87495160  -0.00098871  1
  Pr  Pr71  1  0.33130747  0.62526070  1.00228336  1
  Mn  Mn72  1  0.00185296  0.00025557  0.16394576  1
  Mn  Mn73  1  0.00013095  -0.00031543  0.49637891  1
  Mn  Mn74  1  0.00270817  0.00032446  0.83259345  1
  Mn  Mn75  1  0.00007035  0.49900975  0.16544919  1
  Mn  Mn76  1  0.00039288  0.49844961  0.49998752  1
  Mn  Mn77  1  0.00266672  0.49965682  0.83113784  1
  Mn  Mn78  1  0.33007448  0.00040217  0.16831998  1
  Mn  Mn79  1  0.33333362  -0.00038182  0.50348708  1
  Mn  Mn80  1  0.33381825  -0.00107242  0.83542718  1
  Mn  Mn81  1  0.33321744  0.50077800  0.16782410  1
  Mn  Mn82  1  0.33176986  0.49922322  0.50266620  1
  Mn  Mn83  1  0.33370469  0.50168169  0.83481736  1
  Mn  Mn84  1  0.66641471  0.00148944  0.16661410  1
  Mn  Mn85  1  0.66626969  0.00273912  0.49899976  1
  Mn  Mn86  1  0.66794787  -0.00010399  0.83276384  1
  Mn  Mn87  1  0.66431297  0.49799345  0.16609399  1
  Mn  Mn88  1  0.66774222  0.49798393  0.50178897  1
  Mn  Mn89  1  0.66697540  0.50038050  0.83476179  1
  Mn  Mn90  1  0.00060006  0.24839492  0.16455762  1
  Mn  Mn91  1  0.00011144  0.25000747  0.49753178  1
  Mn  Mn92  1  0.00332761  0.25275464  0.83297924  1
  Mn  Mn93  1  0.00115445  0.75220571  0.16518602  1
  Mn  Mn94  1  -0.00044345  0.74979250  0.49873532  1
  Mn  Mn95  1  0.00183279  0.74658120  0.83062989  1
  Mn  Mn96  1  0.33418737  0.24936318  0.16693921  1
  Mn  Mn97  1  0.33358793  0.24931855  0.50315435  1
  Mn  Mn98  1  0.33381057  0.25196580  0.83309013  1
  Mn  Mn99  1  0.33040012  0.75093675  0.16895351  1
  Mn  Mn100  1  0.33094717  0.75269091  0.50188598  1
  Mn  Mn101  1  0.33302596  0.74796047  0.83592012  1
  Mn  Mn102  1  0.66656995  0.24972642  0.16722201  1
  Mn  Mn103  1  0.66668787  0.25016074  0.49893342  1
  Mn  Mn104  1  0.66849107  0.25362501  0.83491533  1
  Mn  Mn105  1  0.66356124  0.75033334  0.16633657  1
  Mn  Mn106  1  0.66738979  0.74933975  0.50014930  1
  Mn  Mn107  1  0.66630879  0.74453873  0.83235984  1
  Mn  Mn108  1  0.16586398  0.24928191  -0.00261355  1
  Mn  Mn109  1  0.16509990  0.24898688  0.33298338  1
  Mn  Mn110  1  0.16937500  0.25177029  0.66538891  1
  Mn  Mn111  1  0.16490072  0.75098721  -0.00161068  1
  Mn  Mn112  1  0.16797644  0.75257644  0.33197939  1
  Mn  Mn113  1  0.16774064  0.74950456  0.66514705  1
  Mn  Mn114  1  0.50120013  0.25226280  -0.00043138  1
  Mn  Mn115  1  0.50089070  0.25022297  0.33534367  1
  Mn  Mn116  1  0.49866327  0.25113824  0.66744351  1
  Mn  Mn117  1  0.49818888  0.74813262  0.00120588  1
  Mn  Mn118  1  0.49862179  0.75124819  0.33516013  1
  Mn  Mn119  1  0.49827727  0.75014920  0.66707726  1
  Mn  Mn120  1  0.83451191  0.25195900  0.00023630  1
  Mn  Mn121  1  0.83496012  0.24944668  0.33476535  1
  Mn  Mn122  1  0.83526077  0.25059615  0.66651582  1
  Mn  Mn123  1  0.83250140  0.74579276  -0.00101051  1
  Mn  Mn124  1  0.83081377  0.75000238  0.33473157  1
  Mn  Mn125  1  0.83391023  0.74773282  0.66497067  1
  Mn  Mn126  1  0.16613972  -0.00211051  -0.00136233  1
  Mn  Mn127  1  0.16665462  -0.00035061  0.33028155  1
  Mn  Mn128  1  0.16969724  0.00104262  0.66561978  1
  Mn  Mn129  1  0.16449661  0.50259938  -0.00234121  1
  Mn  Mn130  1  0.16514523  0.49966876  0.33435262  1
  Mn  Mn131  1  0.16765912  0.49841500  0.66548305  1
  Mn  Mn132  1  0.49923588  -0.00106967  -0.00073934  1
  Mn  Mn133  1  0.50020134  -0.00030360  0.33685003  1
  Mn  Mn134  1  0.49757477  0.00211576  0.66745487  1
  Mn  Mn135  1  0.50050762  0.50273189  0.00113358  1
  Mn  Mn136  1  0.49828280  0.49754887  0.33448353  1
  Mn  Mn137  1  0.49943066  0.49826626  0.66831567  1
  Mn  Mn138  1  0.83436632  0.00112265  0.00007766  1
  Mn  Mn139  1  0.83365605  0.00191229  0.33569276  1
  Mn  Mn140  1  0.83395384  0.00209640  0.66659457  1
  Mn  Mn141  1  0.83325652  0.50111563  -0.00186566  1
  Mn  Mn142  1  0.83251936  0.49752514  0.33479615  1
  Mn  Mn143  1  0.83564081  0.49788796  0.66659981  1
  O  O144  1  0.15785390  0.11862087  0.02204906  1
  O  O145  1  0.15875228  0.12236469  0.35620157  1
  O  O146  1  0.17419062  0.12721453  0.69236344  1
  O  O147  1  0.16106901  0.63097452  0.02489923  1
  O  O148  1  0.17060282  0.62981509  0.35675046  1
  O  O149  1  0.16520918  0.62355479  0.68978882  1
  O  O150  1  0.50542457  0.12607939  0.00755533  1
  O  O151  1  0.49837186  0.12535477  0.35970582  1
  O  O152  1  0.49320323  0.12955100  0.69377095  1
  O  O153  1  0.50573609  0.62483474  0.03040810  1
  O  O154  1  0.49184582  0.62537616  0.34516129  1
  O  O155  1  0.49542295  0.62011407  0.68641754  1
  O  O156  1  0.84179860  0.12821048  0.00927075  1
  O  O157  1  0.83957186  0.12841617  0.35988664  1
  O  O158  1  0.83462255  0.13125120  0.68957749  1
  O  O159  1  0.84235191  0.62229381  0.01508715  1
  O  O160  1  0.83228311  0.61967006  0.34852681  1
  O  O161  1  0.84035502  0.61736698  0.68583346  1
  O  O162  1  0.16007692  0.37113602  0.32123421  1
  O  O163  1  0.17275745  0.37549574  0.64350028  1
  O  O164  1  0.15942358  0.37676828  0.98134046  1
  O  O165  1  0.17757664  0.87764158  0.30606363  1
  O  O166  1  0.17618740  0.87397896  0.64167211  1
  O  O167  1  0.17560781  0.87360968  0.96903806  1
  O  O168  1  0.50357380  0.37244450  0.30932746  1
  O  O169  1  0.48992741  0.37271253  0.64378194  1
  O  O170  1  0.50239831  0.37884310  0.97486188  1
  O  O171  1  0.49523084  0.87544876  0.32432422  1
  O  O172  1  0.48905575  0.88031034  0.64502194  1
  O  O173  1  0.48941800  0.87350420  0.98897128  1
  O  O174  1  0.83430962  0.37062307  0.31029213  1
  O  O175  1  0.83908794  0.37317310  0.64454184  1
  O  O176  1  0.83163188  0.37786299  0.97329581  1
  O  O177  1  0.83443847  0.87860360  0.32635817  1
  O  O178  1  0.83335990  0.87599329  0.64715720  1
  O  O179  1  0.82893084  0.87192623  0.98841614  1
  O  O180  1  -0.00084831  0.37039069  0.18712147  1
  O  O181  1  0.00039304  0.37389971  0.52371898  1
  O  O182  1  0.00202355  0.37794873  0.85997085  1
  O  O183  1  0.00847234  0.87719964  0.18915972  1
  O  O184  1  0.00758550  0.87500770  0.51015274  1
  O  O185  1  0.01083719  0.87425372  0.85461919  1
  O  O186  1  0.33910703  0.37638248  0.17709416  1
  O  O187  1  0.33273253  0.37005570  0.52651427  1
  O  O188  1  0.33789289  0.37682294  0.84857653  1
  O  O189  1  0.32405209  0.87600304  0.19004460  1
  O  O190  1  0.32208487  0.87758611  0.52966744  1
  O  O191  1  0.32741563  0.86918073  0.86384395  1
  O  O192  1  0.66139390  0.37143617  0.18874203  1
  O  O193  1  0.66655298  0.37180209  0.52378761  1
  O  O194  1  0.66873566  0.37808365  0.86121306  1
  O  O195  1  0.66611968  0.87712190  0.17573380  1
  O  O196  1  0.66893981  0.87856108  0.50971885  1
  O  O197  1  0.66836921  0.86771277  0.85791520  1
  O  O198  1  0.00531994  0.12347666  0.13884285  1
  O  O199  1  -0.00598287  0.12405543  0.47219292  1
  O  O200  1  -0.00484608  0.12795050  0.82523717  1
  O  O201  1  0.00557453  0.62874114  0.14497494  1
  O  O202  1  0.00563286  0.62464172  0.48800631  1
  O  O203  1  0.00548664  0.61911907  0.80325178  1
  O  O204  1  0.32718213  0.12221459  0.14428917  1
  O  O205  1  0.33823479  0.12221526  0.47506865  1
  O  O206  1  0.32882758  0.12859657  0.81183639  1
  O  O207  1  0.33647973  0.62669862  0.14786687  1
  O  O208  1  0.32860637  0.63165401  0.47614830  1
  O  O209  1  0.33082390  0.62536113  0.80831147  1
  O  O210  1  0.66688952  0.13013491  0.14128108  1
  O  O211  1  0.66040097  0.12901483  0.47597201  1
  O  O212  1  0.66267543  0.13302965  0.82540704  1
  O  O213  1  0.65682120  0.62146689  0.14591641  1
  O  O214  1  0.66899289  0.62022242  0.49342425  1
  O  O215  1  0.66260282  0.61831220  0.81007149  1
  O  O216  1  0.09153233  0.01985129  0.23863576  1
  O  O217  1  0.09202014  0.01332242  0.56744614  1
  O  O218  1  0.08928863  0.02028454  0.91239318  1
  O  O219  1  0.08830414  0.51436847  0.24194020  1
  O  O220  1  0.08599181  0.51831878  0.58243131  1
  O  O221  1  0.08453628  0.52670576  0.91154170  1
  O  O222  1  0.41073701  0.01286064  0.26260037  1
  O  O223  1  0.41582505  0.02632715  0.58511458  1
  O  O224  1  0.41915758  0.02240112  0.91237593  1
  O  O225  1  0.41046616  0.51863234  0.25496820  1
  O  O226  1  0.40604318  0.51244877  0.59664536  1
  O  O227  1  0.41529634  0.52787049  0.92372855  1
  O  O228  1  0.75037975  0.01746576  0.25628888  1
  O  O229  1  0.75371093  0.01665265  0.57662326  1
  O  O230  1  0.75372703  0.02101270  0.91596539  1
  O  O231  1  0.74522993  0.49935313  0.25093838  1
  O  O232  1  0.75238405  0.50409429  0.58619934  1
  O  O233  1  0.74706764  0.52401993  0.91883260  1
  O  O234  1  0.24983811  0.22840133  0.25333038  1
  O  O235  1  0.25317684  0.22457716  0.58509763  1
  O  O236  1  0.25123431  0.22741617  0.91745026  1
  O  O237  1  0.25194860  0.72544307  0.25290358  1
  O  O238  1  0.24699880  0.72377464  0.58276157  1
  O  O239  1  0.24967157  0.72237884  0.91888566  1
  O  O240  1  0.58721875  0.23280403  0.25610667  1
  O  O241  1  0.57363311  0.23812741  0.57653028  1
  O  O242  1  0.58448818  0.23895693  0.91753824  1
  O  O243  1  0.57495860  0.73652971  0.24095421  1
  O  O244  1  0.58048345  0.74782148  0.58162041  1
  O  O245  1  0.58273669  0.72464920  0.91526848  1
  O  O246  1  0.92736704  0.23444250  0.25873570  1
  O  O247  1  0.91674875  0.23473559  0.57693239  1
  O  O248  1  0.92288192  0.24052704  0.92190824  1
  O  O249  1  0.92065747  0.74865430  0.25263148  1
  O  O250  1  0.91954845  0.73292106  0.58445051  1
  O  O251  1  0.91809270  0.73017885  0.91439349  1
  O  O252  1  0.07412932  0.48968211  0.07175350  1
  O  O253  1  0.07691702  0.48244480  0.41302373  1
  O  O254  1  0.08246333  0.47724805  0.74471401  1
  O  O255  1  0.08032626  0.97143428  0.07167187  1
  O  O256  1  0.07852829  0.97888019  0.40293794  1
  O  O257  1  0.09055854  0.98811343  0.75198962  1
  O  O258  1  0.42714561  0.48989150  0.09316372  1
  O  O259  1  0.42069893  0.48207932  0.42786568  1
  O  O260  1  0.42333715  0.48190346  0.75824593  1
  O  O261  1  0.40518369  0.99141811  0.07508159  1
  O  O262  1  0.41628140  0.97725920  0.42654740  1
  O  O263  1  0.40745510  0.98699372  0.74311209  1
  O  O264  1  0.74841236  0.47773568  0.08544272  1
  O  O265  1  0.75056269  0.47362859  0.41810071  1
  O  O266  1  0.75511336  0.47715796  0.75327728  1
  O  O267  1  0.74387232  0.99377408  0.07334718  1
  O  O268  1  0.75201930  0.99380829  0.41947402  1
  O  O269  1  0.75084357  0.99747913  0.75321759  1
  O  O270  1  0.24524798  0.25005285  0.08062394  1
  O  O271  1  0.24671954  0.25210252  0.42149179  1
  O  O272  1  0.25569426  0.26974511  0.74811597  1
  O  O273  1  0.24419668  0.76956456  0.08547747  1
  O  O274  1  0.24944283  0.77626618  0.41844926  1
  O  O275  1  0.25095634  0.76874039  0.75076646  1
  O  O276  1  0.58311507  0.27428965  0.08147544  1
  O  O277  1  0.58585700  0.27435196  0.41535301  1
  O  O278  1  0.58336657  0.27561324  0.74876158  1
  O  O279  1  0.58749146  0.76630465  0.07299924  1
  O  O280  1  0.58217073  0.76490155  0.41750764  1
  O  O281  1  0.58032736  0.75253036  0.75250094  1
  O  O282  1  0.91238333  0.27496654  0.08680531  1
  O  O283  1  0.91381253  0.27639689  0.41921179  1
  O  O284  1  0.91998358  0.27428372  0.75405956  1
  O  O285  1  0.92251558  0.76284656  0.07611587  1
  O  O286  1  0.91525453  0.76824573  0.42058797  1
  O  O287  1  0.92037570  0.75101070  0.74850033  1
  O  O288  1  0.25004424  0.50195121  0.08232011  1
  O  O289  1  0.24595073  0.49387072  0.42075771  1
  O  O290  1  0.25482979  0.48564470  0.74363641  1
  O  O291  1  0.24090059  0.97772700  0.08526504  1
  O  O292  1  0.24659409  0.98308164  0.42047827  1
  O  O293  1  0.25042844  0.97712371  0.75788893  1
  O  O294  1  0.58741333  0.47537504  0.07702931  1
  O  O295  1  0.58609071  0.47667180  0.41420392  1
  O  O296  1  0.58417749  0.47342557  0.75152918  1
  O  O297  1  0.58385381  0.98842166  0.07543228  1
  O  O298  1  0.58162861  0.98562259  0.41875003  1
  O  O299  1  0.57772806  0.99637437  0.75240492  1
  O  O300  1  0.91527117  0.47688944  0.08266612  1
  O  O301  1  0.91401227  0.47572552  0.42061692  1
  O  O302  1  0.91871856  0.47389844  0.75174047  1
  O  O303  1  0.91934031  0.98461068  0.08075295  1
  O  O304  1  0.91331636  0.97908350  0.42167310  1
  O  O305  1  0.91776005  0.99581594  0.75516696  1
  O  O306  1  0.07237629  0.26194158  0.06947917  1
  O  O307  1  0.07220561  0.26194207  0.40511499  1
  O  O308  1  0.08270174  0.27049565  0.74315323  1
  O  O309  1  0.08110818  0.77752771  0.07488437  1
  O  O310  1  0.08416296  0.77375731  0.40949574  1
  O  O311  1  0.09236517  0.76325393  0.75350774  1
  O  O312  1  0.42199014  0.26083070  0.08473660  1
  O  O313  1  0.42484197  0.26413637  0.42931057  1
  O  O314  1  0.41883329  0.27236672  0.75212792  1
  O  O315  1  0.40445510  0.76142624  0.07946276  1
  O  O316  1  0.41413338  0.77562783  0.42518279  1
  O  O317  1  0.41093194  0.76227948  0.74999565  1
  O  O318  1  0.75062500  0.27459952  0.08318356  1
  O  O319  1  0.74944578  0.27135461  0.41568890  1
  O  O320  1  0.75072099  0.27551670  0.75308908  1
  O  O321  1  0.74324536  0.75513210  0.07506724  1
  O  O322  1  0.75197146  0.76413511  0.42147037  1
  O  O323  1  0.75236673  0.74815694  0.75220100  1
  O  O324  1  0.25092876  0.02799922  0.25467045  1
  O  O325  1  0.25446527  0.02660190  0.58660972  1
  O  O326  1  0.25445494  0.02448829  0.92435555  1
  O  O327  1  0.25015599  0.52017637  0.25161264  1
  O  O328  1  0.24847504  0.52505986  0.58342502  1
  O  O329  1  0.24802992  0.52443658  0.91569740  1
  O  O330  1  0.58724661  0.01511968  0.25596643  1
  O  O331  1  0.57552873  0.01377976  0.57732404  1
  O  O332  1  0.58783158  0.01276206  0.91883140  1
  O  O333  1  0.57151030  0.50907701  0.23788609  1
  O  O334  1  0.58236687  0.50074086  0.58678972  1
  O  O335  1  0.57854699  0.52419535  0.91549758  1
  O  O336  1  0.92690128  0.01260149  0.26114447  1
  O  O337  1  0.91483843  0.01462484  0.57851675  1
  O  O338  1  0.92302148  0.01063240  0.92130366  1
  O  O339  1  0.91732771  0.50055287  0.25035760  1
  O  O340  1  0.92436220  0.51289199  0.58912574  1
  O  O341  1  0.92069003  0.52063891  0.91230049  1
  O  O342  1  0.08768685  0.22547549  0.24145363  1
  O  O343  1  0.09010293  0.23435943  0.57043723  1
  O  O344  1  0.08977857  0.22757243  0.90943239  1
  O  O345  1  0.09382054  0.73973624  0.23836343  1
  O  O346  1  0.08584659  0.73169789  0.58116583  1
  O  O347  1  0.08294619  0.72546605  0.91535365  1
  O  O348  1  0.41356970  0.23321403  0.26012685  1
  O  O349  1  0.41316859  0.22606528  0.58904485  1
  O  O350  1  0.41795537  0.23076578  0.91528242  1
  O  O351  1  0.41080856  0.73470410  0.25471705  1
  O  O352  1  0.40538665  0.73802914  0.59102165  1
  O  O353  1  0.41716888  0.72164170  0.91752617  1
  O  O354  1  0.74859582  0.23556808  0.25659762  1
  O  O355  1  0.75356923  0.23602180  0.57452740  1
  O  O356  1  0.75251585  0.23225333  0.91917026  1
  O  O357  1  0.74484768  0.74400189  0.25060870  1
  O  O358  1  0.75321914  0.74012368  0.58168003  1
  O  O359  1  0.74882132  0.72238791  0.91605993  1
