# generated using pymatgen
data_Ba17Sr5La8Pr42Mn72O216
_symmetry_space_group_name_H-M   'P 1'
_cell_length_a   16.67698311
_cell_length_b   15.70756753
_cell_length_c   16.81884243
_cell_angle_alpha   89.99142622
_cell_angle_beta   90.00853350
_cell_angle_gamma   89.98307387
_symmetry_Int_Tables_number   1
_chemical_formula_structural   Ba17Sr5La8Pr42Mn72O216
_chemical_formula_sum   'Ba17 Sr5 La8 Pr42 Mn72 O216'
_cell_volume   4405.77685923
_cell_formula_units_Z   1
loop_
 _symmetry_equiv_pos_site_id
 _symmetry_equiv_pos_as_xyz
  1  'x, y, z'
loop_
 _atom_site_type_symbol
 _atom_site_label
 _atom_site_symmetry_multiplicity
 _atom_site_fract_x
 _atom_site_fract_y
 _atom_site_fract_z
 _atom_site_occupancy
  Ba  Ba0  1  0.66991656  0.62285607  0.66598071  1
  Ba  Ba1  1  0.33465961  0.12441379  0.99677220  1
  Ba  Ba2  1  0.00047725  0.37448963  0.33638949  1
  Ba  Ba3  1  0.83049836  0.87517945  0.49685111  1
  Ba  Ba4  1  0.83332789  0.87542885  0.16422189  1
  Ba  Ba5  1  0.83248672  0.87587646  0.82921161  1
  Ba  Ba6  1  0.00014958  0.87622581  0.66926893  1
  Ba  Ba7  1  0.16713195  0.62490044  0.16965182  1
  Ba  Ba8  1  0.16633180  0.62342896  0.50414786  1
  Ba  Ba9  1  0.50284336  0.62692977  0.16542505  1
  Ba  Ba10  1  0.50224825  0.12600435  0.83419727  1
  Ba  Ba11  1  0.33389813  0.62525287  0.66345128  1
  Ba  Ba12  1  -0.00011379  0.37329529  0.00437886  1
  Ba  Ba13  1  0.49950013  0.87365942  0.16902859  1
  Ba  Ba14  1  0.66219866  0.37430771  0.33214798  1
  Ba  Ba15  1  0.16648288  0.12691244  0.50258082  1
  Ba  Ba16  1  -0.00066125  0.87535406  0.33528798  1
  Sr  Sr17  1  -0.00296795  0.12669367  1.00181398  1
  Sr  Sr18  1  0.66044199  0.37407766  0.00336431  1
  Sr  Sr19  1  0.50532735  0.12606098  0.50225710  1
  Sr  Sr20  1  0.66326963  0.87414694  0.66558866  1
  Sr  Sr21  1  0.66172056  0.87323405  0.33644874  1
  La  La22  1  0.33166044  0.87261590  0.33235313  1
  La  La23  1  0.16240458  0.12408931  0.83828830  1
  La  La24  1  0.16617316  0.62612077  0.83905768  1
  La  La25  1  0.67097511  0.12226040  0.33304069  1
  La  La26  1  0.83233733  0.37282745  0.83003223  1
  La  La27  1  0.49316233  0.37631438  0.49890394  1
  La  La28  1  0.16554576  0.12832652  0.17272541  1
  La  La29  1  0.82748170  0.37444796  0.15891620  1
  Pr  Pr30  1  0.83845771  0.62498687  0.49803592  1
  Pr  Pr31  1  0.16703233  0.37558518  0.16504661  1
  Pr  Pr32  1  0.33870588  0.12551957  0.66134184  1
  Pr  Pr33  1  0.48914893  0.37414833  0.83266820  1
  Pr  Pr34  1  0.83397552  0.12287987  0.83282732  1
  Pr  Pr35  1  0.32917813  0.37705063  0.33066389  1
  Pr  Pr36  1  0.16806595  0.87564149  0.16596918  1
  Pr  Pr37  1  0.51172159  0.62381250  0.83695851  1
  Pr  Pr38  1  0.00181435  0.87765645  0.00708660  1
  Pr  Pr39  1  0.50786472  0.12452838  0.16848265  1
  Pr  Pr40  1  -0.00732724  0.12243635  0.66753802  1
  Pr  Pr41  1  0.82864704  0.37652274  0.49506629  1
  Pr  Pr42  1  0.50571212  0.62463520  0.50156583  1
  Pr  Pr43  1  0.32959118  0.87703498  0.66252748  1
  Pr  Pr44  1  0.32827726  0.37379339  0.66514587  1
  Pr  Pr45  1  0.16829971  0.87772470  0.83378482  1
  Pr  Pr46  1  0.67402263  0.62526226  0.33216099  1
  Pr  Pr47  1  0.33776727  0.62887086  0.99171372  1
  Pr  Pr48  1  0.49333449  0.37596993  0.16263584  1
  Pr  Pr49  1  0.65659794  0.37492191  0.67002906  1
  Pr  Pr50  1  0.83512635  0.12541939  0.49663537  1
  Pr  Pr51  1  -0.00436772  0.12113624  0.33263956  1
  Pr  Pr52  1  0.33139836  0.37420138  0.00055943  1
  Pr  Pr53  1  0.16870722  0.37209687  0.83648241  1
  Pr  Pr54  1  0.83691622  0.62737963  0.83172811  1
  Pr  Pr55  1  0.17091966  0.37632836  0.50132291  1
  Pr  Pr56  1  0.16458526  0.87349991  0.49866560  1
  Pr  Pr57  1  0.65993278  0.87538270  0.00260538  1
  Pr  Pr58  1  0.49426927  0.87576914  0.82887476  1
  Pr  Pr59  1  -0.00398206  0.62511991  1.00062186  1
  Pr  Pr60  1  0.83542457  0.62203535  0.16669161  1
  Pr  Pr61  1  0.49734031  0.87364523  0.49527434  1
  Pr  Pr62  1  0.67372750  0.12361228  0.66312175  1
  Pr  Pr63  1  -0.00264344  0.62743457  0.66709644  1
  Pr  Pr64  1  0.33720329  0.12583560  0.32578602  1
  Pr  Pr65  1  0.67130378  0.12248681  0.99698814  1
  Pr  Pr66  1  0.67700925  0.62647279  0.99686297  1
  Pr  Pr67  1  0.83881926  0.12776198  0.16615075  1
  Pr  Pr68  1  0.33564168  0.62514374  0.32892003  1
  Pr  Pr69  1  -0.00458937  0.62840217  0.33262773  1
  Pr  Pr70  1  0.33412606  0.87794751  -0.00023211  1
  Pr  Pr71  1  0.00361043  0.37327622  0.67252632  1
  Mn  Mn72  1  0.00167925  0.00161966  0.16700425  1
  Mn  Mn73  1  0.00035759  0.00278986  0.50062156  1
  Mn  Mn74  1  0.00041325  0.00200484  0.83742472  1
  Mn  Mn75  1  -0.00018652  0.49987672  0.16930347  1
  Mn  Mn76  1  -0.00083430  0.49769181  0.50407570  1
  Mn  Mn77  1  0.00076028  0.49833340  0.83512186  1
  Mn  Mn78  1  0.33343720  0.00025192  0.16471225  1
  Mn  Mn79  1  0.33532262  0.00211543  0.49795553  1
  Mn  Mn80  1  0.33265415  -0.00074008  0.83015711  1
  Mn  Mn81  1  0.33401504  0.50116619  0.16470742  1
  Mn  Mn82  1  0.33400192  0.49951050  0.49769262  1
  Mn  Mn83  1  0.33253985  0.50045562  0.83179936  1
  Mn  Mn84  1  0.66748584  -0.00051892  0.16502683  1
  Mn  Mn85  1  0.66451754  0.00088141  0.49940348  1
  Mn  Mn86  1  0.66524413  -0.00014815  0.83113370  1
  Mn  Mn87  1  0.66574962  0.50012752  0.16496635  1
  Mn  Mn88  1  0.66593867  0.49801741  0.50015811  1
  Mn  Mn89  1  0.66852470  0.49651747  0.83533512  1
  Mn  Mn90  1  0.00057313  0.24993021  0.17037816  1
  Mn  Mn91  1  -0.00161297  0.25085983  0.50429295  1
  Mn  Mn92  1  -0.00039752  0.25064907  0.83562048  1
  Mn  Mn93  1  0.00103140  0.74955968  0.16708103  1
  Mn  Mn94  1  0.00057113  0.74846242  0.50094004  1
  Mn  Mn95  1  0.00205705  0.74848927  0.83620049  1
  Mn  Mn96  1  0.33437192  0.24919914  0.16478681  1
  Mn  Mn97  1  0.33492468  0.24887368  0.49730304  1
  Mn  Mn98  1  0.33154333  0.24980980  0.83154900  1
  Mn  Mn99  1  0.33290699  0.75070984  0.16401406  1
  Mn  Mn100  1  0.33409283  0.75112689  0.49833848  1
  Mn  Mn101  1  0.33370028  0.75084231  0.82930233  1
  Mn  Mn102  1  0.66560400  0.24936402  0.16516952  1
  Mn  Mn103  1  0.66580739  0.25088325  0.50120350  1
  Mn  Mn104  1  0.66693576  0.25278594  0.83411410  1
  Mn  Mn105  1  0.66827524  0.74989892  0.16536385  1
  Mn  Mn106  1  0.66539850  0.74925076  0.49956172  1
  Mn  Mn107  1  0.66700384  0.75001955  0.83274944  1
  Mn  Mn108  1  0.16653477  0.24889339  0.00240910  1
  Mn  Mn109  1  0.16773992  0.25051413  0.33694985  1
  Mn  Mn110  1  0.16652617  0.24887799  0.67025332  1
  Mn  Mn111  1  0.16776221  0.75032483  0.00140972  1
  Mn  Mn112  1  0.16752005  0.74921131  0.33529014  1
  Mn  Mn113  1  0.16633019  0.75123457  0.66972295  1
  Mn  Mn114  1  0.50100089  0.25077735  0.00040876  1
  Mn  Mn115  1  0.49914174  0.24939803  0.33341952  1
  Mn  Mn116  1  0.49965509  0.24957145  0.66621707  1
  Mn  Mn117  1  0.50115498  0.74893241  -0.00357406  1
  Mn  Mn118  1  0.49997589  0.74898024  0.33520232  1
  Mn  Mn119  1  0.49977353  0.75058683  0.66544125  1
  Mn  Mn120  1  0.83070739  0.24916651  -0.00210545  1
  Mn  Mn121  1  0.83235775  0.25129073  0.33225325  1
  Mn  Mn122  1  0.83301819  0.25217207  0.66326771  1
  Mn  Mn123  1  0.83536072  0.75148718  -0.00258944  1
  Mn  Mn124  1  0.83089290  0.74946230  0.33176217  1
  Mn  Mn125  1  0.83220345  0.74889320  0.66541268  1
  Mn  Mn126  1  0.16520942  0.00104882  0.00150350  1
  Mn  Mn127  1  0.16915836  0.00128340  0.33548558  1
  Mn  Mn128  1  0.16787070  0.00242966  0.66889489  1
  Mn  Mn129  1  0.16893806  0.50127613  0.00256269  1
  Mn  Mn130  1  0.16656408  0.50008055  0.33569887  1
  Mn  Mn131  1  0.16497831  0.49774945  0.67111781  1
  Mn  Mn132  1  0.50108138  -0.00027389  -0.00090706  1
  Mn  Mn133  1  0.49956790  0.00238819  0.33510221  1
  Mn  Mn134  1  0.50106064  0.00013960  0.66415611  1
  Mn  Mn135  1  0.50063380  0.50040011  -0.00076342  1
  Mn  Mn136  1  0.49891698  0.49968900  0.33289771  1
  Mn  Mn137  1  0.49819276  0.49895472  0.66749835  1
  Mn  Mn138  1  0.83438756  0.00030500  -0.00274209  1
  Mn  Mn139  1  0.83060898  0.00064530  0.33172217  1
  Mn  Mn140  1  0.83099278  0.00053890  0.66515749  1
  Mn  Mn141  1  0.83247503  0.49906423  -0.00201422  1
  Mn  Mn142  1  0.83249755  0.49820004  0.33150557  1
  Mn  Mn143  1  0.83478036  0.49717044  0.66349667  1
  O  O144  1  0.16792495  0.12305315  0.02642203  1
  O  O145  1  0.18092116  0.12525368  0.34641389  1
  O  O146  1  0.17724448  0.12669370  0.69431155  1
  O  O147  1  0.18078180  0.62612665  0.01363327  1
  O  O148  1  0.17723338  0.62438780  0.34854281  1
  O  O149  1  0.16318530  0.62018417  0.69381979  1
  O  O150  1  0.50398531  0.12676448  0.02239390  1
  O  O151  1  0.49329672  0.12692099  0.35371219  1
  O  O152  1  0.49675200  0.12677567  0.67976469  1
  O  O153  1  0.48926083  0.62484103  0.00900402  1
  O  O154  1  0.48955188  0.62285849  0.35846690  1
  O  O155  1  0.49841958  0.62044232  0.69215357  1
  O  O156  1  0.82555999  0.12430859  0.02152221  1
  O  O157  1  0.83128980  0.12854448  0.35123566  1
  O  O158  1  0.82776467  0.12973426  0.68936466  1
  O  O159  1  0.83240057  0.62556620  0.02166801  1
  O  O160  1  0.83162566  0.62153709  0.35204663  1
  O  O161  1  0.83809485  0.61849338  0.68914386  1
  O  O162  1  0.17090807  0.37554550  0.30865608  1
  O  O163  1  0.16223322  0.37140261  0.64506385  1
  O  O164  1  0.17127732  0.37665638  0.98025803  1
  O  O165  1  0.16935761  0.87643555  0.31082125  1
  O  O166  1  0.16855312  0.88199676  0.64304228  1
  O  O167  1  0.15739350  0.87409138  0.97633461  1
  O  O168  1  0.49500417  0.37360415  0.30565660  1
  O  O169  1  0.49804489  0.37360798  0.64479532  1
  O  O170  1  0.49896100  0.37688230  0.97694036  1
  O  O171  1  0.49978269  0.87672706  0.32517947  1
  O  O172  1  0.49804709  0.87846476  0.64039083  1
  O  O173  1  0.50603530  0.87133673  0.97453520  1
  O  O174  1  0.83277209  0.37451500  0.30517440  1
  O  O175  1  0.84465954  0.37365532  0.63624858  1
  O  O176  1  0.83183365  0.37458932  0.97624768  1
  O  O177  1  0.82803049  0.87441802  0.32228044  1
  O  O178  1  0.83114500  0.87745349  0.65497495  1
  O  O179  1  0.84581606  0.87585284  0.98484635  1
  O  O180  1  -0.00046800  0.37485785  0.17984862  1
  O  O181  1  -0.01022397  0.37358904  0.52916922  1
  O  O182  1  -0.00589970  0.37475967  0.84975679  1
  O  O183  1  0.00532004  0.87585294  0.17761748  1
  O  O184  1  0.00732497  0.87825548  0.51141165  1
  O  O185  1  0.00559007  0.87280904  0.86113252  1
  O  O186  1  0.33987203  0.37403320  0.18715557  1
  O  O187  1  0.33764038  0.37276799  0.52134440  1
  O  O188  1  0.33344445  0.37656591  0.85651948  1
  O  O189  1  0.32933228  0.87696231  0.18680155  1
  O  O190  1  0.34237019  0.87870266  0.52010904  1
  O  O191  1  0.33508265  0.87277505  0.85533555  1
  O  O192  1  0.67118891  0.37446988  0.17701403  1
  O  O193  1  0.67571963  0.37369975  0.52437454  1
  O  O194  1  0.67873123  0.37524885  0.85606807  1
  O  O195  1  0.66827192  0.87572296  0.18353641  1
  O  O196  1  0.66005841  0.87534703  0.51361996  1
  O  O197  1  0.66222455  0.87088857  0.85830788  1
  O  O198  1  0.00280346  0.12576181  0.15108279  1
  O  O199  1  -0.00314413  0.12863917  0.47738783  1
  O  O200  1  0.00578303  0.13068711  0.81109865  1
  O  O201  1  -0.00491484  0.62402964  0.14492211  1
  O  O202  1  -0.00263178  0.61961938  0.47735804  1
  O  O203  1  0.00495143  0.61988462  0.81079618  1
  O  O204  1  0.32478712  0.12438567  0.15212831  1
  O  O205  1  0.33386499  0.12631565  0.47122400  1
  O  O206  1  0.32650751  0.12580517  0.80727497  1
  O  O207  1  0.33243485  0.62468387  0.13841413  1
  O  O208  1  0.33589925  0.62408383  0.47403355  1
  O  O209  1  0.32371540  0.62600703  0.81957214  1
  O  O210  1  0.65959908  0.12496353  0.14110723  1
  O  O211  1  0.66537471  0.12913502  0.47908030  1
  O  O212  1  0.66911018  0.13183006  0.80676453  1
  O  O213  1  0.67349896  0.62436502  0.14129091  1
  O  O214  1  0.65660306  0.62093364  0.47831599  1
  O  O215  1  0.66346324  0.62119540  0.82093688  1
  O  O216  1  0.08448255  0.02236284  0.25402797  1
  O  O217  1  0.07876473  0.02178293  0.59627201  1
  O  O218  1  0.08008835  0.02034249  0.92465617  1
  O  O219  1  0.07867699  0.51654827  0.26251089  1
  O  O220  1  0.07512726  0.51040953  0.59888300  1
  O  O221  1  0.08715727  0.52063799  0.92195427  1
  O  O222  1  0.42017844  0.02175012  0.24689226  1
  O  O223  1  0.41926186  0.02035307  0.57900436  1
  O  O224  1  0.41864836  0.00285308  0.91169916  1
  O  O225  1  0.41640864  0.51540292  0.24793608  1
  O  O226  1  0.42323872  0.51363157  0.57037877  1
  O  O227  1  0.42280497  0.51693594  0.90521076  1
  O  O228  1  0.75302671  0.02540486  0.24151699  1
  O  O229  1  0.75303679  0.02290720  0.57663003  1
  O  O230  1  0.75275133  0.02097399  0.90896316  1
  O  O231  1  0.75448452  0.51945016  0.24278244  1
  O  O232  1  0.76096114  0.51301673  0.57198909  1
  O  O233  1  0.75806346  0.52253028  0.91004387  1
  O  O234  1  0.25579102  0.23825657  0.24940798  1
  O  O235  1  0.25740344  0.23906891  0.58984307  1
  O  O236  1  0.24475170  0.23813536  0.90907245  1
  O  O237  1  0.25450623  0.73947010  0.25622596  1
  O  O238  1  0.25235752  0.74976375  0.58211111  1
  O  O239  1  0.25366829  0.73897664  0.91810231  1
  O  O240  1  0.58733928  0.22652101  0.25604158  1
  O  O241  1  0.59470729  0.23942843  0.59652255  1
  O  O242  1  0.59151282  0.23681776  0.92975896  1
  O  O243  1  0.58963062  0.73324024  0.26401866  1
  O  O244  1  0.58316948  0.73493610  0.58579290  1
  O  O245  1  0.59019268  0.72665659  0.92216915  1
  O  O246  1  0.91899488  0.22696521  0.25311101  1
  O  O247  1  0.91486170  0.22148960  0.58460091  1
  O  O248  1  0.91240679  0.23067931  0.91104099  1
  O  O249  1  0.91473333  0.72858742  0.24704580  1
  O  O250  1  0.91739516  0.72790237  0.58160270  1
  O  O251  1  0.91812588  0.72303986  0.91505898  1
  O  O252  1  0.08816067  0.48751673  0.09070446  1
  O  O253  1  0.08776148  0.47962395  0.43167494  1
  O  O254  1  0.08601435  0.47374479  0.75725795  1
  O  O255  1  0.08863530  0.98063677  0.08873405  1
  O  O256  1  0.08906478  0.99093968  0.42165854  1
  O  O257  1  0.09136104  0.98876248  0.76420946  1
  O  O258  1  0.41133381  0.47882146  0.07523090  1
  O  O259  1  0.41047248  0.47707330  0.40834641  1
  O  O260  1  0.41030447  0.47524301  0.74499533  1
  O  O261  1  0.41266107  0.98398595  0.07607931  1
  O  O262  1  0.41032232  0.98227873  0.40998381  1
  O  O263  1  0.41258973  0.98089446  0.74156244  1
  O  O264  1  0.74662373  0.48589790  0.07553354  1
  O  O265  1  0.74665499  0.48903062  0.41239514  1
  O  O266  1  0.74999089  0.47430064  0.74041006  1
  O  O267  1  0.74351848  0.98566181  0.06944097  1
  O  O268  1  0.73941638  0.99686371  0.40855963  1
  O  O269  1  0.74101595  0.99345577  0.74113871  1
  O  O270  1  0.25118483  0.27356009  0.08441960  1
  O  O271  1  0.24965083  0.27614647  0.41835000  1
  O  O272  1  0.24940021  0.27735511  0.75031386  1
  O  O273  1  0.24783446  0.77761889  0.08168626  1
  O  O274  1  0.24967556  0.77492141  0.41812388  1
  O  O275  1  0.24961948  0.77512668  0.75061878  1
  O  O276  1  0.57172337  0.26612208  0.09677972  1
  O  O277  1  0.57474931  0.26749091  0.43015290  1
  O  O278  1  0.57901620  0.27771661  0.75961768  1
  O  O279  1  0.58575770  0.76201299  0.08032752  1
  O  O280  1  0.57128789  0.75981326  0.42783761  1
  O  O281  1  0.57358456  0.76383710  0.76091638  1
  O  O282  1  0.90637949  0.25929054  0.08975225  1
  O  O283  1  0.90976393  0.26370153  0.42449750  1
  O  O284  1  0.91664027  0.26701905  0.74640024  1
  O  O285  1  0.92606390  0.75926247  0.07343972  1
  O  O286  1  0.91548233  0.74922482  0.41387841  1
  O  O287  1  0.91995559  0.75048781  0.75122837  1
  O  O288  1  0.24973380  0.47385099  0.08606008  1
  O  O289  1  0.24991927  0.47566791  0.41826015  1
  O  O290  1  0.24705402  0.47424053  0.75379450  1
  O  O291  1  0.24862490  0.97475606  0.08012214  1
  O  O292  1  0.24927154  0.97421791  0.42010030  1
  O  O293  1  0.25077042  0.97490439  0.74910739  1
  O  O294  1  0.57454259  0.48267644  0.09210128  1
  O  O295  1  0.57086896  0.48352092  0.42748395  1
  O  O296  1  0.57817840  0.47634656  0.76009104  1
  O  O297  1  0.58300735  0.98520918  0.08382653  1
  O  O298  1  0.57379136  0.98874010  0.42578844  1
  O  O299  1  0.57530668  0.97997012  0.75648288  1
  O  O300  1  0.90688010  0.48798538  0.08843381  1
  O  O301  1  0.90771789  0.48498155  0.42334903  1
  O  O302  1  0.91466367  0.47838596  0.74783454  1
  O  O303  1  0.92289273  0.99258025  0.07788794  1
  O  O304  1  0.91461864  1.00106253  0.41393014  1
  O  O305  1  0.91754513  1.00185243  0.74939761  1
  O  O306  1  0.09141474  0.26209352  0.09803634  1
  O  O307  1  0.08686408  0.26850752  0.43203616  1
  O  O308  1  0.08685329  0.27127531  0.75869991  1
  O  O309  1  0.08722323  0.76820260  0.08689317  1
  O  O310  1  0.08955884  0.76136997  0.42479538  1
  O  O311  1  0.09207398  0.76336664  0.76584169  1
  O  O312  1  0.41348991  0.27220793  0.07884256  1
  O  O313  1  0.41040777  0.27191340  0.40722333  1
  O  O314  1  0.41124499  0.27023992  0.74523001  1
  O  O315  1  0.40832410  0.76528822  0.06633878  1
  O  O316  1  0.41067889  0.76945481  0.41181334  1
  O  O317  1  0.41184505  0.77469018  0.74152397  1
  O  O318  1  0.74435367  0.26284886  0.07781777  1
  O  O319  1  0.74983192  0.26315722  0.41680709  1
  O  O320  1  0.74872694  0.27559363  0.74063828  1
  O  O321  1  0.74673173  0.76501164  0.06924468  1
  O  O322  1  0.73928834  0.75166309  0.40732684  1
  O  O323  1  0.74491063  0.75728059  0.74768145  1
  O  O324  1  0.25214654  0.01500818  0.25094212  1
  O  O325  1  0.26006168  0.01589774  0.58929863  1
  O  O326  1  0.24167523  0.00952389  0.91074046  1
  O  O327  1  0.25882175  0.51024910  0.25367644  1
  O  O328  1  0.25059949  0.49944558  0.58612995  1
  O  O329  1  0.25647598  0.51476019  0.92024390  1
  O  O330  1  0.58582061  0.02232140  0.25548093  1
  O  O331  1  0.59209883  0.01859836  0.59244203  1
  O  O332  1  0.59282291  0.01449429  0.92509582  1
  O  O333  1  0.58976125  0.51855605  0.26144139  1
  O  O334  1  0.58535529  0.50498259  0.58757234  1
  O  O335  1  0.58872514  0.51938298  0.92693384  1
  O  O336  1  0.91715043  0.02154295  0.24769404  1
  O  O337  1  0.91442265  0.02332684  0.58270785  1
  O  O338  1  0.91448991  0.02306870  0.91327325  1
  O  O339  1  0.91733178  0.52316020  0.25262086  1
  O  O340  1  0.91793715  0.52647435  0.58531261  1
  O  O341  1  0.91876334  0.52414648  0.91786013  1
  O  O342  1  0.08343897  0.22861237  0.25995557  1
  O  O343  1  0.07428488  0.23488205  0.59940522  1
  O  O344  1  0.08348819  0.23496076  0.92036724  1
  O  O345  1  0.07816290  0.73372890  0.25973977  1
  O  O346  1  0.07887297  0.73424882  0.59523402  1
  O  O347  1  0.08152708  0.72360123  0.92501089  1
  O  O348  1  0.42115107  0.22737768  0.24042572  1
  O  O349  1  0.41805588  0.23370046  0.57792133  1
  O  O350  1  0.41789269  0.24629536  0.91209749  1
  O  O351  1  0.41441521  0.73673358  0.25281414  1
  O  O352  1  0.42467325  0.73481798  0.57124589  1
  O  O353  1  0.42419209  0.73220088  0.90221769  1
  O  O354  1  0.75318123  0.22875785  0.24100255  1
  O  O355  1  0.75416454  0.22826556  0.57864731  1
  O  O356  1  0.75320321  0.22656951  0.90968167  1
  O  O357  1  0.75374600  0.72547563  0.24411088  1
  O  O358  1  0.75549887  0.73227250  0.57132644  1
  O  O359  1  0.75531374  0.72878893  0.91130110  1
