# generated using pymatgen
data_Ba17Sr5La8Pr42Mn72O216
_symmetry_space_group_name_H-M   'P 1'
_cell_length_a   16.67136634
_cell_length_b   15.70621418
_cell_length_c   16.81483883
_cell_angle_alpha   89.99956228
_cell_angle_beta   89.95120192
_cell_angle_gamma   90.00146013
_symmetry_Int_Tables_number   1
_chemical_formula_structural   Ba17Sr5La8Pr42Mn72O216
_chemical_formula_sum   'Ba17 Sr5 La8 Pr42 Mn72 O216'
_cell_volume   4402.86390703
_cell_formula_units_Z   1
loop_
 _symmetry_equiv_pos_site_id
 _symmetry_equiv_pos_as_xyz
  1  'x, y, z'
loop_
 _atom_site_type_symbol
 _atom_site_label
 _atom_site_symmetry_multiplicity
 _atom_site_fract_x
 _atom_site_fract_y
 _atom_site_fract_z
 _atom_site_occupancy
  Ba  Ba0  1  0.16655877  0.12527970  0.16909142  1
  Ba  Ba1  1  0.00480369  0.12470821  0.99956186  1
  Ba  Ba2  1  0.83322685  0.12718728  0.49892465  1
  Ba  Ba3  1  0.33033197  0.37515513  0.66626245  1
  Ba  Ba4  1  0.33271282  0.87603635  0.66786554  1
  Ba  Ba5  1  0.83686134  0.87516596  0.83192885  1
  Ba  Ba6  1  0.83593678  0.37535038  0.83347624  1
  Ba  Ba7  1  0.33439022  0.12623872  0.33128253  1
  Ba  Ba8  1  0.49786269  0.87394979  0.50001871  1
  Ba  Ba9  1  -0.00355605  0.62289093  0.32843670  1
  Ba  Ba10  1  0.49899813  0.62393722  0.83577047  1
  Ba  Ba11  1  0.83224332  0.87396580  0.16478427  1
  Ba  Ba12  1  0.66731617  0.37618568  0.00361283  1
  Ba  Ba13  1  0.16871321  0.62426385  0.17033477  1
  Ba  Ba14  1  0.66458805  0.87415971  0.33498645  1
  Ba  Ba15  1  0.66640695  0.87408227  0.00148268  1
  Ba  Ba16  1  0.83843230  0.12541912  0.83276764  1
  Sr  Sr17  1  0.33548084  0.62393349  0.33192680  1
  Sr  Sr18  1  0.16780954  0.87670893  0.83004088  1
  Sr  Sr19  1  0.16486648  0.37563506  0.50000890  1
  Sr  Sr20  1  0.00174996  0.87504975  0.66792148  1
  Sr  Sr21  1  0.66557577  0.62690262  0.99807528  1
  La  La22  1  0.83527477  0.87633196  0.49565432  1
  La  La23  1  0.16693741  0.87290730  0.16702145  1
  La  La24  1  0.83511619  0.37515380  0.49706234  1
  La  La25  1  0.16631678  0.37345908  0.82988745  1
  La  La26  1  0.16606144  0.12680204  0.50057551  1
  La  La27  1  0.33268826  0.62426740  0.99847466  1
  La  La28  1  0.66811131  0.62431752  0.66915917  1
  La  La29  1  0.49354861  0.37762260  0.49810075  1
  Pr  Pr30  1  0.00324640  0.37106244  -0.00115676  1
  Pr  Pr31  1  0.00128964  0.87855001  -0.00054287  1
  Pr  Pr32  1  0.17268846  0.12287521  0.83727877  1
  Pr  Pr33  1  0.67404703  0.12340386  0.99934221  1
  Pr  Pr34  1  0.32721628  0.87407475  0.33704927  1
  Pr  Pr35  1  0.00125757  0.12165935  0.66691330  1
  Pr  Pr36  1  0.32164587  0.37556875  0.33908897  1
  Pr  Pr37  1  0.33360562  0.37748392  -0.00062235  1
  Pr  Pr38  1  0.00052652  0.37242533  0.66632512  1
  Pr  Pr39  1  0.50254377  0.12502625  0.83561916  1
  Pr  Pr40  1  0.50360377  0.87269580  0.82880588  1
  Pr  Pr41  1  0.50345638  0.37785832  0.83109451  1
  Pr  Pr42  1  0.66758327  0.37244543  0.67392969  1
  Pr  Pr43  1  0.82650101  0.62651823  0.49946704  1
  Pr  Pr44  1  0.33703209  0.12360257  0.66287656  1
  Pr  Pr45  1  0.50390603  0.12295801  0.50507734  1
  Pr  Pr46  1  0.49576862  0.87601729  0.16643926  1
  Pr  Pr47  1  0.33266752  0.87199107  -0.00130137  1
  Pr  Pr48  1  0.66863720  0.87681781  0.67241090  1
  Pr  Pr49  1  0.83877916  0.37792737  0.15934369  1
  Pr  Pr50  1  0.67613409  0.12554179  0.66632142  1
  Pr  Pr51  1  -0.00406249  0.62600248  0.66078880  1
  Pr  Pr52  1  -0.00507880  0.12588005  0.32503404  1
  Pr  Pr53  1  0.33713413  0.12576502  1.00000153  1
  Pr  Pr54  1  0.82988308  0.62572814  0.83468838  1
  Pr  Pr55  1  0.16750836  0.62695986  0.83451274  1
  Pr  Pr56  1  0.82313442  0.62590999  0.16668655  1
  Pr  Pr57  1  0.16608604  0.87457257  0.49895261  1
  Pr  Pr58  1  0.66402579  0.37629457  0.33718518  1
  Pr  Pr59  1  0.00129565  0.87357050  0.33348000  1
  Pr  Pr60  1  0.49449456  0.37419319  0.16587083  1
  Pr  Pr61  1  -0.00219998  0.62521821  0.99599153  1
  Pr  Pr62  1  0.16963397  0.37645624  0.16829415  1
  Pr  Pr63  1  0.66296722  0.62883979  0.33382552  1
  Pr  Pr64  1  0.33168439  0.62763920  0.66495757  1
  Pr  Pr65  1  0.66428574  0.12137898  0.33629073  1
  Pr  Pr66  1  0.82920749  0.12427929  0.16857828  1
  Pr  Pr67  1  0.49611618  0.62778912  0.50397887  1
  Pr  Pr68  1  0.50595902  0.12621782  0.16992361  1
  Pr  Pr69  1  0.50471516  0.62375166  0.16575219  1
  Pr  Pr70  1  0.00511578  0.37587433  0.33350429  1
  Pr  Pr71  1  0.16167600  0.62328958  0.50258030  1
  Mn  Mn72  1  -0.00085353  -0.00104106  0.16674496  1
  Mn  Mn73  1  0.00096419  0.00004534  0.49821953  1
  Mn  Mn74  1  0.00495670  -0.00190062  0.83137069  1
  Mn  Mn75  1  -0.00018816  0.49917517  0.16271621  1
  Mn  Mn76  1  -0.00198705  0.50027692  0.49834336  1
  Mn  Mn77  1  0.00248573  0.50211527  0.82955641  1
  Mn  Mn78  1  0.33434228  -0.00173169  0.16612656  1
  Mn  Mn79  1  0.33225711  0.00142451  0.49963940  1
  Mn  Mn80  1  0.33633510  0.00161128  0.83371167  1
  Mn  Mn81  1  0.33588862  0.49903883  0.16823343  1
  Mn  Mn82  1  0.33077933  0.50093341  0.49872488  1
  Mn  Mn83  1  0.33220851  0.49932728  0.83360417  1
  Mn  Mn84  1  0.66408917  0.00114775  0.16725487  1
  Mn  Mn85  1  0.66632377  0.00006539  0.50284915  1
  Mn  Mn86  1  0.66726632  0.00182034  0.83454542  1
  Mn  Mn87  1  0.66579554  0.49988515  0.17053381  1
  Mn  Mn88  1  0.66433144  0.49890824  0.50211238  1
  Mn  Mn89  1  0.66723788  0.49981901  0.83475187  1
  Mn  Mn90  1  -0.00127233  0.25166521  0.16665982  1
  Mn  Mn91  1  0.00070877  0.25033359  0.49826642  1
  Mn  Mn92  1  0.00427619  0.25075253  0.83215612  1
  Mn  Mn93  1  0.00011965  0.74937862  0.16336612  1
  Mn  Mn94  1  -0.00114315  0.75030352  0.49905328  1
  Mn  Mn95  1  0.00297851  0.74779637  0.82981892  1
  Mn  Mn96  1  0.33457252  0.25215292  0.16656024  1
  Mn  Mn97  1  0.33315990  0.24959463  0.50009137  1
  Mn  Mn98  1  0.33602975  0.24936891  0.83339396  1
  Mn  Mn99  1  0.33582620  0.74961010  0.16816883  1
  Mn  Mn100  1  0.33001948  0.74852970  0.49859381  1
  Mn  Mn101  1  0.33305853  0.74968118  0.83344986  1
  Mn  Mn102  1  0.66660377  0.25071390  0.17075520  1
  Mn  Mn103  1  0.66405434  0.25422650  0.50290178  1
  Mn  Mn104  1  0.66653933  0.24938400  0.83525823  1
  Mn  Mn105  1  0.66377914  0.74867612  0.16671948  1
  Mn  Mn106  1  0.66586540  0.74781990  0.50261390  1
  Mn  Mn107  1  0.66725030  0.74956231  0.83397249  1
  Mn  Mn108  1  0.17125126  0.25125833  -0.00035617  1
  Mn  Mn109  1  0.16362422  0.25014017  0.33551392  1
  Mn  Mn110  1  0.16566264  0.24823352  0.66777303  1
  Mn  Mn111  1  0.16674368  0.74995627  -0.00052644  1
  Mn  Mn112  1  0.16605238  0.74926645  0.33393984  1
  Mn  Mn113  1  0.16470839  0.74885821  0.66733140  1
  Mn  Mn114  1  0.49977446  0.24928539  0.00131258  1
  Mn  Mn115  1  0.50043819  0.25266161  0.33413318  1
  Mn  Mn116  1  0.50091564  0.25063125  0.66804833  1
  Mn  Mn117  1  0.49802283  0.75133311  0.00078769  1
  Mn  Mn118  1  0.49684783  0.74734515  0.33292762  1
  Mn  Mn119  1  0.50038354  0.74876676  0.66760377  1
  Mn  Mn120  1  0.83551924  0.25087351  0.00123634  1
  Mn  Mn121  1  0.83011837  0.25262050  0.33016833  1
  Mn  Mn122  1  0.83525598  0.25088650  0.66465146  1
  Mn  Mn123  1  0.83571545  0.74801638  -0.00114125  1
  Mn  Mn124  1  0.83306005  0.74908280  0.33301044  1
  Mn  Mn125  1  0.83362342  0.74898967  0.66506149  1
  Mn  Mn126  1  0.17096608  -0.00205458  -0.00036530  1
  Mn  Mn127  1  0.16405174  -0.00100985  0.33462846  1
  Mn  Mn128  1  0.16614996  0.00177825  0.66765419  1
  Mn  Mn129  1  0.16671798  0.50003155  -0.00041454  1
  Mn  Mn130  1  0.16570269  0.50097974  0.33492183  1
  Mn  Mn131  1  0.16418340  0.50025074  0.66746872  1
  Mn  Mn132  1  0.49827101  0.00188603  0.00059924  1
  Mn  Mn133  1  0.49795715  0.00039007  0.33351305  1
  Mn  Mn134  1  0.50213205  0.00179041  0.66986643  1
  Mn  Mn135  1  0.49894865  0.49820661  0.00135195  1
  Mn  Mn136  1  0.49903322  0.49944680  0.33294151  1
  Mn  Mn137  1  0.49939477  0.49994840  0.66566625  1
  Mn  Mn138  1  0.83630627  -0.00031923  0.00020611  1
  Mn  Mn139  1  0.83332763  0.00037608  0.33318518  1
  Mn  Mn140  1  0.83543706  -0.00021271  0.66417957  1
  Mn  Mn141  1  0.83577276  0.50124408  -0.00093137  1
  Mn  Mn142  1  0.82973965  0.49814751  0.33031873  1
  Mn  Mn143  1  0.83365903  0.50072715  0.66416834  1
  O  O144  1  0.17599477  0.12470866  0.01386332  1
  O  O145  1  0.15388483  0.12518822  0.35272138  1
  O  O146  1  0.15535636  0.12655090  0.69313313  1
  O  O147  1  0.16577530  0.62388615  0.01607532  1
  O  O148  1  0.16554506  0.62586409  0.35534610  1
  O  O149  1  0.15502790  0.62232862  0.69010849  1
  O  O150  1  0.49167501  0.12637506  0.02880074  1
  O  O151  1  0.50371238  0.13236723  0.36036602  1
  O  O152  1  0.49072852  0.12802233  0.69152643  1
  O  O153  1  0.49025765  0.62181868  0.02181906  1
  O  O154  1  0.49893210  0.62023413  0.36004010  1
  O  O155  1  0.48617788  0.62296900  0.67815165  1
  O  O156  1  0.83186606  0.12828281  0.02072891  1
  O  O157  1  0.83847266  0.12759571  0.34547638  1
  O  O158  1  0.82927552  0.12729121  0.67421459  1
  O  O159  1  0.84403940  0.62304728  0.02233288  1
  O  O160  1  0.82683903  0.62269708  0.35668425  1
  O  O161  1  0.83315570  0.62322779  0.68924994  1
  O  O162  1  0.16762791  0.37486848  0.31633686  1
  O  O163  1  0.16212406  0.37399074  0.64723829  1
  O  O164  1  0.17114063  0.37739125  0.97352124  1
  O  O165  1  0.16990083  0.87390285  0.31517376  1
  O  O166  1  0.16681817  0.87591643  0.64185775  1
  O  O167  1  0.17240265  0.87334902  0.97877587  1
  O  O168  1  0.51119059  0.37617116  0.30709264  1
  O  O169  1  0.51136375  0.37495591  0.64301896  1
  O  O170  1  0.49454306  0.37094599  0.97488112  1
  O  O171  1  0.49524510  0.87066582  0.31077332  1
  O  O172  1  0.51312965  0.87539614  0.65791979  1
  O  O173  1  0.49384024  0.88202694  0.97273426  1
  O  O174  1  0.82059169  0.37370945  0.30239353  1
  O  O175  1  0.83685519  0.37763917  0.64282866  1
  O  O176  1  0.83683784  0.37681399  0.99142263  1
  O  O177  1  0.83917578  0.87493934  0.32204969  1
  O  O178  1  0.82944731  0.87159385  0.64215884  1
  O  O179  1  0.84026380  0.87108676  0.98997957  1
  O  O180  1  -0.00972326  0.37516490  0.18840462  1
  O  O181  1  -0.00759142  0.37903354  0.52353137  1
  O  O182  1  0.00681077  0.37954745  0.85476357  1
  O  O183  1  0.00143570  0.87557440  0.18735056  1
  O  O184  1  -0.00539304  0.87362418  0.51943672  1
  O  O185  1  0.00438015  0.86798826  0.85480191  1
  O  O186  1  0.34118815  0.37567939  0.19418360  1
  O  O187  1  0.33163220  0.37413477  0.50992370  1
  O  O188  1  0.32812277  0.37337140  0.85554458  1
  O  O189  1  0.34174511  0.87240989  0.19328258  1
  O  O190  1  0.32190077  0.87545558  0.51091571  1
  O  O191  1  0.33569445  0.87778850  0.85417960  1
  O  O192  1  0.66821087  0.37477796  0.19336935  1
  O  O193  1  0.65793587  0.37790080  0.53098681  1
  O  O194  1  0.65987290  0.37301418  0.84462748  1
  O  O195  1  0.65821751  0.87459667  0.17755707  1
  O  O196  1  0.66850859  0.86934357  0.52648579  1
  O  O197  1  0.65855871  0.87642763  0.84171259  1
  O  O198  1  -0.00314490  0.12658488  0.15827218  1
  O  O199  1  0.00804766  0.12295300  0.46984413  1
  O  O200  1  0.01387728  0.12700664  0.81267078  1
  O  O201  1  0.00315137  0.62164078  0.14101511  1
  O  O202  1  0.00627868  0.62470724  0.48406983  1
  O  O203  1  0.01121014  0.62368542  0.80345705  1
  O  O204  1  0.33683155  0.12740454  0.14406348  1
  O  O205  1  0.34158223  0.12637310  0.48865255  1
  O  O206  1  0.33896597  0.12770172  0.80742669  1
  O  O207  1  0.33983811  0.62327801  0.14164765  1
  O  O208  1  0.33988775  0.62404617  0.48193948  1
  O  O209  1  0.33099168  0.62169617  0.81134386  1
  O  O210  1  0.65894726  0.12809764  0.14434789  1
  O  O211  1  0.66195428  0.13360197  0.47955029  1
  O  O212  1  0.66049440  0.12703241  0.81125643  1
  O  O213  1  0.66256116  0.62296510  0.14885826  1
  O  O214  1  0.67321024  0.62036702  0.47578040  1
  O  O215  1  0.67427929  0.62407548  0.81492840  1
  O  O216  1  0.07380787  0.00874889  0.25923802  1
  O  O217  1  0.08558038  0.02199112  0.57905425  1
  O  O218  1  0.09588146  0.01055723  0.91102337  1
  O  O219  1  0.08134457  0.49921287  0.24884959  1
  O  O220  1  0.08067706  0.51850233  0.58511997  1
  O  O221  1  0.08185192  0.52085061  0.91483765  1
  O  O222  1  0.42598376  0.01484842  0.23625406  1
  O  O223  1  0.42040789  0.01709085  0.58524894  1
  O  O224  1  0.42076830  0.02777464  0.91605949  1
  O  O225  1  0.42588324  0.51687536  0.24220233  1
  O  O226  1  0.41742022  0.51184065  0.57812658  1
  O  O227  1  0.40700296  0.50921003  0.92421923  1
  O  O228  1  0.74734646  0.02153731  0.25125817  1
  O  O229  1  0.74548695  0.01095843  0.58645823  1
  O  O230  1  0.74736667  0.01465315  0.91864296  1
  O  O231  1  0.74346478  0.52458190  0.25624340  1
  O  O232  1  0.74942535  0.52022914  0.58233608  1
  O  O233  1  0.75395842  0.51834571  0.91711067  1
  O  O234  1  0.24950562  0.24836834  0.25040291  1
  O  O235  1  0.25047390  0.22538303  0.59137061  1
  O  O236  1  0.26059862  0.22861806  0.91978032  1
  O  O237  1  0.25670587  0.74199844  0.25492394  1
  O  O238  1  0.24468056  0.72308833  0.58287647  1
  O  O239  1  0.24755043  0.72958279  0.91506814  1
  O  O240  1  0.58853007  0.22813056  0.25935386  1
  O  O241  1  0.58410428  0.22403316  0.58965073  1
  O  O242  1  0.58350204  0.22575663  0.92288585  1
  O  O243  1  0.58211510  0.72663041  0.25318675  1
  O  O244  1  0.58279838  0.72387012  0.58342705  1
  O  O245  1  0.58076283  0.74180301  0.91927715  1
  O  O246  1  0.90969053  0.23463562  0.24351790  1
  O  O247  1  0.92416139  0.23689298  0.58426381  1
  O  O248  1  0.92538456  0.24616127  0.91682488  1
  O  O249  1  0.90980022  0.73194708  0.23664558  1
  O  O250  1  0.91088732  0.72719948  0.57655615  1
  O  O251  1  0.91722888  0.72310755  0.90753132  1
  O  O252  1  0.08684285  0.47196601  0.08316974  1
  O  O253  1  0.07917195  0.48140276  0.41731983  1
  O  O254  1  0.08367571  0.47458401  0.74918999  1
  O  O255  1  0.08600184  0.97876114  0.08385552  1
  O  O256  1  0.08283903  0.97155606  0.41876295  1
  O  O257  1  0.08266600  0.98322118  0.74526086  1
  O  O258  1  0.41490770  0.47390691  0.08256980  1
  O  O259  1  0.41416755  0.47636954  0.40767222  1
  O  O260  1  0.42063488  0.48034688  0.75616839  1
  O  O261  1  0.40971732  0.97727533  0.07504229  1
  O  O262  1  0.40937194  0.98441840  0.40631294  1
  O  O263  1  0.42361553  0.98514025  0.75698029  1
  O  O264  1  0.75843906  0.49083906  0.09645683  1
  O  O265  1  0.74640578  0.47300674  0.42182793  1
  O  O266  1  0.74846430  0.48626239  0.74200397  1
  O  O267  1  0.74684325  1.00164204  0.08552378  1
  O  O268  1  0.75469992  0.98846206  0.42008367  1
  O  O269  1  0.74535801  0.98977551  0.74314057  1
  O  O270  1  0.25132284  0.27700554  0.08562421  1
  O  O271  1  0.24491182  0.25954554  0.41827946  1
  O  O272  1  0.24264044  0.25890133  0.75839068  1
  O  O273  1  0.25386569  0.76908572  0.08484188  1
  O  O274  1  0.24328021  0.76690229  0.42053412  1
  O  O275  1  0.25256533  0.75142357  0.74688777  1
  O  O276  1  0.57509489  0.26593999  0.09512359  1
  O  O277  1  0.57913706  0.27655223  0.42280165  1
  O  O278  1  0.58094151  0.26877323  0.75165231  1
  O  O279  1  0.57336295  0.75978587  0.09106375  1
  O  O280  1  0.58114478  0.75078480  0.41925218  1
  O  O281  1  0.58759355  0.75905780  0.74707964  1
  O  O282  1  0.92120637  0.27085867  0.08126755  1
  O  O283  1  0.91396949  0.27490955  0.40883037  1
  O  O284  1  0.92325024  0.26117309  0.74309845  1
  O  O285  1  0.93071993  0.76121064  0.06825728  1
  O  O286  1  0.92012155  0.76651022  0.41345013  1
  O  O287  1  0.92275056  0.75582513  0.74111978  1
  O  O288  1  0.25286616  0.47704607  0.08585887  1
  O  O289  1  0.24655218  0.48714862  0.41947206  1
  O  O290  1  0.24430298  0.49003482  0.75483526  1
  O  O291  1  0.25055558  0.97492016  0.08580939  1
  O  O292  1  0.24159175  0.98801773  0.42047490  1
  O  O293  1  0.24895966  0.99790124  0.75413650  1
  O  O294  1  0.57622667  0.48512253  0.09581388  1
  O  O295  1  0.58014973  0.47889189  0.42012087  1
  O  O296  1  0.58492119  0.48524643  0.74713374  1
  O  O297  1  0.57017078  0.98850349  0.09222030  1
  O  O298  1  0.58162718  0.99677714  0.42312314  1
  O  O299  1  0.58168686  0.98835687  0.75481790  1
  O  O300  1  0.92830408  0.48060333  0.07140013  1
  O  O301  1  0.91416929  0.47625515  0.40870825  1
  O  O302  1  0.92555099  0.48756989  0.73675697  1
  O  O303  1  0.92378929  0.98688132  0.08005403  1
  O  O304  1  0.92154504  0.98248706  0.41256962  1
  O  O305  1  0.92093653  0.99535417  0.74327149  1
  O  O306  1  0.08541815  0.27394672  0.08578110  1
  O  O307  1  0.07937339  0.27330219  0.41714849  1
  O  O308  1  0.08120753  0.27378004  0.74557555  1
  O  O309  1  0.08695512  0.77375628  0.08309192  1
  O  O310  1  0.08300369  0.77271624  0.41956924  1
  O  O311  1  0.08865893  0.76728760  0.75217005  1
  O  O312  1  0.41148531  0.27347360  0.07732510  1
  O  O313  1  0.41501418  0.27571799  0.40746489  1
  O  O314  1  0.42194034  0.27126839  0.75525242  1
  O  O315  1  0.41531926  0.77570495  0.08289353  1
  O  O316  1  0.40776742  0.76326301  0.40710337  1
  O  O317  1  0.42292374  0.76586978  0.75762550  1
  O  O318  1  0.75600823  0.26037894  0.09607651  1
  O  O319  1  0.74614340  0.27483594  0.41686369  1
  O  O320  1  0.74577254  0.26161323  0.74486645  1
  O  O321  1  0.75190453  0.74862205  0.08584567  1
  O  O322  1  0.75585895  0.76291887  0.42834637  1
  O  O323  1  0.74806574  0.76220398  0.74330026  1
  O  O324  1  0.25113862  0.00320503  0.25175412  1
  O  O325  1  0.24935786  0.02548953  0.58776931  1
  O  O326  1  0.26017971  0.02085400  0.92013216  1
  O  O327  1  0.25606528  0.50500396  0.25387572  1
  O  O328  1  0.24697038  0.52596842  0.58743069  1
  O  O329  1  0.24824705  0.52118567  0.91669507  1
  O  O330  1  0.58514487  0.02253494  0.25548341  1
  O  O331  1  0.58510739  0.02613284  0.59135750  1
  O  O332  1  0.58373046  0.02619640  0.92383299  1
  O  O333  1  0.58544548  0.52324788  0.25775146  1
  O  O334  1  0.58253805  0.52788179  0.58125779  1
  O  O335  1  0.58120364  0.50836827  0.92166754  1
  O  O336  1  0.91225248  0.01881391  0.24750515  1
  O  O337  1  0.92274329  0.01522149  0.58275885  1
  O  O338  1  0.92589371  0.00411330  0.91569315  1
  O  O339  1  0.90578903  0.51307304  0.23239397  1
  O  O340  1  0.91099847  0.52411596  0.57558843  1
  O  O341  1  0.91812845  0.52496218  0.90636198  1
  O  O342  1  0.07281033  0.24400906  0.25777773  1
  O  O343  1  0.08631437  0.22814209  0.58370461  1
  O  O344  1  0.09635309  0.24071031  0.90801815  1
  O  O345  1  0.08212033  0.74717584  0.25146857  1
  O  O346  1  0.08105713  0.73099889  0.58332025  1
  O  O347  1  0.07997790  0.72689855  0.91702814  1
  O  O348  1  0.42799201  0.23758668  0.23923260  1
  O  O349  1  0.42204777  0.23492126  0.58276200  1
  O  O350  1  0.42073391  0.22716903  0.91503952  1
  O  O351  1  0.42359611  0.72690749  0.24234495  1
  O  O352  1  0.41347952  0.73507437  0.58312046  1
  O  O353  1  0.40662147  0.73775968  0.92616329  1
  O  O354  1  0.74567921  0.22178738  0.25382118  1
  O  O355  1  0.74577960  0.24469270  0.58578635  1
  O  O356  1  0.74720969  0.23528723  0.92417397  1
  O  O357  1  0.74475410  0.73023502  0.25326890  1
  O  O358  1  0.74711450  0.72346581  0.58608826  1
  O  O359  1  0.75396251  0.73250148  0.91458709  1
