# generated using pymatgen
data_Ba17Sr5La8Pr42Mn72O216
_symmetry_space_group_name_H-M   'P 1'
_cell_length_a   16.67314583
_cell_length_b   15.69894679
_cell_length_c   16.81739533
_cell_angle_alpha   89.99934226
_cell_angle_beta   89.98962204
_cell_angle_gamma   90.05865789
_symmetry_Int_Tables_number   1
_chemical_formula_structural   Ba17Sr5La8Pr42Mn72O216
_chemical_formula_sum   'Ba17 Sr5 La8 Pr42 Mn72 O216'
_cell_volume   4401.96479306
_cell_formula_units_Z   1
loop_
 _symmetry_equiv_pos_site_id
 _symmetry_equiv_pos_as_xyz
  1  'x, y, z'
loop_
 _atom_site_type_symbol
 _atom_site_label
 _atom_site_symmetry_multiplicity
 _atom_site_fract_x
 _atom_site_fract_y
 _atom_site_fract_z
 _atom_site_occupancy
  Ba  Ba0  1  0.00438515  0.62493379  0.33418466  1
  Ba  Ba1  1  0.66801960  0.62359696  0.33020807  1
  Ba  Ba2  1  -0.00560884  0.87713467  0.66754617  1
  Ba  Ba3  1  0.33246043  0.37310497  0.67141673  1
  Ba  Ba4  1  0.50035641  0.12509111  0.83333597  1
  Ba  Ba5  1  0.16466880  0.62678326  0.83695914  1
  Ba  Ba6  1  0.49798277  0.87330641  0.16674382  1
  Ba  Ba7  1  0.33320086  0.37451894  0.00322908  1
  Ba  Ba8  1  0.49709394  0.37454607  0.83253186  1
  Ba  Ba9  1  0.83480973  0.12465575  0.16531414  1
  Ba  Ba10  1  0.16709725  0.62509798  0.50439103  1
  Ba  Ba11  1  0.49713143  0.87425897  0.49867485  1
  Ba  Ba12  1  0.83347962  0.37592227  0.82849318  1
  Ba  Ba13  1  0.83400008  0.37399474  0.49916100  1
  Ba  Ba14  1  0.66756636  0.12638156  0.32898564  1
  Ba  Ba15  1  0.50074150  0.12417780  0.16549421  1
  Ba  Ba16  1  0.83450947  0.87435520  0.16419618  1
  Sr  Sr17  1  0.82719377  0.87590407  0.82897831  1
  Sr  Sr18  1  -0.00500551  0.87594381  0.33658040  1
  Sr  Sr19  1  0.33519559  0.12700941  0.67019075  1
  Sr  Sr20  1  0.33704696  0.12334185  0.99888280  1
  Sr  Sr21  1  -0.00062379  0.12473173  0.66838939  1
  La  La22  1  0.16853815  0.12363096  0.50779428  1
  La  La23  1  0.33519293  0.37271073  0.33730479  1
  La  La24  1  0.49221397  0.87598006  0.83061431  1
  La  La25  1  0.17171500  0.12625790  0.17065762  1
  La  La26  1  0.16590828  0.37501882  0.16807447  1
  La  La27  1  0.66877782  0.12236414  0.99678336  1
  La  La28  1  0.16106299  0.87620403  0.83474160  1
  La  La29  1  -0.00299164  0.87467513  0.00123208  1
  Pr  Pr30  1  0.16720601  0.37270519  0.83309255  1
  Pr  Pr31  1  0.16855503  0.12355483  0.83812955  1
  Pr  Pr32  1  0.33984042  0.62688521  0.99960831  1
  Pr  Pr33  1  0.50033506  0.62224353  0.83154326  1
  Pr  Pr34  1  0.65880974  0.87496979  0.66568603  1
  Pr  Pr35  1  0.00061612  0.37676650  0.00096291  1
  Pr  Pr36  1  0.16752120  0.37242333  0.50300810  1
  Pr  Pr37  1  -0.00074934  0.62662473  1.00119520  1
  Pr  Pr38  1  0.83677762  0.62697717  0.82882406  1
  Pr  Pr39  1  0.67161390  0.62318128  0.65776990  1
  Pr  Pr40  1  0.50424144  0.12403950  0.50459818  1
  Pr  Pr41  1  0.66251047  0.37516522  0.66898929  1
  Pr  Pr42  1  0.33765834  0.62868895  0.33546276  1
  Pr  Pr43  1  0.50252499  0.62308841  0.16754415  1
  Pr  Pr44  1  0.83054975  0.87509097  0.49194379  1
  Pr  Pr45  1  0.32512765  0.87704115  0.00500339  1
  Pr  Pr46  1  0.66038243  0.87662371  -0.00062652  1
  Pr  Pr47  1  0.83917963  0.12434355  0.49871173  1
  Pr  Pr48  1  0.50532700  0.37586713  0.16115293  1
  Pr  Pr49  1  0.83648832  0.62573559  0.16835860  1
  Pr  Pr50  1  0.66722716  0.37142728  0.32978307  1
  Pr  Pr51  1  0.32667773  0.87429989  0.67101160  1
  Pr  Pr52  1  0.50368438  0.62568951  0.50281527  1
  Pr  Pr53  1  0.66953392  0.12748212  0.66179382  1
  Pr  Pr54  1  -0.00063563  0.62400681  0.66259891  1
  Pr  Pr55  1  0.33943121  0.12219223  0.33395196  1
  Pr  Pr56  1  0.50019385  0.37371150  0.49897455  1
  Pr  Pr57  1  0.66619224  0.88081050  0.33128327  1
  Pr  Pr58  1  0.83381888  0.37715888  0.16242289  1
  Pr  Pr59  1  0.32899633  0.87761782  0.33953645  1
  Pr  Pr60  1  0.15874364  0.87606527  0.50006895  1
  Pr  Pr61  1  0.00152951  0.37292462  0.33718808  1
  Pr  Pr62  1  0.33992489  0.62239464  0.66540328  1
  Pr  Pr63  1  0.00109354  0.12296252  0.99831332  1
  Pr  Pr64  1  0.66326330  0.37355009  -0.00285694  1
  Pr  Pr65  1  0.84075534  0.62561525  0.49917212  1
  Pr  Pr66  1  0.83583276  0.12412226  0.83381782  1
  Pr  Pr67  1  0.67118605  0.62898566  0.99504019  1
  Pr  Pr68  1  0.00176116  0.37576569  0.67172716  1
  Pr  Pr69  1  0.17252825  0.62341057  0.17531306  1
  Pr  Pr70  1  0.00174753  0.12505679  0.33113773  1
  Pr  Pr71  1  0.16155687  0.87530650  0.17073529  1
  Mn  Mn72  1  0.00220793  0.00078794  0.16749219  1
  Mn  Mn73  1  -0.00117963  0.00129275  0.50022101  1
  Mn  Mn74  1  -0.00221149  0.00079200  0.83360622  1
  Mn  Mn75  1  0.00304515  0.49948371  0.16647507  1
  Mn  Mn76  1  0.00135375  0.49716099  0.50177138  1
  Mn  Mn77  1  -0.00018491  0.50132066  0.83461327  1
  Mn  Mn78  1  0.33183331  -0.00039543  0.16899015  1
  Mn  Mn79  1  0.33166081  0.00147624  0.50394349  1
  Mn  Mn80  1  0.33098947  -0.00117727  0.83637598  1
  Mn  Mn81  1  0.33456141  0.50078748  0.17089395  1
  Mn  Mn82  1  0.33454457  0.49851866  0.50162775  1
  Mn  Mn83  1  0.33069543  0.50231056  0.83563404  1
  Mn  Mn84  1  0.66671746  -0.00219799  0.16435417  1
  Mn  Mn85  1  0.66759193  0.00064979  0.49913937  1
  Mn  Mn86  1  0.66715777  -0.00211935  0.82975266  1
  Mn  Mn87  1  0.66928840  0.50062074  0.16157744  1
  Mn  Mn88  1  0.66670127  0.49825581  0.49589047  1
  Mn  Mn89  1  0.66672413  0.50360713  0.82970074  1
  Mn  Mn90  1  0.00161634  0.25047581  0.16695511  1
  Mn  Mn91  1  0.00194709  0.24867198  0.50185551  1
  Mn  Mn92  1  0.00058612  0.24830879  0.83401638  1
  Mn  Mn93  1  0.00311750  0.75077097  0.16683872  1
  Mn  Mn94  1  -0.00110842  0.75142482  0.50104771  1
  Mn  Mn95  1  -0.00357906  0.75069975  0.83366437  1
  Mn  Mn96  1  0.33411091  0.24900475  0.17022127  1
  Mn  Mn97  1  0.33440441  0.24953845  0.50183797  1
  Mn  Mn98  1  0.33120097  0.24745117  0.83654640  1
  Mn  Mn99  1  0.33209960  0.75086832  0.16792774  1
  Mn  Mn100  1  0.33205877  0.74999358  0.50298569  1
  Mn  Mn101  1  0.33140721  0.74945659  0.83590467  1
  Mn  Mn102  1  0.66835568  0.25271320  0.16328862  1
  Mn  Mn103  1  0.66677606  0.25123132  0.49756137  1
  Mn  Mn104  1  0.66808958  0.25000539  0.83005178  1
  Mn  Mn105  1  0.66742842  0.74879338  0.16284551  1
  Mn  Mn106  1  0.66779266  0.74989824  0.49681557  1
  Mn  Mn107  1  0.66500533  0.74864052  0.82882858  1
  Mn  Mn108  1  0.16562400  0.24916803  0.00239341  1
  Mn  Mn109  1  0.16887939  0.24912025  0.33712894  1
  Mn  Mn110  1  0.16523401  0.24740431  0.66967406  1
  Mn  Mn111  1  0.16486586  0.75022498  0.00591972  1
  Mn  Mn112  1  0.16789764  0.75159898  0.33607023  1
  Mn  Mn113  1  0.16540109  0.75147912  0.66949580  1
  Mn  Mn114  1  0.50074552  0.24982605  -0.00005150  1
  Mn  Mn115  1  0.49962727  0.25220437  0.33269690  1
  Mn  Mn116  1  0.49986982  0.24758548  0.66563963  1
  Mn  Mn117  1  0.50014598  0.74896813  -0.00283548  1
  Mn  Mn118  1  0.49953985  0.74917944  0.33275620  1
  Mn  Mn119  1  0.49938211  0.75112400  0.66704169  1
  Mn  Mn120  1  0.83415913  0.25155087  -0.00272842  1
  Mn  Mn121  1  0.83667720  0.25191925  0.33072118  1
  Mn  Mn122  1  0.83380065  0.24848851  0.66465733  1
  Mn  Mn123  1  0.83332645  0.74906606  -0.00418081  1
  Mn  Mn124  1  0.83374046  0.74891084  0.33143948  1
  Mn  Mn125  1  0.83014079  0.75145892  0.66388402  1
  Mn  Mn126  1  0.16520200  0.00010233  0.00367579  1
  Mn  Mn127  1  0.16625029  0.00164661  0.33743864  1
  Mn  Mn128  1  0.16665048  0.00081048  0.66946448  1
  Mn  Mn129  1  0.16598441  0.50077951  0.00470115  1
  Mn  Mn130  1  0.17066612  0.49807181  0.33631530  1
  Mn  Mn131  1  0.16571700  0.50029372  0.67069751  1
  Mn  Mn132  1  0.49949203  -0.00115523  -0.00172207  1
  Mn  Mn133  1  0.49902460  -0.00163557  0.33450831  1
  Mn  Mn134  1  0.49847610  -0.00031923  0.66653617  1
  Mn  Mn135  1  0.50175903  0.50252059  -0.00034142  1
  Mn  Mn136  1  0.49913427  0.49951741  0.33189624  1
  Mn  Mn137  1  0.50128525  0.50101758  0.66562211  1
  Mn  Mn138  1  0.83388589  -0.00040227  -0.00492820  1
  Mn  Mn139  1  0.83442942  0.00027395  0.33243477  1
  Mn  Mn140  1  0.83009554  0.00136092  0.66453191  1
  Mn  Mn141  1  0.83335751  0.50048461  -0.00283053  1
  Mn  Mn142  1  0.83620982  0.49918451  0.33070868  1
  Mn  Mn143  1  0.83336002  0.49945585  0.66359345  1
  O  O144  1  0.15653726  0.12438400  0.02742483  1
  O  O145  1  0.16335368  0.12716300  0.36400680  1
  O  O146  1  0.16391124  0.12323154  0.69240077  1
  O  O147  1  0.15540199  0.62973079  0.03175192  1
  O  O148  1  0.17431764  0.62571681  0.34808324  1
  O  O149  1  0.15513858  0.62580662  0.67956802  1
  O  O150  1  0.50547913  0.12574184  0.00803540  1
  O  O151  1  0.49564381  0.12682380  0.35806854  1
  O  O152  1  0.51103009  0.12159565  0.67569273  1
  O  O153  1  0.49485363  0.62647802  0.02408560  1
  O  O154  1  0.49620499  0.62261244  0.35999578  1
  O  O155  1  0.50472418  0.62884445  0.68702436  1
  O  O156  1  0.82640030  0.12701457  0.00936739  1
  O  O157  1  0.83767826  0.12665137  0.35236112  1
  O  O158  1  0.82293774  0.12530732  0.68966799  1
  O  O159  1  0.82692789  0.62156444  0.02512737  1
  O  O160  1  0.83332942  0.62132177  0.35425139  1
  O  O161  1  0.82943297  0.62455533  0.68489030  1
  O  O162  1  0.16997960  0.37113414  0.31113280  1
  O  O163  1  0.16065834  0.37266916  0.64767994  1
  O  O164  1  0.16130744  0.37079393  0.97628312  1
  O  O165  1  0.17455779  0.87717010  0.31347346  1
  O  O166  1  0.17507224  0.87749735  0.64532754  1
  O  O167  1  0.17226183  0.87507355  0.97886310  1
  O  O168  1  0.49040390  0.37901053  0.30484298  1
  O  O169  1  0.50529349  0.37535380  0.64416728  1
  O  O170  1  0.50753003  0.37880632  0.98971379  1
  O  O171  1  0.49368312  0.87142270  0.32345236  1
  O  O172  1  0.49560454  0.87443870  0.65396608  1
  O  O173  1  0.50739389  0.87001875  0.97475392  1
  O  O174  1  0.84493739  0.37705368  0.30915565  1
  O  O175  1  0.83976011  0.37382558  0.65402988  1
  O  O176  1  0.84296698  0.37722038  0.98209844  1
  O  O177  1  0.83476737  0.87455640  0.32472481  1
  O  O178  1  0.82417356  0.87633361  0.63756924  1
  O  O179  1  0.84380654  0.87444344  0.97830302  1
  O  O180  1  -0.00209350  0.37447861  0.19255714  1
  O  O181  1  0.00635393  0.37059687  0.52759132  1
  O  O182  1  0.00258936  0.37313049  0.85760910  1
  O  O183  1  0.00485217  0.87528724  0.18690143  1
  O  O184  1  -0.00653891  0.87745151  0.51014304  1
  O  O185  1  -0.00338415  0.87595852  0.85648111  1
  O  O186  1  0.33474915  0.37669173  0.19213791  1
  O  O187  1  0.33985003  0.37424920  0.51687456  1
  O  O188  1  0.32380330  0.37605278  0.84550756  1
  O  O189  1  0.32622587  0.87477066  0.19452382  1
  O  O190  1  0.32870837  0.87888249  0.52751117  1
  O  O191  1  0.33352970  0.87120913  0.86011086  1
  O  O192  1  0.66279994  0.37929390  0.18361851  1
  O  O193  1  0.66180013  0.37491983  0.52538770  1
  O  O194  1  0.66715686  0.38181618  0.85289984  1
  O  O195  1  0.66774146  0.86942905  0.18389312  1
  O  O196  1  0.67787086  0.87422839  0.52312160  1
  O  O197  1  0.66794425  0.87023005  0.85610843  1
  O  O198  1  0.00978988  0.12795874  0.14301205  1
  O  O199  1  0.00314456  0.12581931  0.47515741  1
  O  O200  1  0.00529079  0.12472546  0.81666627  1
  O  O201  1  0.01220126  0.62375101  0.14494351  1
  O  O202  1  -0.00230811  0.62448643  0.49243338  1
  O  O203  1  -0.00421889  0.62723557  0.80797780  1
  O  O204  1  0.32590685  0.12169686  0.15002399  1
  O  O205  1  0.32709771  0.12667407  0.47653449  1
  O  O206  1  0.32340758  0.12036472  0.82124495  1
  O  O207  1  0.32519447  0.62765619  0.14265721  1
  O  O208  1  0.33656171  0.62083089  0.47885291  1
  O  O209  1  0.33488620  0.62876320  0.81119524  1
  O  O210  1  0.66879106  0.12845803  0.14492227  1
  O  O211  1  0.65567063  0.12777474  0.48465321  1
  O  O212  1  0.67343998  0.12066667  0.80805964  1
  O  O213  1  0.67133224  0.62359469  0.13985994  1
  O  O214  1  0.65864370  0.62327103  0.48516836  1
  O  O215  1  0.66260922  0.62669969  0.80103242  1
  O  O216  1  0.09061442  0.02253227  0.25083580  1
  O  O217  1  0.08766353  0.01220940  0.57802992  1
  O  O218  1  0.08282049  0.01597787  0.92243905  1
  O  O219  1  0.09351925  0.50886893  0.24535382  1
  O  O220  1  0.07474017  0.50808366  0.59463122  1
  O  O221  1  0.07307037  0.51487012  0.92550000  1
  O  O222  1  0.41250946  0.01314675  0.25407257  1
  O  O223  1  0.42019268  0.02179684  0.57688689  1
  O  O224  1  0.41649353  0.00285292  0.91529500  1
  O  O225  1  0.41648668  0.52927848  0.25230352  1
  O  O226  1  0.42109315  0.52317762  0.58057412  1
  O  O227  1  0.41805086  0.52191096  0.91818317  1
  O  O228  1  0.75209272  0.00307844  0.24981480  1
  O  O229  1  0.75400408  0.02756886  0.57528142  1
  O  O230  1  0.75762882  0.01504941  0.90348830  1
  O  O231  1  0.75691040  0.51003514  0.23607448  1
  O  O232  1  0.75119687  0.51917349  0.57745546  1
  O  O233  1  0.74882258  0.52569373  0.91201090  1
  O  O234  1  0.25121915  0.22784266  0.25899432  1
  O  O235  1  0.24696587  0.23538238  0.58444261  1
  O  O236  1  0.24483954  0.22893055  0.92227344  1
  O  O237  1  0.25882418  0.73177498  0.25909172  1
  O  O238  1  0.26300196  0.73507611  0.59702508  1
  O  O239  1  0.25828520  0.73374240  0.93401171  1
  O  O240  1  0.58256024  0.25046921  0.24949902  1
  O  O241  1  0.58352070  0.23516135  0.58042985  1
  O  O242  1  0.59364110  0.24037401  0.92148312  1
  O  O243  1  0.58196990  0.73188877  0.24173242  1
  O  O244  1  0.59001167  0.73608747  0.58738239  1
  O  O245  1  0.58787139  0.72416163  0.91394229  1
  O  O246  1  0.92768156  0.23296945  0.25436001  1
  O  O247  1  0.91456140  0.22723246  0.57966069  1
  O  O248  1  0.92055866  0.22778921  0.91875835  1
  O  O249  1  0.91892957  0.73250246  0.24461694  1
  O  O250  1  0.91768631  0.72969137  0.58868755  1
  O  O251  1  0.91623606  0.72264237  0.91731980  1
  O  O252  1  0.08242218  0.47279315  0.08439782  1
  O  O253  1  0.08741205  0.47522009  0.42052183  1
  O  O254  1  0.08415024  0.47609098  0.75641208  1
  O  O255  1  0.08330181  0.97635493  0.08367495  1
  O  O256  1  0.08170033  0.98197161  0.41506686  1
  O  O257  1  0.08537572  0.98446896  0.75755818  1
  O  O258  1  0.42255065  0.49115567  0.09413814  1
  O  O259  1  0.41781780  0.47872593  0.41608314  1
  O  O260  1  0.41828326  0.50069553  0.74704728  1
  O  O261  1  0.40677285  0.98354610  0.07833829  1
  O  O262  1  0.40512769  0.98936123  0.41209610  1
  O  O263  1  0.40902881  0.98150266  0.74830097  1
  O  O264  1  0.75112814  0.47429079  0.07730945  1
  O  O265  1  0.74405577  0.48014328  0.40798102  1
  O  O266  1  0.74546676  0.48853504  0.73962788  1
  O  O267  1  0.74364146  0.98541727  0.06728956  1
  O  O268  1  0.74781234  0.98198901  0.41496512  1
  O  O269  1  0.73706276  0.97994905  0.73602563  1
  O  O270  1  0.24107802  0.26287753  0.09372739  1
  O  O271  1  0.25008658  0.27228147  0.42062521  1
  O  O272  1  0.23900627  0.25856603  0.75992478  1
  O  O273  1  0.24179162  0.77268455  0.09496453  1
  O  O274  1  0.24331290  0.77404729  0.42472813  1
  O  O275  1  0.24497069  0.77256473  0.75975405  1
  O  O276  1  0.58665455  0.27081704  0.08197505  1
  O  O277  1  0.58166852  0.27797722  0.41456239  1
  O  O278  1  0.58693158  0.26386512  0.74312741  1
  O  O279  1  0.58502443  0.76022365  0.07574569  1
  O  O280  1  0.58595276  0.76478130  0.41442230  1
  O  O281  1  0.57511821  0.77263656  0.75530631  1
  O  O282  1  0.91598652  0.27006914  0.08465691  1
  O  O283  1  0.92574422  0.26278803  0.41283458  1
  O  O284  1  0.92063465  0.25749984  0.74653966  1
  O  O285  1  0.92314766  0.75391142  0.07877859  1
  O  O286  1  0.90833792  0.75820131  0.42635084  1
  O  O287  1  0.90262442  0.75993932  0.75440607  1
  O  O288  1  0.24345566  0.48635381  0.09912898  1
  O  O289  1  0.25057774  0.47510432  0.42257381  1
  O  O290  1  0.24220185  0.48880178  0.75761547  1
  O  O291  1  0.24385720  0.97935194  0.09081724  1
  O  O292  1  0.24393584  0.97972581  0.42577799  1
  O  O293  1  0.24759478  0.97651357  0.75715501  1
  O  O294  1  0.58911597  0.48552756  0.07742041  1
  O  O295  1  0.58119406  0.47282454  0.41246198  1
  O  O296  1  0.58708257  0.48588725  0.74277458  1
  O  O297  1  0.58414694  0.98570259  0.07793503  1
  O  O298  1  0.58592570  0.98422408  0.41589047  1
  O  O299  1  0.57826618  0.97579084  0.75589356  1
  O  O300  1  0.92098389  0.48567424  0.07978640  1
  O  O301  1  0.92617119  0.48316458  0.41288713  1
  O  O302  1  0.92490682  0.49140049  0.74162139  1
  O  O303  1  0.92078485  0.99304508  0.07483808  1
  O  O304  1  0.90867050  0.99181697  0.42402218  1
  O  O305  1  0.90455845  0.99349142  0.75406222  1
  O  O306  1  0.07975306  0.27535967  0.08275435  1
  O  O307  1  0.08719769  0.27454783  0.41888081  1
  O  O308  1  0.08122393  0.27272758  0.75159996  1
  O  O309  1  0.08229459  0.77861876  0.08319020  1
  O  O310  1  0.08214018  0.76908062  0.41573738  1
  O  O311  1  0.08162791  0.76844061  0.75733105  1
  O  O312  1  0.42358788  0.26413489  0.09180740  1
  O  O313  1  0.41945794  0.27031049  0.41760954  1
  O  O314  1  0.41586906  0.25088532  0.74632694  1
  O  O315  1  0.40271558  0.76514280  0.07200741  1
  O  O316  1  0.40214748  0.76132495  0.40944249  1
  O  O317  1  0.40791332  0.76683571  0.74432813  1
  O  O318  1  0.74917570  0.27513802  0.07552194  1
  O  O319  1  0.74535968  0.26718352  0.40854126  1
  O  O320  1  0.74300495  0.26553410  0.73820712  1
  O  O321  1  0.74346036  0.76474795  0.06626459  1
  O  O322  1  0.74568430  0.77028896  0.41183532  1
  O  O323  1  0.73573324  0.76472233  0.73425477  1
  O  O324  1  0.25222491  0.02205396  0.26001115  1
  O  O325  1  0.25244456  0.02162685  0.58825304  1
  O  O326  1  0.24571214  0.01545606  0.92087647  1
  O  O327  1  0.25808914  0.51880133  0.25817894  1
  O  O328  1  0.25485571  0.51355150  0.59265315  1
  O  O329  1  0.25260242  0.52015450  0.93157618  1
  O  O330  1  0.58500001  0.00113288  0.25305738  1
  O  O331  1  0.59120970  0.01054004  0.58654606  1
  O  O332  1  0.59684001  0.01041843  0.91987968  1
  O  O333  1  0.57769619  0.51281069  0.23982291  1
  O  O334  1  0.58250659  0.51854372  0.58073575  1
  O  O335  1  0.58444965  0.52694142  0.91307614  1
  O  O336  1  0.92659694  0.01581135  0.25770857  1
  O  O337  1  0.91565531  0.02201299  0.58370532  1
  O  O338  1  0.91911896  0.02458918  0.91690225  1
  O  O339  1  0.91667312  0.51850907  0.23932475  1
  O  O340  1  0.91358040  0.51985091  0.58086376  1
  O  O341  1  0.91342864  0.52604944  0.91352630  1
  O  O342  1  0.08826150  0.23094786  0.25286304  1
  O  O343  1  0.08558757  0.22890239  0.58306654  1
  O  O344  1  0.08479723  0.22718789  0.91793852  1
  O  O345  1  0.09685214  0.73945734  0.24196553  1
  O  O346  1  0.08232281  0.74664935  0.58375562  1
  O  O347  1  0.07802252  0.74000833  0.92734958  1
  O  O348  1  0.41080530  0.23349676  0.26039081  1
  O  O349  1  0.42220261  0.23017227  0.57698593  1
  O  O350  1  0.41507182  0.24219478  0.92129848  1
  O  O351  1  0.41956291  0.72444336  0.24244830  1
  O  O352  1  0.42331184  0.72573781  0.58037993  1
  O  O353  1  0.42334064  0.72720611  0.90896153  1
  O  O354  1  0.75422119  0.25449989  0.24174013  1
  O  O355  1  0.75120869  0.22859998  0.57680875  1
  O  O356  1  0.75380116  0.23343989  0.90933389  1
  O  O357  1  0.75683068  0.73253933  0.23859315  1
  O  O358  1  0.75620455  0.72485480  0.57273881  1
  O  O359  1  0.75229577  0.72533454  0.90390426  1
