# generated using pymatgen
data_Ba17Sr5La8Pr42Mn72O216
_symmetry_space_group_name_H-M   'P 1'
_cell_length_a   16.67367948
_cell_length_b   15.69930711
_cell_length_c   16.81971971
_cell_angle_alpha   90.01322260
_cell_angle_beta   90.00021552
_cell_angle_gamma   89.99029464
_symmetry_Int_Tables_number   1
_chemical_formula_structural   Ba17Sr5La8Pr42Mn72O216
_chemical_formula_sum   'Ba17 Sr5 La8 Pr42 Mn72 O216'
_cell_volume   4402.81735959
_cell_formula_units_Z   1
loop_
 _symmetry_equiv_pos_site_id
 _symmetry_equiv_pos_as_xyz
  1  'x, y, z'
loop_
 _atom_site_type_symbol
 _atom_site_label
 _atom_site_symmetry_multiplicity
 _atom_site_fract_x
 _atom_site_fract_y
 _atom_site_fract_z
 _atom_site_occupancy
  Ba  Ba0  1  0.66743989  0.87303764  0.66654357  1
  Ba  Ba1  1  0.83791729  0.12489375  0.83349695  1
  Ba  Ba2  1  0.83252584  0.37364155  0.83384728  1
  Ba  Ba3  1  0.83263158  0.87396790  0.49774884  1
  Ba  Ba4  1  0.66455622  0.37567160  0.33071630  1
  Ba  Ba5  1  -0.00053802  0.87353790  0.33619543  1
  Ba  Ba6  1  0.33293396  0.37766532  0.00004790  1
  Ba  Ba7  1  0.50171953  0.12292490  0.16703843  1
  Ba  Ba8  1  0.16889986  0.12469757  0.50214839  1
  Ba  Ba9  1  0.33298359  0.62722817  0.99643596  1
  Ba  Ba10  1  0.66575777  0.62505433  0.66579025  1
  Ba  Ba11  1  0.16721891  0.12284324  0.16696425  1
  Ba  Ba12  1  0.33526299  0.12388374  0.66652366  1
  Ba  Ba13  1  -0.00105012  0.37591972  0.33272126  1
  Ba  Ba14  1  0.16805177  0.37781573  0.83616626  1
  Ba  Ba15  1  0.33318743  0.37658163  0.33015838  1
  Ba  Ba16  1  0.83034199  0.62667587  0.16403208  1
  Sr  Sr17  1  0.16150399  0.62633142  0.83860953  1
  Sr  Sr18  1  0.17003451  0.87011572  0.83196729  1
  Sr  Sr19  1  0.82915971  0.37837828  0.16288321  1
  Sr  Sr20  1  0.50514435  0.12241482  0.83623390  1
  Sr  Sr21  1  0.83091145  0.87277208  0.16765384  1
  La  La22  1  0.00180382  0.37396179  0.66983138  1
  La  La23  1  0.67289208  0.12610148  0.66586392  1
  La  La24  1  0.50341657  0.62744822  0.83560986  1
  La  La25  1  0.83546654  0.12574922  0.16777787  1
  La  La26  1  0.50289609  0.12752764  0.50246626  1
  La  La27  1  0.16596838  0.37517463  0.16175735  1
  La  La28  1  0.16220979  0.62352535  0.16698670  1
  La  La29  1  0.00420033  0.12482105  0.99995731  1
  Pr  Pr30  1  0.49583375  0.87369449  0.82844863  1
  Pr  Pr31  1  0.83636191  0.87466778  0.82531912  1
  Pr  Pr32  1  0.82948711  0.37792964  0.49472957  1
  Pr  Pr33  1  0.00350474  0.87548765  0.66988328  1
  Pr  Pr34  1  0.66550954  0.87570944  0.33692685  1
  Pr  Pr35  1  0.17112420  0.12376671  0.83701321  1
  Pr  Pr36  1  0.49685510  0.62114081  0.50170669  1
  Pr  Pr37  1  0.84275158  0.12626421  0.50142648  1
  Pr  Pr38  1  0.33746702  0.12495713  0.99103991  1
  Pr  Pr39  1  0.66521597  0.37041614  0.00639421  1
  Pr  Pr40  1  0.00174087  0.12137278  0.33166806  1
  Pr  Pr41  1  0.67439884  0.12448339  0.33189130  1
  Pr  Pr42  1  0.33366781  0.87782715  0.66745912  1
  Pr  Pr43  1  0.17274776  0.37291609  0.49983878  1
  Pr  Pr44  1  0.15860581  0.62241367  0.50101344  1
  Pr  Pr45  1  0.49639082  0.62445990  0.16805137  1
  Pr  Pr46  1  -0.00738191  0.62580952  0.99795090  1
  Pr  Pr47  1  0.00078167  0.87585854  0.00329976  1
  Pr  Pr48  1  0.33384924  0.87563125  -0.00127376  1
  Pr  Pr49  1  0.49698859  0.37367196  0.16105296  1
  Pr  Pr50  1  0.67418591  0.12557786  0.99766531  1
  Pr  Pr51  1  0.50050680  0.87293911  0.50005660  1
  Pr  Pr52  1  -0.00103453  0.37360724  0.00746669  1
  Pr  Pr53  1  0.49608014  0.37574592  0.83370058  1
  Pr  Pr54  1  0.67027212  0.62355230  0.99641604  1
  Pr  Pr55  1  0.83020808  0.62619289  0.83623576  1
  Pr  Pr56  1  0.83423672  0.62394937  0.49663206  1
  Pr  Pr57  1  0.16552146  0.87482199  0.16359237  1
  Pr  Pr58  1  -0.00932712  0.62753030  0.32954375  1
  Pr  Pr59  1  -0.00423803  0.62145831  0.67060861  1
  Pr  Pr60  1  0.32617117  0.62649758  0.66621047  1
  Pr  Pr61  1  0.33198789  0.37218054  0.67020749  1
  Pr  Pr62  1  0.49551104  0.37701129  0.49960089  1
  Pr  Pr63  1  0.33362783  0.87866371  0.33187784  1
  Pr  Pr64  1  0.49881918  0.87485509  0.16472646  1
  Pr  Pr65  1  0.66650626  0.87903877  -0.00001810  1
  Pr  Pr66  1  0.00422488  0.12841756  0.66744751  1
  Pr  Pr67  1  0.66169040  0.37510434  0.66874087  1
  Pr  Pr68  1  0.32905658  0.62834480  0.32621987  1
  Pr  Pr69  1  0.66440731  0.62767129  0.33017283  1
  Pr  Pr70  1  0.33525836  0.12535347  0.33031967  1
  Pr  Pr71  1  0.17161679  0.87449117  0.49881825  1
  Mn  Mn72  1  -0.00184209  -0.00221953  0.16703356  1
  Mn  Mn73  1  0.00230704  -0.00037863  0.50252711  1
  Mn  Mn74  1  0.00416404  -0.00152780  0.83475827  1
  Mn  Mn75  1  -0.00058218  0.50156257  0.16701539  1
  Mn  Mn76  1  -0.00072603  0.50004522  0.50157032  1
  Mn  Mn77  1  -0.00101965  0.49989209  0.83471428  1
  Mn  Mn78  1  0.33380987  -0.00159852  0.16478969  1
  Mn  Mn79  1  0.33620412  -0.00325464  0.49924044  1
  Mn  Mn80  1  0.33419357  -0.00241795  0.83279439  1
  Mn  Mn81  1  0.33240838  0.50317639  0.16626903  1
  Mn  Mn82  1  0.33181996  0.50372088  0.49957467  1
  Mn  Mn83  1  0.33405774  0.50143406  0.83084580  1
  Mn  Mn84  1  0.66760539  -0.00181648  0.16774318  1
  Mn  Mn85  1  0.66591650  0.00174366  0.49895227  1
  Mn  Mn86  1  0.66804040  0.00035145  0.83420323  1
  Mn  Mn87  1  0.66344311  0.50180390  0.16488179  1
  Mn  Mn88  1  0.66510582  0.50043232  0.49907442  1
  Mn  Mn89  1  0.66564075  0.49822492  0.83369579  1
  Mn  Mn90  1  -0.00179423  0.24837290  0.16855676  1
  Mn  Mn91  1  0.00094006  0.25253898  0.50108856  1
  Mn  Mn92  1  0.00298328  0.25033871  0.83497575  1
  Mn  Mn93  1  -0.00027078  0.75133816  0.16631436  1
  Mn  Mn94  1  0.00105776  0.74654018  0.50235756  1
  Mn  Mn95  1  -0.00002414  0.75097383  0.83428899  1
  Mn  Mn96  1  0.33335063  0.24805911  0.16568418  1
  Mn  Mn97  1  0.33565292  0.25069596  0.49962447  1
  Mn  Mn98  1  0.33509380  0.25001591  0.83267045  1
  Mn  Mn99  1  0.33215097  0.75174825  0.16472690  1
  Mn  Mn100  1  0.33251151  0.74791290  0.49707905  1
  Mn  Mn101  1  0.33326672  0.74989841  0.83081566  1
  Mn  Mn102  1  0.66653246  0.24824232  0.16745057  1
  Mn  Mn103  1  0.66721011  0.25081592  0.50025367  1
  Mn  Mn104  1  0.66541824  0.25074539  0.83442341  1
  Mn  Mn105  1  0.66364424  0.75211083  0.16523564  1
  Mn  Mn106  1  0.66437208  0.74851664  0.49759335  1
  Mn  Mn107  1  0.66763478  0.75069185  0.83518291  1
  Mn  Mn108  1  0.16715372  0.24821046  0.00096300  1
  Mn  Mn109  1  0.16688716  0.25045918  0.33367057  1
  Mn  Mn110  1  0.16753049  0.25138253  0.66824645  1
  Mn  Mn111  1  0.16446681  0.75205414  -0.00098964  1
  Mn  Mn112  1  0.16684925  0.74916010  0.33440488  1
  Mn  Mn113  1  0.16516550  0.74767457  0.66612196  1
  Mn  Mn114  1  0.50089746  0.24754284  -0.00074307  1
  Mn  Mn115  1  0.49981069  0.25024503  0.33517080  1
  Mn  Mn116  1  0.50226957  0.24988970  0.66806526  1
  Mn  Mn117  1  0.50327240  0.75252091  -0.00046852  1
  Mn  Mn118  1  0.49855920  0.75025955  0.33313224  1
  Mn  Mn119  1  0.49670956  0.74844509  0.66535711  1
  Mn  Mn120  1  0.83459983  0.24987239  0.00294364  1
  Mn  Mn121  1  0.83316219  0.25079117  0.33448461  1
  Mn  Mn122  1  0.83411044  0.25056873  0.66319045  1
  Mn  Mn123  1  0.83221025  0.75328892  -0.00297414  1
  Mn  Mn124  1  0.83012576  0.75012616  0.33192777  1
  Mn  Mn125  1  0.83563473  0.74795514  0.66581275  1
  Mn  Mn126  1  0.16795026  -0.00263556  -0.00125836  1
  Mn  Mn127  1  0.16747788  -0.00139745  0.33423983  1
  Mn  Mn128  1  0.16609827  -0.00329027  0.66912473  1
  Mn  Mn129  1  0.16369211  0.50326859  0.00084943  1
  Mn  Mn130  1  0.16591202  0.50085983  0.33522982  1
  Mn  Mn131  1  0.16641048  0.50354375  0.66696826  1
  Mn  Mn132  1  0.50140789  -0.00127028  -0.00114524  1
  Mn  Mn133  1  0.50009841  -0.00094375  0.33550709  1
  Mn  Mn134  1  0.50275778  0.00058837  0.66697437  1
  Mn  Mn135  1  0.50240094  0.50194526  -0.00000768  1
  Mn  Mn136  1  0.49846319  0.50131379  0.33354578  1
  Mn  Mn137  1  0.49688076  0.50078353  0.66714366  1
  Mn  Mn138  1  0.83494859  -0.00277601  0.00066729  1
  Mn  Mn139  1  0.83243107  0.00111483  0.33345763  1
  Mn  Mn140  1  0.83600105  0.00065629  0.66554642  1
  Mn  Mn141  1  0.83249452  0.49976466  -0.00145511  1
  Mn  Mn142  1  0.83076948  0.49928265  0.33151575  1
  Mn  Mn143  1  0.83294366  0.49963607  0.66470079  1
  O  O144  1  0.17688425  0.12095137  0.01006058  1
  O  O145  1  0.16582673  0.12211848  0.34627924  1
  O  O146  1  0.16092433  0.12058087  0.69135413  1
  O  O147  1  0.16075841  0.63006698  0.02133982  1
  O  O148  1  0.17601577  0.62582361  0.35902339  1
  O  O149  1  0.17313779  0.62633430  0.68949804  1
  O  O150  1  0.49231666  0.12108305  0.01143755  1
  O  O151  1  0.49148600  0.11994221  0.35957008  1
  O  O152  1  0.50809167  0.12809139  0.68470731  1
  O  O153  1  0.50898930  0.63095076  0.02462082  1
  O  O154  1  0.49948588  0.62748269  0.35867424  1
  O  O155  1  0.49424044  0.62408914  0.69163319  1
  O  O156  1  0.83346768  0.12170365  0.02254762  1
  O  O157  1  0.82792798  0.12660840  0.35624537  1
  O  O158  1  0.83171128  0.12680934  0.67781524  1
  O  O159  1  0.83275278  0.62716027  0.00909698  1
  O  O160  1  0.83261963  0.62372203  0.34942335  1
  O  O161  1  0.83992599  0.62340897  0.69296736  1
  O  O162  1  0.16559355  0.37911717  0.30684459  1
  O  O163  1  0.16661619  0.38255049  0.64430655  1
  O  O164  1  0.15391750  0.37469381  0.99497363  1
  O  O165  1  0.17127734  0.87286929  0.30836337  1
  O  O166  1  0.15996529  0.86942675  0.64144974  1
  O  O167  1  0.15396975  0.87516667  0.97945939  1
  O  O168  1  0.49929008  0.38086993  0.30485197  1
  O  O169  1  0.49862160  0.37640703  0.64290274  1
  O  O170  1  0.50876226  0.37319593  0.97877150  1
  O  O171  1  0.50210568  0.87304217  0.30735485  1
  O  O172  1  0.49378302  0.87236256  0.64456901  1
  O  O173  1  0.50667725  0.87544058  0.97141861  1
  O  O174  1  0.83237186  0.37494330  0.31553009  1
  O  O175  1  0.83542486  0.37440727  0.63852477  1
  O  O176  1  0.83403794  0.37588115  0.99188441  1
  O  O177  1  0.82327128  0.87556459  0.31986128  1
  O  O178  1  0.84243466  0.87453760  0.65390855  1
  O  O179  1  0.83206662  0.87497794  0.97020791  1
  O  O180  1  0.00665643  0.37521908  0.17343922  1
  O  O181  1  -0.00965539  0.37767482  0.52664979  1
  O  O182  1  0.00061700  0.37775149  0.85971986  1
  O  O183  1  0.00737922  0.87482250  0.17889551  1
  O  O184  1  0.00509436  0.86850541  0.52509800  1
  O  O185  1  -0.00577557  0.87418422  0.85939304  1
  O  O186  1  0.33653535  0.38042283  0.17434207  1
  O  O187  1  0.33628215  0.38321241  0.52526190  1
  O  O188  1  0.34026987  0.37629030  0.84258059  1
  O  O189  1  0.33503312  0.87352952  0.18892535  1
  O  O190  1  0.33448508  0.86931140  0.52465100  1
  O  O191  1  0.34010805  0.87353259  0.85369349  1
  O  O192  1  0.66365525  0.37509817  0.17471206  1
  O  O193  1  0.67407404  0.37516309  0.52438875  1
  O  O194  1  0.65927698  0.37630913  0.86050029  1
  O  O195  1  0.66148896  0.87521481  0.19395922  1
  O  O196  1  0.66153027  0.87395303  0.50970954  1
  O  O197  1  0.67370698  0.87505468  0.85567181  1
  O  O198  1  -0.00860909  0.12081769  0.14564866  1
  O  O199  1  -0.00104434  0.13086278  0.47625999  1
  O  O200  1  0.00909743  0.12102973  0.81093269  1
  O  O201  1  0.00419294  0.62822859  0.14404867  1
  O  O202  1  0.00733431  0.62209433  0.47307748  1
  O  O203  1  -0.00508347  0.62611546  0.81366127  1
  O  O204  1  0.33371305  0.11724877  0.13754006  1
  O  O205  1  0.34055625  0.11944909  0.47602101  1
  O  O206  1  0.32643755  0.12168846  0.82479559  1
  O  O207  1  0.33523114  0.62951813  0.15223148  1
  O  O208  1  0.33618274  0.62698148  0.46807105  1
  O  O209  1  0.34060923  0.62679860  0.81073313  1
  O  O210  1  0.67141072  0.12075993  0.14229915  1
  O  O211  1  0.65641998  0.12704073  0.47545501  1
  O  O212  1  0.66385639  0.12513832  0.81109410  1
  O  O213  1  0.65482722  0.62904525  0.13902998  1
  O  O214  1  0.65539184  0.62481387  0.47615478  1
  O  O215  1  0.66637273  0.62381119  0.82104364  1
  O  O216  1  0.07884184  0.01182633  0.25592792  1
  O  O217  1  0.07780311  0.01385185  0.59475616  1
  O  O218  1  0.08957539  0.02182400  0.91395593  1
  O  O219  1  0.08131554  0.52584270  0.25528340  1
  O  O220  1  0.07884797  0.52198020  0.58850659  1
  O  O221  1  0.07411461  0.51970842  0.92488608  1
  O  O222  1  0.41645131  0.01142035  0.25496396  1
  O  O223  1  0.42627565  0.01029557  0.57375573  1
  O  O224  1  0.41706368  0.01105684  0.91555652  1
  O  O225  1  0.41350459  0.52534644  0.25358414  1
  O  O226  1  0.41006286  0.52613997  0.58534412  1
  O  O227  1  0.42674311  0.51356646  0.91119224  1
  O  O228  1  0.75444729  0.02127794  0.24514912  1
  O  O229  1  0.75258247  0.02102753  0.57426183  1
  O  O230  1  0.74952775  0.01659019  0.92083781  1
  O  O231  1  0.73966667  0.51810552  0.25112517  1
  O  O232  1  0.75509453  0.51763417  0.57590681  1
  O  O233  1  0.75066776  0.51789771  0.91298368  1
  O  O234  1  0.25566580  0.23431801  0.25435427  1
  O  O235  1  0.25427789  0.24857880  0.58544403  1
  O  O236  1  0.25400959  0.23495312  0.91975222  1
  O  O237  1  0.24307382  0.73131140  0.24663224  1
  O  O238  1  0.24349148  0.72890327  0.57129382  1
  O  O239  1  0.24569293  0.74316805  0.91082165  1
  O  O240  1  0.58938872  0.23094512  0.26061708  1
  O  O241  1  0.59513752  0.23697494  0.59444190  1
  O  O242  1  0.58957284  0.22956550  0.92578898  1
  O  O243  1  0.57668125  0.72718728  0.24870589  1
  O  O244  1  0.57242956  0.73640921  0.57448113  1
  O  O245  1  0.58954999  0.73193543  0.92335041  1
  O  O246  1  0.91809432  0.22587390  0.25705401  1
  O  O247  1  0.92096263  0.22795618  0.58556747  1
  O  O248  1  0.92794269  0.23765054  0.92963913  1
  O  O249  1  0.91567426  0.73905898  0.25073324  1
  O  O250  1  0.91749337  0.72202421  0.58191005  1
  O  O251  1  0.91068585  0.73122231  0.90846955  1
  O  O252  1  0.08503110  0.48860816  0.09056949  1
  O  O253  1  0.08880783  0.48175888  0.42927562  1
  O  O254  1  0.08062427  0.49056294  0.74908107  1
  O  O255  1  0.08197260  0.98535628  0.07908383  1
  O  O256  1  0.09023289  0.98233610  0.42602367  1
  O  O257  1  0.08370804  0.97418464  0.75230666  1
  O  O258  1  0.42506847  0.49261853  0.08999791  1
  O  O259  1  0.42189971  0.48715677  0.42499914  1
  O  O260  1  0.41855612  0.47810248  0.74772245  1
  O  O261  1  0.41625575  0.97215089  0.07916579  1
  O  O262  1  0.41533345  0.97097996  0.41414763  1
  O  O263  1  0.41471906  0.98015443  0.74761989  1
  O  O264  1  0.74359996  0.49021047  0.07649596  1
  O  O265  1  0.75226759  0.49127655  0.41883392  1
  O  O266  1  0.74294400  0.48141721  0.74313186  1
  O  O267  1  0.74486507  0.97830204  0.08065160  1
  O  O268  1  0.73731681  0.99162680  0.40520594  1
  O  O269  1  0.75449905  0.98703073  0.75184425  1
  O  O270  1  0.24186760  0.26484473  0.08927459  1
  O  O271  1  0.24814484  0.26483699  0.42149052  1
  O  O272  1  0.25190885  0.26269652  0.74813823  1
  O  O273  1  0.25017586  0.77591493  0.07786815  1
  O  O274  1  0.25668999  0.77449501  0.40987592  1
  O  O275  1  0.25617509  0.76721318  0.73547122  1
  O  O276  1  0.58061691  0.26636026  0.08666327  1
  O  O277  1  0.57489649  0.26816510  0.43188941  1
  O  O278  1  0.57805818  0.27638498  0.75412734  1
  O  O279  1  0.58196655  0.78052126  0.08415762  1
  O  O280  1  0.58252013  0.77062964  0.41054600  1
  O  O281  1  0.57848026  0.76292131  0.76096344  1
  O  O282  1  0.91132743  0.26392083  0.09091814  1
  O  O283  1  0.90866115  0.26441870  0.42650190  1
  O  O284  1  0.91972500  0.26243233  0.74523363  1
  O  O285  1  0.92101502  0.76589598  0.07088056  1
  O  O286  1  0.91829244  0.74942273  0.41797111  1
  O  O287  1  0.92360533  0.77036274  0.74824421  1
  O  O288  1  0.24407097  0.49370961  0.08960951  1
  O  O289  1  0.24698233  0.48248201  0.42183352  1
  O  O290  1  0.25934146  0.48844695  0.73660823  1
  O  O291  1  0.24725215  0.97043443  0.08192700  1
  O  O292  1  0.25288557  0.97617634  0.41661685  1
  O  O293  1  0.25066128  0.97833888  0.74910149  1
  O  O294  1  0.58210457  0.47767478  0.08298494  1
  O  O295  1  0.57872454  0.48415533  0.42004333  1
  O  O296  1  0.57993476  0.47884888  0.75329320  1
  O  O297  1  0.58062499  0.97708430  0.08895120  1
  O  O298  1  0.57523854  0.97965666  0.42337575  1
  O  O299  1  0.57854764  0.98215654  0.76024204  1
  O  O300  1  0.92214555  0.48954538  0.07682502  1
  O  O301  1  0.91239487  0.49075036  0.42368779  1
  O  O302  1  0.92165637  0.48350780  0.74335236  1
  O  O303  1  0.91405394  0.97718941  0.08362808  1
  O  O304  1  0.91578897  0.99828452  0.41759051  1
  O  O305  1  0.92206774  0.98107134  0.75309294  1
  O  O306  1  0.07489817  0.25558487  0.07660672  1
  O  O307  1  0.08658122  0.27139466  0.42529951  1
  O  O308  1  0.08011540  0.26576731  0.74649574  1
  O  O309  1  0.08947931  0.76888810  0.08986652  1
  O  O310  1  0.09532623  0.76215642  0.42884905  1
  O  O311  1  0.08302370  0.76623005  0.75356338  1
  O  O312  1  0.41955332  0.26359525  0.08375185  1
  O  O313  1  0.41854852  0.26725473  0.41821573  1
  O  O314  1  0.41650624  0.26896754  0.74528081  1
  O  O315  1  0.41969535  0.77430854  0.07926551  1
  O  O316  1  0.41958259  0.77363565  0.41783824  1
  O  O317  1  0.41546595  0.77191226  0.74712227  1
  O  O318  1  0.74427850  0.26027565  0.07835966  1
  O  O319  1  0.74831834  0.26295646  0.41653587  1
  O  O320  1  0.74095339  0.26557547  0.73641777  1
  O  O321  1  0.74722202  0.77036177  0.07803155  1
  O  O322  1  0.74268726  0.75459284  0.41048201  1
  O  O323  1  0.75815043  0.76096481  0.75747429  1
  O  O324  1  0.25704784  0.01127246  0.25609127  1
  O  O325  1  0.25178369  0.00002210  0.58453883  1
  O  O326  1  0.25577563  0.00836521  0.92111389  1
  O  O327  1  0.24884491  0.52230602  0.24941650  1
  O  O328  1  0.24624889  0.52605505  0.57767643  1
  O  O329  1  0.24663146  0.51252950  0.91159146  1
  O  O330  1  0.59328119  0.01472043  0.26354796  1
  O  O331  1  0.59019356  0.01979762  0.58710577  1
  O  O332  1  0.59199529  0.01592478  0.92712931  1
  O  O333  1  0.57784353  0.52568782  0.24766790  1
  O  O334  1  0.57445946  0.51093299  0.58005748  1
  O  O335  1  0.58654038  0.52277913  0.91981093  1
  O  O336  1  0.91517081  0.02022433  0.25350557  1
  O  O337  1  0.92080995  0.02219244  0.58473388  1
  O  O338  1  0.92905643  0.01372175  0.92489946  1
  O  O339  1  0.91889921  0.51550017  0.25150578  1
  O  O340  1  0.91717442  0.52693010  0.58119603  1
  O  O341  1  0.91339528  0.52117982  0.91290006  1
  O  O342  1  0.07827928  0.23466026  0.25290185  1
  O  O343  1  0.07994781  0.24032062  0.58926893  1
  O  O344  1  0.09072169  0.22639832  0.91441969  1
  O  O345  1  0.08121326  0.72619146  0.25961157  1
  O  O346  1  0.07834154  0.72157069  0.59041177  1
  O  O347  1  0.07203987  0.73386218  0.92578562  1
  O  O348  1  0.41443984  0.23312769  0.25179206  1
  O  O349  1  0.42865861  0.23827242  0.57678519  1
  O  O350  1  0.41980598  0.23607207  0.91388775  1
  O  O351  1  0.41497121  0.73225199  0.25318863  1
  O  O352  1  0.40864028  0.72380896  0.58173328  1
  O  O353  1  0.42835963  0.73782341  0.91113245  1
  O  O354  1  0.75304721  0.22870277  0.24673606  1
  O  O355  1  0.75592105  0.22891237  0.57424166  1
  O  O356  1  0.75089371  0.23660510  0.91963718  1
  O  O357  1  0.73921910  0.73544217  0.25194179  1
  O  O358  1  0.75254309  0.73246433  0.57586420  1
  O  O359  1  0.74882709  0.73019587  0.91719713  1
