# generated using pymatgen
data_Ba17Sr5La8Pr42Mn72O216
_symmetry_space_group_name_H-M   'P 1'
_cell_length_a   16.67770982
_cell_length_b   15.70518190
_cell_length_c   16.82285815
_cell_angle_alpha   89.99999759
_cell_angle_beta   89.98024774
_cell_angle_gamma   90.01849237
_symmetry_Int_Tables_number   1
_chemical_formula_structural   Ba17Sr5La8Pr42Mn72O216
_chemical_formula_sum   'Ba17 Sr5 La8 Pr42 Mn72 O216'
_cell_volume   4406.35129830
_cell_formula_units_Z   1
loop_
 _symmetry_equiv_pos_site_id
 _symmetry_equiv_pos_as_xyz
  1  'x, y, z'
loop_
 _atom_site_type_symbol
 _atom_site_label
 _atom_site_symmetry_multiplicity
 _atom_site_fract_x
 _atom_site_fract_y
 _atom_site_fract_z
 _atom_site_occupancy
  Ba  Ba0  1  0.33378325  0.87764791  0.66605629  1
  Ba  Ba1  1  0.16533732  0.87419402  0.16599034  1
  Ba  Ba2  1  0.50167534  0.62734103  0.83183153  1
  Ba  Ba3  1  0.16935538  0.62395143  0.50123719  1
  Ba  Ba4  1  0.83519924  0.12667519  0.16802516  1
  Ba  Ba5  1  -0.00146582  0.12666477  0.66495076  1
  Ba  Ba6  1  0.33627115  0.12497108  0.66297698  1
  Ba  Ba7  1  0.16444842  0.87570668  0.49778537  1
  Ba  Ba8  1  0.33400789  0.62224835  0.33354209  1
  Ba  Ba9  1  0.16724091  0.12469789  0.49948749  1
  Ba  Ba10  1  0.16346269  0.37600131  0.16512209  1
  Ba  Ba11  1  0.83298755  0.62538364  0.50137732  1
  Ba  Ba12  1  0.33577804  0.12719590  0.33223534  1
  Ba  Ba13  1  0.16611392  0.62428727  0.83426425  1
  Ba  Ba14  1  0.66537145  0.87561805  0.33454638  1
  Ba  Ba15  1  0.49908752  0.87507061  0.16702263  1
  Ba  Ba16  1  0.67004508  0.62488927  0.33545516  1
  Sr  Sr17  1  0.16987926  0.62401666  0.16853709  1
  Sr  Sr18  1  -0.00501435  0.37608369  0.66691325  1
  Sr  Sr19  1  0.00623577  0.62573103  1.00113370  1
  Sr  Sr20  1  0.49981985  0.87453868  0.83217626  1
  Sr  Sr21  1  -0.00145088  0.87496302  0.33294690  1
  La  La22  1  0.83046256  0.87323790  0.16676427  1
  La  La23  1  0.50262880  0.62580590  0.16806292  1
  La  La24  1  0.66423429  0.37828918  0.67075481  1
  La  La25  1  0.49481234  0.37424330  0.49684579  1
  La  La26  1  0.00477799  0.62381524  0.66313461  1
  La  La27  1  0.32659847  0.37919355  -0.00163088  1
  La  La28  1  0.65938238  0.37494077  0.00231335  1
  La  La29  1  0.67117886  0.11961281  0.99867688  1
  Pr  Pr30  1  0.17261111  0.12646486  0.17031932  1
  Pr  Pr31  1  0.66960152  0.12326163  0.33111828  1
  Pr  Pr32  1  -0.00843086  0.37958738  0.00282743  1
  Pr  Pr33  1  0.50477268  0.12504436  0.16913717  1
  Pr  Pr34  1  0.67078326  0.62795701  1.00080154  1
  Pr  Pr35  1  -0.00565958  0.86942968  0.00447202  1
  Pr  Pr36  1  0.83401581  0.87746572  0.83327068  1
  Pr  Pr37  1  0.33879915  0.12436910  0.99904448  1
  Pr  Pr38  1  0.50622883  0.62818755  0.50406265  1
  Pr  Pr39  1  0.32006755  0.37417816  0.66849661  1
  Pr  Pr40  1  0.32929931  0.87067418  0.00060849  1
  Pr  Pr41  1  0.66801672  0.87247954  0.66856116  1
  Pr  Pr42  1  0.83485286  0.87675594  0.49701139  1
  Pr  Pr43  1  0.82747154  0.37628237  0.16638563  1
  Pr  Pr44  1  0.33291905  0.62626542  1.00040102  1
  Pr  Pr45  1  0.17697057  0.12562883  0.83129511  1
  Pr  Pr46  1  0.32898485  0.87267557  0.33731869  1
  Pr  Pr47  1  0.00757520  0.12233744  0.32946975  1
  Pr  Pr48  1  0.16385378  0.87449505  0.82884261  1
  Pr  Pr49  1  0.49071237  0.37519716  0.82681883  1
  Pr  Pr50  1  0.66817273  0.12415353  0.66863118  1
  Pr  Pr51  1  0.49401163  0.87591944  0.49410474  1
  Pr  Pr52  1  0.15351712  0.37462777  0.83209784  1
  Pr  Pr53  1  0.65880282  0.87281239  0.00573692  1
  Pr  Pr54  1  0.82751715  0.37243440  0.83164517  1
  Pr  Pr55  1  0.00562607  0.62775591  0.33076009  1
  Pr  Pr56  1  0.34229224  0.62809615  0.65976068  1
  Pr  Pr57  1  0.01095298  0.12431325  0.99506170  1
  Pr  Pr58  1  0.49316899  0.37642063  0.16533822  1
  Pr  Pr59  1  0.83932703  0.62463231  0.17484876  1
  Pr  Pr60  1  0.32140131  0.37573938  0.33422519  1
  Pr  Pr61  1  0.66689024  0.37210760  0.33777183  1
  Pr  Pr62  1  0.67145938  0.62536010  0.66455443  1
  Pr  Pr63  1  0.50339445  0.12238994  0.50186766  1
  Pr  Pr64  1  0.83109051  0.12232721  0.50171196  1
  Pr  Pr65  1  -0.00582922  0.37551454  0.33419590  1
  Pr  Pr66  1  0.00259160  0.87351031  0.66474703  1
  Pr  Pr67  1  0.84008368  0.12703045  0.84017091  1
  Pr  Pr68  1  0.83286114  0.37449674  0.50294367  1
  Pr  Pr69  1  0.50234129  0.12119346  0.83316696  1
  Pr  Pr70  1  0.83677891  0.62244332  0.83698491  1
  Pr  Pr71  1  0.15590385  0.37070452  0.49725495  1
  Mn  Mn72  1  -0.00061221  0.00007734  0.16343552  1
  Mn  Mn73  1  -0.00285503  0.00043053  0.49808859  1
  Mn  Mn74  1  0.00108442  0.00001741  0.83376976  1
  Mn  Mn75  1  -0.00148783  0.49984096  0.16703490  1
  Mn  Mn76  1  -0.00153343  0.49901914  0.50115184  1
  Mn  Mn77  1  -0.00334628  0.49987944  0.83502318  1
  Mn  Mn78  1  0.33443560  -0.00024011  0.16438454  1
  Mn  Mn79  1  0.33413043  0.00120762  0.49798563  1
  Mn  Mn80  1  0.33475681  0.00104412  0.83492007  1
  Mn  Mn81  1  0.33402474  0.49902729  0.16559782  1
  Mn  Mn82  1  0.33544707  0.49752013  0.50149284  1
  Mn  Mn83  1  0.33163471  0.49980206  0.83175874  1
  Mn  Mn84  1  0.66777519  0.00098777  0.16588489  1
  Mn  Mn85  1  0.66617893  0.00116540  0.50228726  1
  Mn  Mn86  1  0.66883459  -0.00167357  0.83335550  1
  Mn  Mn87  1  0.66623349  0.49806048  0.16690660  1
  Mn  Mn88  1  0.66665832  0.49756770  0.50331628  1
  Mn  Mn89  1  0.66588519  0.50085033  0.83656392  1
  Mn  Mn90  1  -0.00150992  0.25009556  0.16410451  1
  Mn  Mn91  1  -0.00466560  0.25094123  0.49866540  1
  Mn  Mn92  1  -0.00093917  0.24908406  0.83443536  1
  Mn  Mn93  1  -0.00007952  0.74938356  0.16657747  1
  Mn  Mn94  1  -0.00133907  0.74951769  0.49948147  1
  Mn  Mn95  1  -0.00157776  0.75163301  0.83450261  1
  Mn  Mn96  1  0.33508757  0.25153793  0.16301372  1
  Mn  Mn97  1  0.33496656  0.25223071  0.50017731  1
  Mn  Mn98  1  0.33385530  0.25029361  0.83306879  1
  Mn  Mn99  1  0.33375922  0.74970931  0.16667294  1
  Mn  Mn100  1  0.33521332  0.74911773  0.49872982  1
  Mn  Mn101  1  0.33349248  0.74999909  0.83286304  1
  Mn  Mn102  1  0.66503772  0.25147495  0.16779897  1
  Mn  Mn103  1  0.66735000  0.24992452  0.50275346  1
  Mn  Mn104  1  0.66530254  0.24952775  0.83566950  1
  Mn  Mn105  1  0.66813099  0.74873930  0.16559044  1
  Mn  Mn106  1  0.66648872  0.75130010  0.50350933  1
  Mn  Mn107  1  0.66977168  0.75080214  0.83497471  1
  Mn  Mn108  1  0.16672666  0.24928445  -0.00128237  1
  Mn  Mn109  1  0.16461650  0.25063969  0.33113723  1
  Mn  Mn110  1  0.16351370  0.25189205  0.66587376  1
  Mn  Mn111  1  0.16653664  0.74924801  -0.00124109  1
  Mn  Mn112  1  0.16615543  0.74887097  0.33171479  1
  Mn  Mn113  1  0.16750835  0.75012482  0.66822247  1
  Mn  Mn114  1  0.50000274  0.25085471  -0.00182822  1
  Mn  Mn115  1  0.50158610  0.25154310  0.33207681  1
  Mn  Mn116  1  0.50162049  0.25097089  0.66532939  1
  Mn  Mn117  1  0.49923406  0.74873196  -0.00100069  1
  Mn  Mn118  1  0.50007586  0.74817461  0.33351357  1
  Mn  Mn119  1  0.50283073  0.75242650  0.66684849  1
  Mn  Mn120  1  0.83300171  0.25102488  0.00076418  1
  Mn  Mn121  1  0.83419663  0.25042643  0.33550932  1
  Mn  Mn122  1  0.83014503  0.24871111  0.66877891  1
  Mn  Mn123  1  0.83294404  0.74769734  0.00032054  1
  Mn  Mn124  1  0.83550144  0.75094448  0.33418957  1
  Mn  Mn125  1  0.83462879  0.75228937  0.67003941  1
  Mn  Mn126  1  0.16783777  0.00060105  -0.00202286  1
  Mn  Mn127  1  0.16690075  0.00005329  0.33037588  1
  Mn  Mn128  1  0.16517404  -0.00047035  0.66666603  1
  Mn  Mn129  1  0.16529588  0.50030276  -0.00054880  1
  Mn  Mn130  1  0.16383045  0.49890946  0.33302037  1
  Mn  Mn131  1  0.16564264  0.49913437  0.66809109  1
  Mn  Mn132  1  0.49984783  0.00076600  -0.00109096  1
  Mn  Mn133  1  0.49973670  0.00141726  0.33333654  1
  Mn  Mn134  1  0.50396457  -0.00029017  0.66679931  1
  Mn  Mn135  1  0.49936533  0.49873173  -0.00203131  1
  Mn  Mn136  1  0.50154902  0.49707824  0.33217023  1
  Mn  Mn137  1  0.49999105  0.49797168  0.66484357  1
  Mn  Mn138  1  0.83436266  -0.00052260  -0.00053234  1
  Mn  Mn139  1  0.83547893  0.00080489  0.33409846  1
  Mn  Mn140  1  0.83245366  -0.00067753  0.66775534  1
  Mn  Mn141  1  0.83147985  0.50093460  0.00188581  1
  Mn  Mn142  1  0.83426634  0.49869838  0.33378352  1
  Mn  Mn143  1  0.83273325  0.49931448  0.67100834  1
  O  O144  1  0.15909261  0.12573935  0.02609763  1
  O  O145  1  0.15980526  0.12831812  0.34014259  1
  O  O146  1  0.16497468  0.12778763  0.68675886  1
  O  O147  1  0.16724507  0.62476071  0.01535071  1
  O  O148  1  0.15909120  0.62047011  0.34340997  1
  O  O149  1  0.16060827  0.62322654  0.67802361  1
  O  O150  1  0.49201750  0.12928445  0.02570618  1
  O  O151  1  0.50528048  0.12943191  0.35808432  1
  O  O152  1  0.50688184  0.12667682  0.69005021  1
  O  O153  1  0.49213393  0.61961631  0.02216878  1
  O  O154  1  0.50059176  0.61853364  0.35829550  1
  O  O155  1  0.49266962  0.62290530  0.67534205  1
  O  O156  1  0.82664044  0.12487763  0.01240691  1
  O  O157  1  0.82826615  0.12793965  0.35858644  1
  O  O158  1  0.82523547  0.12260776  0.69669222  1
  O  O159  1  0.82228076  0.62129993  0.03113341  1
  O  O160  1  0.83884255  0.62280457  0.34344944  1
  O  O161  1  0.82777359  0.62614778  0.69364657  1
  O  O162  1  0.16420435  0.37357998  0.32304810  1
  O  O163  1  0.16978602  0.37648000  0.64433184  1
  O  O164  1  0.17258554  0.37181322  0.97579217  1
  O  O165  1  0.17164903  0.87680541  0.32331975  1
  O  O166  1  0.16126368  0.87450418  0.65879867  1
  O  O167  1  0.17708302  0.87816573  0.97425636  1
  O  O168  1  0.51444866  0.37324683  0.30726959  1
  O  O169  1  0.51188640  0.37394436  0.64250339  1
  O  O170  1  0.50758207  0.37332331  0.96921863  1
  O  O171  1  0.49546220  0.87655817  0.32480314  1
  O  O172  1  0.51366962  0.87731113  0.64166165  1
  O  O173  1  0.50877679  0.87666511  0.98253009  1
  O  O174  1  0.83462577  0.37416658  0.30911977  1
  O  O175  1  0.82862322  0.37307254  0.64812082  1
  O  O176  1  0.83832434  0.37709004  0.97396233  1
  O  O177  1  0.83615615  0.87685649  0.31192048  1
  O  O178  1  0.83235121  0.87745362  0.64038900  1
  O  O179  1  0.84037945  0.87553973  0.97583456  1
  O  O180  1  -0.00754881  0.37450265  0.18928601  1
  O  O181  1  -0.00293902  0.37546603  0.51768258  1
  O  O182  1  -0.00348913  0.37018452  0.85884645  1
  O  O183  1  -0.00783450  0.87496117  0.18146552  1
  O  O184  1  -0.01036162  0.87362913  0.51992241  1
  O  O185  1  -0.00267954  0.87835743  0.86140270  1
  O  O186  1  0.34200257  0.37447921  0.18795443  1
  O  O187  1  0.34149649  0.37556713  0.52467855  1
  O  O188  1  0.34070661  0.37257345  0.85560304  1
  O  O189  1  0.33448113  0.87678283  0.18913870  1
  O  O190  1  0.34112452  0.87467760  0.50506560  1
  O  O191  1  0.33016483  0.88083932  0.85703956  1
  O  O192  1  0.66599862  0.37430603  0.19253923  1
  O  O193  1  0.67075246  0.37144587  0.52884218  1
  O  O194  1  0.66865771  0.37136067  0.86052430  1
  O  O195  1  0.67044626  0.87562669  0.17415771  1
  O  O196  1  0.66510669  0.87680266  0.52478925  1
  O  O197  1  0.67396583  0.87323826  0.86356226  1
  O  O198  1  0.00328017  0.12551215  0.13833655  1
  O  O199  1  -0.01324084  0.12867535  0.47494380  1
  O  O200  1  -0.00697108  0.12453733  0.82005847  1
  O  O201  1  -0.01034446  0.62347650  0.14886454  1
  O  O202  1  -0.00156293  0.62197232  0.47930759  1
  O  O203  1  -0.00971560  0.62901383  0.80722561  1
  O  O204  1  0.33527763  0.12712274  0.14303482  1
  O  O205  1  0.34382696  0.12855270  0.48920150  1
  O  O206  1  0.33428686  0.12802818  0.81823600  1
  O  O207  1  0.33920396  0.62197945  0.14454035  1
  O  O208  1  0.34360204  0.62162232  0.49274896  1
  O  O209  1  0.33282997  0.61869690  0.80436087  1
  O  O210  1  0.66268396  0.12909099  0.14363170  1
  O  O211  1  0.66783111  0.12874005  0.47355841  1
  O  O212  1  0.66681456  0.12663483  0.81128188  1
  O  O213  1  0.67161745  0.62025914  0.14426751  1
  O  O214  1  0.66238911  0.62393161  0.49219175  1
  O  O215  1  0.67560942  0.62922165  0.80751420  1
  O  O216  1  0.08684931  0.02034720  0.23960391  1
  O  O217  1  0.07554371  0.00503982  0.58211247  1
  O  O218  1  0.09258894  0.02334641  0.90817642  1
  O  O219  1  0.07986282  0.51507432  0.24847383  1
  O  O220  1  0.08416753  0.50794051  0.58256885  1
  O  O221  1  0.08200057  0.50296026  0.91428521  1
  O  O222  1  0.42457416  0.01925857  0.24004935  1
  O  O223  1  0.42879889  0.00940644  0.57443189  1
  O  O224  1  0.42103139  0.02304966  0.91468552  1
  O  O225  1  0.42743755  0.51043495  0.23825700  1
  O  O226  1  0.42927883  0.51175599  0.57244250  1
  O  O227  1  0.41795504  0.51092986  0.91398030  1
  O  O228  1  0.74974099  0.01524800  0.25515245  1
  O  O229  1  0.74649282  0.02243565  0.58801789  1
  O  O230  1  0.75558473  0.01891796  0.91135598  1
  O  O231  1  0.76053967  0.50964959  0.24012505  1
  O  O232  1  0.74897600  0.51145789  0.59258049  1
  O  O233  1  0.75494838  0.52153675  0.91659173  1
  O  O234  1  0.25290883  0.24194923  0.24791610  1
  O  O235  1  0.25476894  0.24839314  0.58806926  1
  O  O236  1  0.25556769  0.22799604  0.92283118  1
  O  O237  1  0.25280362  0.74040244  0.24855497  1
  O  O238  1  0.26117001  0.73601178  0.59058073  1
  O  O239  1  0.25710561  0.73436965  0.92391364  1
  O  O240  1  0.58789266  0.22560025  0.25520537  1
  O  O241  1  0.58955587  0.22612094  0.58775836  1
  O  O242  1  0.59038193  0.22327515  0.92459837  1
  O  O243  1  0.58407944  0.73439646  0.24892222  1
  O  O244  1  0.58751820  0.72916023  0.59004886  1
  O  O245  1  0.59265486  0.73462563  0.92364713  1
  O  O246  1  0.92563005  0.23493769  0.26125762  1
  O  O247  1  0.90851658  0.23804797  0.57709894  1
  O  O248  1  0.92432588  0.23040316  0.92527476  1
  O  O249  1  0.92254194  0.73160555  0.25260157  1
  O  O250  1  0.92157805  0.73443465  0.59468126  1
  O  O251  1  0.91521150  0.72952160  0.91797266  1
  O  O252  1  0.07152389  0.48500672  0.07706146  1
  O  O253  1  0.07738851  0.47844677  0.41401599  1
  O  O254  1  0.07817862  0.48245291  0.74840177  1
  O  O255  1  0.07297764  0.98228813  0.06549076  1
  O  O256  1  0.07644547  0.99591150  0.40742024  1
  O  O257  1  0.07823917  0.97839055  0.75122595  1
  O  O258  1  0.41524203  0.47474372  0.07519236  1
  O  O259  1  0.41346826  0.47159927  0.40545778  1
  O  O260  1  0.41017438  0.47572559  0.73996264  1
  O  O261  1  0.40922449  0.98430403  0.07163138  1
  O  O262  1  0.41499221  0.98523724  0.41149571  1
  O  O263  1  0.42424210  0.99178277  0.75334423  1
  O  O264  1  0.74306240  0.47206874  0.07825017  1
  O  O265  1  0.74825572  0.47630315  0.41534027  1
  O  O266  1  0.74524287  0.47779241  0.75283605  1
  O  O267  1  0.74846303  0.98103810  0.07482491  1
  O  O268  1  0.75362915  0.98809852  0.42648623  1
  O  O269  1  0.75081389  0.97423694  0.74962468  1
  O  O270  1  0.24923261  0.26109763  0.08140942  1
  O  O271  1  0.24784896  0.27123895  0.42244232  1
  O  O272  1  0.24236332  0.26981946  0.75972559  1
  O  O273  1  0.25247281  0.76114409  0.08003027  1
  O  O274  1  0.25274926  0.75902671  0.41431273  1
  O  O275  1  0.24374673  0.76584500  0.75869538  1
  O  O276  1  0.57447191  0.27184016  0.08684263  1
  O  O277  1  0.58445770  0.27248159  0.42225935  1
  O  O278  1  0.57695749  0.26953363  0.76030239  1
  O  O279  1  0.58461147  0.75270124  0.08139143  1
  O  O280  1  0.57483475  0.76094165  0.42844891  1
  O  O281  1  0.59019831  0.76826468  0.74960836  1
  O  O282  1  0.90940288  0.27366888  0.08935196  1
  O  O283  1  0.91151918  0.27759017  0.41880238  1
  O  O284  1  0.90539840  0.26371596  0.76119839  1
  O  O285  1  0.90915606  0.76706819  0.08777206  1
  O  O286  1  0.91194187  0.76756092  0.42249185  1
  O  O287  1  0.91492095  0.77847337  0.75311651  1
  O  O288  1  0.25251877  0.48840224  0.08135578  1
  O  O289  1  0.24638794  0.47748615  0.42570538  1
  O  O290  1  0.24214847  0.47188490  0.75908093  1
  O  O291  1  0.25104707  0.98927066  0.07917377  1
  O  O292  1  0.25410232  0.99081290  0.40961561  1
  O  O293  1  0.24237101  0.99108928  0.76264627  1
  O  O294  1  0.57756742  0.47924341  0.08709663  1
  O  O295  1  0.58089801  0.47627776  0.42007484  1
  O  O296  1  0.57689622  0.48029943  0.75484381  1
  O  O297  1  0.58541520  0.99464645  0.07671066  1
  O  O298  1  0.57681247  0.98985978  0.42659957  1
  O  O299  1  0.59018607  0.98279693  0.74829150  1
  O  O300  1  0.90678224  0.47825551  0.09001927  1
  O  O301  1  0.91165234  0.47632805  0.41966415  1
  O  O302  1  0.90563558  0.48208783  0.76103192  1
  O  O303  1  0.91114051  0.97929075  0.08561518  1
  O  O304  1  0.91249289  0.98214460  0.41917818  1
  O  O305  1  0.91481335  0.97776968  0.75108725  1
  O  O306  1  0.07039242  0.26772516  0.06614895  1
  O  O307  1  0.07380982  0.26693835  0.41069133  1
  O  O308  1  0.07796291  0.27073930  0.74950635  1
  O  O309  1  0.07457041  0.76385086  0.07568119  1
  O  O310  1  0.07530935  0.75638737  0.41041460  1
  O  O311  1  0.07685545  0.77043718  0.75107057  1
  O  O312  1  0.41143393  0.27528065  0.07093236  1
  O  O313  1  0.41336637  0.27624139  0.40573677  1
  O  O314  1  0.41198576  0.27369497  0.74101739  1
  O  O315  1  0.41028145  0.76434046  0.07583480  1
  O  O316  1  0.41376505  0.76586041  0.41178927  1
  O  O317  1  0.41943623  0.76197710  0.74659144  1
  O  O318  1  0.74448305  0.27252635  0.08104436  1
  O  O319  1  0.75012171  0.27444039  0.42166138  1
  O  O320  1  0.74056641  0.27172322  0.74854314  1
  O  O321  1  0.74560984  0.77034572  0.07389381  1
  O  O322  1  0.75035505  0.76591984  0.42445796  1
  O  O323  1  0.75364124  0.77723355  0.75417526  1
  O  O324  1  0.24920695  0.01682947  0.24334915  1
  O  O325  1  0.25245446  0.00652925  0.58152263  1
  O  O326  1  0.25441615  0.02742478  0.92232235  1
  O  O327  1  0.25290779  0.50233655  0.25373601  1
  O  O328  1  0.26422061  0.51124263  0.60117785  1
  O  O329  1  0.25931710  0.51320949  0.92237620  1
  O  O330  1  0.58519682  0.02203636  0.25415449  1
  O  O331  1  0.58778174  0.02748059  0.58609479  1
  O  O332  1  0.58478360  0.02259239  0.91651709  1
  O  O333  1  0.58540556  0.51644129  0.24838350  1
  O  O334  1  0.58795142  0.51827955  0.59167717  1
  O  O335  1  0.59340395  0.51838447  0.92766011  1
  O  O336  1  0.92432975  0.01903549  0.25722579  1
  O  O337  1  0.90601363  0.01584766  0.57818281  1
  O  O338  1  0.92095908  0.02011663  0.92099137  1
  O  O339  1  0.92216631  0.51582590  0.25567454  1
  O  O340  1  0.92073097  0.51339179  0.59412994  1
  O  O341  1  0.91634881  0.52150558  0.92369728  1
  O  O342  1  0.08527648  0.23025679  0.23810525  1
  O  O343  1  0.08319389  0.24599925  0.57555165  1
  O  O344  1  0.09300294  0.22918951  0.90724202  1
  O  O345  1  0.08248458  0.73251124  0.24585847  1
  O  O346  1  0.07948180  0.74050581  0.58702809  1
  O  O347  1  0.08240521  0.74641706  0.91532855  1
  O  O348  1  0.42910743  0.23795938  0.23346909  1
  O  O349  1  0.43047443  0.24013544  0.56924048  1
  O  O350  1  0.42707277  0.23071700  0.90731755  1
  O  O351  1  0.42333089  0.73261078  0.24264867  1
  O  O352  1  0.42630190  0.73936263  0.57545690  1
  O  O353  1  0.41515324  0.73845716  0.91898687  1
  O  O354  1  0.74771903  0.23837245  0.25937104  1
  O  O355  1  0.74946620  0.22388633  0.58340513  1
  O  O356  1  0.75671063  0.23354343  0.90947088  1
  O  O357  1  0.75999256  0.73924619  0.23847511  1
  O  O358  1  0.74558153  0.73914599  0.59506601  1
  O  O359  1  0.75427457  0.72496540  0.91550442  1
