# generated using pymatgen
data_Ba17Sr5La8Pr42Mn72O216
_symmetry_space_group_name_H-M   'P 1'
_cell_length_a   16.67199579
_cell_length_b   15.70379717
_cell_length_c   16.81627904
_cell_angle_alpha   89.99671616
_cell_angle_beta   89.96958751
_cell_angle_gamma   90.00057127
_symmetry_Int_Tables_number   1
_chemical_formula_structural   Ba17Sr5La8Pr42Mn72O216
_chemical_formula_sum   'Ba17 Sr5 La8 Pr42 Mn72 O216'
_cell_volume   4402.73060419
_cell_formula_units_Z   1
loop_
 _symmetry_equiv_pos_site_id
 _symmetry_equiv_pos_as_xyz
  1  'x, y, z'
loop_
 _atom_site_type_symbol
 _atom_site_label
 _atom_site_symmetry_multiplicity
 _atom_site_fract_x
 _atom_site_fract_y
 _atom_site_fract_z
 _atom_site_occupancy
  Ba  Ba0  1  0.66661900  0.62564977  0.99715236  1
  Ba  Ba1  1  0.66672573  0.87373122  0.33451423  1
  Ba  Ba2  1  0.16444082  0.87306490  0.83145362  1
  Ba  Ba3  1  0.33428087  0.12555496  0.32979630  1
  Ba  Ba4  1  0.16688743  0.62388250  0.83282852  1
  Ba  Ba5  1  0.66699127  0.12453110  0.99933264  1
  Ba  Ba6  1  0.50045372  0.62371854  0.83419319  1
  Ba  Ba7  1  -0.00105387  0.12550624  0.33188457  1
  Ba  Ba8  1  0.33382640  0.87723458  0.66696551  1
  Ba  Ba9  1  0.16612853  0.12597937  0.16667353  1
  Ba  Ba10  1  0.83375582  0.12696794  0.83458446  1
  Ba  Ba11  1  0.33016516  0.87382826  0.33310133  1
  Ba  Ba12  1  0.83237247  0.12629211  0.16838069  1
  Ba  Ba13  1  -0.00113270  0.87297814  -0.00009637  1
  Ba  Ba14  1  0.83402347  0.62562333  0.50405342  1
  Ba  Ba15  1  0.33469522  0.37658105  0.33540145  1
  Ba  Ba16  1  0.33197117  0.12771371  1.00004547  1
  Sr  Sr17  1  0.33397353  0.12235292  0.66474288  1
  Sr  Sr18  1  0.66628229  0.87482778  0.00282548  1
  Sr  Sr19  1  0.83186725  0.62358055  0.83541071  1
  Sr  Sr20  1  0.83334866  0.12402351  0.50266214  1
  Sr  Sr21  1  0.66978810  0.37588766  0.66629321  1
  La  La22  1  0.16225058  0.87585906  0.49897126  1
  La  La23  1  0.33079459  0.87134893  0.00055410  1
  La  La24  1  0.17163398  0.12613913  0.49819663  1
  La  La25  1  -0.00350208  0.37547360  0.66805085  1
  La  La26  1  0.49844355  0.12277874  0.49807497  1
  La  La27  1  0.50557105  0.37456868  0.49515555  1
  La  La28  1  0.82783631  0.37548224  0.83327288  1
  La  La29  1  0.33513332  0.37532327  0.66740707  1
  Pr  Pr30  1  0.00632754  0.62556095  0.66343177  1
  Pr  Pr31  1  -0.00315015  0.87803550  0.33186896  1
  Pr  Pr32  1  0.66545872  0.62133500  0.66647367  1
  Pr  Pr33  1  0.33338925  0.62501808  0.99601698  1
  Pr  Pr34  1  0.83657985  0.37537429  0.16705255  1
  Pr  Pr35  1  -0.00792627  0.87322023  0.67302170  1
  Pr  Pr36  1  0.50352911  0.87572574  0.83433383  1
  Pr  Pr37  1  0.16891356  0.62688347  0.16769898  1
  Pr  Pr38  1  0.67293304  0.37539544  0.33626902  1
  Pr  Pr39  1  0.16525401  0.37415444  0.49482233  1
  Pr  Pr40  1  0.66767839  0.12630669  0.32730285  1
  Pr  Pr41  1  0.83249785  0.87796567  0.16405526  1
  Pr  Pr42  1  0.00327434  0.12296997  0.66067769  1
  Pr  Pr43  1  0.00254238  0.62175758  0.33272447  1
  Pr  Pr44  1  0.00204696  0.12540870  0.99569329  1
  Pr  Pr45  1  0.49525469  0.87599076  0.49561584  1
  Pr  Pr46  1  0.50025102  0.62768690  0.50273076  1
  Pr  Pr47  1  0.66868833  0.87339336  0.66825331  1
  Pr  Pr48  1  0.49986890  0.37277837  0.16394137  1
  Pr  Pr49  1  0.82800825  0.87482589  0.83739770  1
  Pr  Pr50  1  0.50479315  0.37261972  0.83035574  1
  Pr  Pr51  1  0.16661566  0.36991862  0.16530712  1
  Pr  Pr52  1  0.49727791  0.87621256  0.16224624  1
  Pr  Pr53  1  0.17450784  0.62354488  0.50397940  1
  Pr  Pr54  1  -0.00182713  0.62436437  0.99468169  1
  Pr  Pr55  1  0.33970553  0.62532848  0.33324028  1
  Pr  Pr56  1  0.83187599  0.87605210  0.49868050  1
  Pr  Pr57  1  0.16957318  0.12158449  0.83457547  1
  Pr  Pr58  1  -0.00000216  0.37051302  0.33430910  1
  Pr  Pr59  1  -0.00162992  0.37718823  -0.00036794  1
  Pr  Pr60  1  0.16777893  0.37316866  0.82977676  1
  Pr  Pr61  1  0.33663296  0.63057062  0.66685994  1
  Pr  Pr62  1  0.16525607  0.88110236  0.16151085  1
  Pr  Pr63  1  0.83554315  0.37556977  0.49901043  1
  Pr  Pr64  1  0.49838288  0.12323863  0.83416675  1
  Pr  Pr65  1  0.66916027  0.62334264  0.32912772  1
  Pr  Pr66  1  0.66705696  0.37638101  -0.00172422  1
  Pr  Pr67  1  0.83395861  0.62948981  0.17132732  1
  Pr  Pr68  1  0.66614603  0.12909172  0.66332769  1
  Pr  Pr69  1  0.50110784  0.62621426  0.16568879  1
  Pr  Pr70  1  0.50127535  0.12272932  0.16925925  1
  Pr  Pr71  1  0.33229658  0.38075995  0.00312793  1
  Mn  Mn72  1  -0.00143818  -0.00037243  0.16650838  1
  Mn  Mn73  1  0.00027518  -0.00075860  0.50123802  1
  Mn  Mn74  1  -0.00178575  0.00039093  0.83102812  1
  Mn  Mn75  1  0.00073717  0.50161214  0.16580806  1
  Mn  Mn76  1  0.00206568  0.49973921  0.49970409  1
  Mn  Mn77  1  -0.00111279  0.49903631  0.83325613  1
  Mn  Mn78  1  0.33366242  -0.00143283  0.16553602  1
  Mn  Mn79  1  0.33273063  0.00069917  0.49982049  1
  Mn  Mn80  1  0.33436342  0.00108914  0.83268029  1
  Mn  Mn81  1  0.33313836  0.50087299  0.16724574  1
  Mn  Mn82  1  0.33522884  0.50005610  0.50297589  1
  Mn  Mn83  1  0.33372528  0.49718590  0.83427173  1
  Mn  Mn84  1  0.66543599  -0.00092022  0.16725306  1
  Mn  Mn85  1  0.66685766  0.00158382  0.50138523  1
  Mn  Mn86  1  0.66615243  -0.00171409  0.83230040  1
  Mn  Mn87  1  0.66676240  0.49949386  0.16682483  1
  Mn  Mn88  1  0.66686293  0.49990158  0.50001622  1
  Mn  Mn89  1  0.66651085  0.49899536  0.83191667  1
  Mn  Mn90  1  -0.00080728  0.25419417  0.16556700  1
  Mn  Mn91  1  0.00058197  0.24971587  0.50143810  1
  Mn  Mn92  1  0.00173497  0.25225961  0.83181589  1
  Mn  Mn93  1  0.00062074  0.74574957  0.16850124  1
  Mn  Mn94  1  0.00126294  0.75068128  0.50029959  1
  Mn  Mn95  1  -0.00403488  0.74783386  0.83287431  1
  Mn  Mn96  1  0.33448446  0.25289464  0.16579336  1
  Mn  Mn97  1  0.33481328  0.24949326  0.50275432  1
  Mn  Mn98  1  0.33394784  0.25162407  0.83135894  1
  Mn  Mn99  1  0.33280868  0.74730258  0.16702271  1
  Mn  Mn100  1  0.33280635  0.75007241  0.49896805  1
  Mn  Mn101  1  0.33443088  0.74986609  0.83343783  1
  Mn  Mn102  1  0.66540543  0.25392197  0.16726726  1
  Mn  Mn103  1  0.66829661  0.24966401  0.49884554  1
  Mn  Mn104  1  0.66512858  0.25002789  0.83077922  1
  Mn  Mn105  1  0.66609025  0.74909640  0.16665778  1
  Mn  Mn106  1  0.66569833  0.74950788  0.50239231  1
  Mn  Mn107  1  0.66746639  0.75157477  0.83393430  1
  Mn  Mn108  1  0.16555259  0.25213303  -0.00441562  1
  Mn  Mn109  1  0.16679719  0.25250244  0.33243787  1
  Mn  Mn110  1  0.16735570  0.25135589  0.66528838  1
  Mn  Mn111  1  0.16546409  0.74795022  0.00238803  1
  Mn  Mn112  1  0.16339837  0.74688372  0.33414415  1
  Mn  Mn113  1  0.16592561  0.74883299  0.66422822  1
  Mn  Mn114  1  0.49897506  0.25112835  -0.00235448  1
  Mn  Mn115  1  0.50359735  0.25218280  0.33181901  1
  Mn  Mn116  1  0.50025987  0.25029553  0.66431476  1
  Mn  Mn117  1  0.49870089  0.75024229  0.00002430  1
  Mn  Mn118  1  0.50134013  0.74809547  0.33347429  1
  Mn  Mn119  1  0.50249262  0.75064795  0.66628669  1
  Mn  Mn120  1  0.83505702  0.25261045  0.00029119  1
  Mn  Mn121  1  0.83288288  0.25182103  0.33538539  1
  Mn  Mn122  1  0.83370761  0.25018895  0.66655470  1
  Mn  Mn123  1  0.83207674  0.74867324  0.00198788  1
  Mn  Mn124  1  0.83464429  0.74897803  0.33576071  1
  Mn  Mn125  1  0.83234440  0.74833232  0.66967157  1
  Mn  Mn126  1  0.16656831  0.00060695  -0.00173280  1
  Mn  Mn127  1  0.16482824  -0.00264423  0.33186003  1
  Mn  Mn128  1  0.16544536  0.00177179  0.66530437  1
  Mn  Mn129  1  0.16482959  0.49875850  0.00102540  1
  Mn  Mn130  1  0.16577956  0.50235321  0.33417179  1
  Mn  Mn131  1  0.16796898  0.49816501  0.66488205  1
  Mn  Mn132  1  0.49819982  0.00053593  -0.00083445  1
  Mn  Mn133  1  0.50132791  -0.00137883  0.33305231  1
  Mn  Mn134  1  0.50317443  0.00073528  0.66584730  1
  Mn  Mn135  1  0.49949740  0.49769453  -0.00023724  1
  Mn  Mn136  1  0.50355094  0.50130049  0.33279508  1
  Mn  Mn137  1  0.50033390  0.49866278  0.66462927  1
  Mn  Mn138  1  0.83344730  -0.00006272  0.00021805  1
  Mn  Mn139  1  0.83221822  -0.00092000  0.33558535  1
  Mn  Mn140  1  0.83260071  0.00072384  0.66702599  1
  Mn  Mn141  1  0.83334365  0.49911692  0.00166335  1
  Mn  Mn142  1  0.83492768  0.50110926  0.33427749  1
  Mn  Mn143  1  0.83351998  0.49983867  0.66867518  1
  O  O144  1  0.15902850  0.12885645  0.00934636  1
  O  O145  1  0.16443560  0.12930331  0.35124384  1
  O  O146  1  0.15786758  0.13217864  0.69130765  1
  O  O147  1  0.16399553  0.62129099  0.02458014  1
  O  O148  1  0.15602591  0.62362241  0.36286832  1
  O  O149  1  0.16134993  0.62183016  0.67718934  1
  O  O150  1  0.49928595  0.12942577  0.02476981  1
  O  O151  1  0.50826963  0.12898293  0.35247838  1
  O  O152  1  0.50817784  0.12394241  0.69131216  1
  O  O153  1  0.49177235  0.62220046  0.02168100  1
  O  O154  1  0.50293157  0.62374288  0.35854466  1
  O  O155  1  0.49823030  0.62406269  0.67977130  1
  O  O156  1  0.83980921  0.13020498  0.01143855  1
  O  O157  1  0.82539279  0.12978862  0.35056523  1
  O  O158  1  0.83659580  0.12477856  0.67891317  1
  O  O159  1  0.83612295  0.62128091  0.02734953  1
  O  O160  1  0.83046453  0.62394366  0.34841445  1
  O  O161  1  0.83155004  0.62376911  0.68615574  1
  O  O162  1  0.16296173  0.38149214  0.31086239  1
  O  O163  1  0.16993939  0.37586409  0.63692737  1
  O  O164  1  0.16498304  0.37598174  0.97266955  1
  O  O165  1  0.16047621  0.86400669  0.30591594  1
  O  O166  1  0.15911650  0.87148504  0.64393749  1
  O  O167  1  0.17249368  0.87280484  0.99204048  1
  O  O168  1  0.50924371  0.37932165  0.30876845  1
  O  O169  1  0.49641113  0.37711414  0.63656083  1
  O  O170  1  0.49840010  0.37355171  0.97521830  1
  O  O171  1  0.50029406  0.86811110  0.30872055  1
  O  O172  1  0.51165262  0.87529802  0.63691988  1
  O  O173  1  0.49514845  0.87491766  0.98075337  1
  O  O174  1  0.83472250  0.37946606  0.31228692  1
  O  O175  1  0.83538250  0.37638520  0.64192307  1
  O  O176  1  0.84096077  0.37690173  0.97801729  1
  O  O177  1  0.83987611  0.86808551  0.31028560  1
  O  O178  1  0.83361603  0.87440137  0.64125810  1
  O  O179  1  0.83351305  0.87283347  0.98303382  1
  O  O180  1  -0.00205682  0.38167466  0.19186818  1
  O  O181  1  0.00399797  0.37513230  0.52364885  1
  O  O182  1  0.00852853  0.37594705  0.85657139  1
  O  O183  1  0.00126634  0.86402385  0.18835605  1
  O  O184  1  0.00493393  0.87426283  0.52817039  1
  O  O185  1  -0.00517508  0.87263072  0.84211352  1
  O  O186  1  0.33159298  0.37963094  0.17994442  1
  O  O187  1  0.33473272  0.37659505  0.52279618  1
  O  O188  1  0.33097749  0.37513422  0.85871712  1
  O  O189  1  0.33199251  0.86960352  0.17758020  1
  O  O190  1  0.33679729  0.87416415  0.50943322  1
  O  O191  1  0.33964258  0.87530298  0.85343248  1
  O  O192  1  0.65568444  0.37882167  0.19419630  1
  O  O193  1  0.66285553  0.37485178  0.51890741  1
  O  O194  1  0.66018179  0.37286269  0.85109721  1
  O  O195  1  0.65821323  0.87259614  0.17830434  1
  O  O196  1  0.66603446  0.87575449  0.52518683  1
  O  O197  1  0.66337817  0.87560840  0.85185512  1
  O  O198  1  -0.00082623  0.13337250  0.14311983  1
  O  O199  1  0.00032790  0.12598540  0.48759326  1
  O  O200  1  0.00481043  0.13021854  0.80561041  1
  O  O201  1  0.00039707  0.62179334  0.13711727  1
  O  O202  1  0.00379431  0.62399077  0.47595019  1
  O  O203  1  -0.00563147  0.62099625  0.80786459  1
  O  O204  1  0.34326890  0.12721299  0.15665780  1
  O  O205  1  0.33347814  0.12505668  0.48726511  1
  O  O206  1  0.33520325  0.12996211  0.81349018  1
  O  O207  1  0.33421122  0.62240911  0.13896744  1
  O  O208  1  0.33238261  0.62395952  0.47734370  1
  O  O209  1  0.33516128  0.61943793  0.81110485  1
  O  O210  1  0.66234038  0.12706048  0.15611000  1
  O  O211  1  0.66622689  0.12739566  0.47116420  1
  O  O212  1  0.66034406  0.12432009  0.80811338  1
  O  O213  1  0.67479916  0.62256951  0.15181067  1
  O  O214  1  0.66099719  0.62321148  0.47356898  1
  O  O215  1  0.67040130  0.62663697  0.81027887  1
  O  O216  1  0.08193523  0.00090328  0.24909116  1
  O  O217  1  0.08825890  0.02259589  0.57659966  1
  O  O218  1  0.08432994  0.01947949  0.90962456  1
  O  O219  1  0.08331290  0.52491209  0.24585532  1
  O  O220  1  0.08912274  0.51774869  0.57544885  1
  O  O221  1  0.07743480  0.51526785  0.92359036  1
  O  O222  1  0.42635851  0.00758482  0.23897954  1
  O  O223  1  0.42397102  0.01329622  0.58059216  1
  O  O224  1  0.42027307  0.01648092  0.91233655  1
  O  O225  1  0.41921784  0.52389677  0.25293964  1
  O  O226  1  0.41439761  0.52323095  0.58636339  1
  O  O227  1  0.40974853  0.51118442  0.92601210  1
  O  O228  1  0.74532930  0.00968210  0.25607749  1
  O  O229  1  0.74655810  0.01900344  0.58774928  1
  O  O230  1  0.75185276  0.00363856  0.91377387  1
  O  O231  1  0.74870121  0.51508098  0.25192404  1
  O  O232  1  0.74244862  0.51499765  0.58953565  1
  O  O233  1  0.75091007  0.50209086  0.91812979  1
  O  O234  1  0.24857360  0.24833864  0.24754146  1
  O  O235  1  0.24700886  0.23183546  0.58529445  1
  O  O236  1  0.24328656  0.23834985  0.90451595  1
  O  O237  1  0.25245193  0.72033552  0.25666541  1
  O  O238  1  0.25383906  0.72893404  0.58563873  1
  O  O239  1  0.25313057  0.73561507  0.92731746  1
  O  O240  1  0.58214030  0.23013369  0.24696496  1
  O  O241  1  0.58258124  0.22796706  0.57579086  1
  O  O242  1  0.57737837  0.23544091  0.90860509  1
  O  O243  1  0.58606542  0.72357092  0.25296272  1
  O  O244  1  0.58534189  0.72386542  0.58517488  1
  O  O245  1  0.58034739  0.74575793  0.91529791  1
  O  O246  1  0.91392838  0.24939350  0.25110216  1
  O  O247  1  0.92256751  0.23849844  0.58780980  1
  O  O248  1  0.92861808  0.24018037  0.92276367  1
  O  O249  1  0.92408291  0.72302922  0.25410358  1
  O  O250  1  0.92737178  0.73575165  0.59423229  1
  O  O251  1  0.91747235  0.72859258  0.92361227  1
  O  O252  1  0.08286000  0.47410147  0.08462884  1
  O  O253  1  0.07959694  0.47651754  0.41264242  1
  O  O254  1  0.08340090  0.47927462  0.74363381  1
  O  O255  1  0.08378958  0.98828363  0.08464530  1
  O  O256  1  0.07869893  0.97575515  0.41545523  1
  O  O257  1  0.07133079  0.98819864  0.73727234  1
  O  O258  1  0.42024527  0.47775764  0.08511886  1
  O  O259  1  0.42526415  0.48864578  0.42488789  1
  O  O260  1  0.41975082  0.47443743  0.74999943  1
  O  O261  1  0.41304258  0.97766442  0.07986207  1
  O  O262  1  0.42052899  0.98947820  0.41702229  1
  O  O263  1  0.42605434  0.98751774  0.75416421  1
  O  O264  1  0.74969812  0.47223074  0.08590092  1
  O  O265  1  0.75243611  0.47823815  0.42172357  1
  O  O266  1  0.75269242  0.48096502  0.75336203  1
  O  O267  1  0.74909272  0.98345262  0.08819580  1
  O  O268  1  0.75478725  0.98319363  0.42631242  1
  O  O269  1  0.74815822  0.97719870  0.74874140  1
  O  O270  1  0.24785564  0.27213899  0.07780285  1
  O  O271  1  0.24425684  0.26472918  0.42355097  1
  O  O272  1  0.25024843  0.27509864  0.74674535  1
  O  O273  1  0.24626161  0.76083465  0.09168199  1
  O  O274  1  0.23681939  0.76035489  0.42444110  1
  O  O275  1  0.25110371  0.75391583  0.74676732  1
  O  O276  1  0.58310641  0.27547487  0.08036628  1
  O  O277  1  0.59158907  0.27187764  0.40945339  1
  O  O278  1  0.58117102  0.26963061  0.74525280  1
  O  O279  1  0.57413484  0.75737103  0.09090170  1
  O  O280  1  0.57541374  0.76492845  0.42738683  1
  O  O281  1  0.58722728  0.77027895  0.74589710  1
  O  O282  1  0.91618875  0.27741362  0.08556971  1
  O  O283  1  0.91725439  0.27350093  0.41965464  1
  O  O284  1  0.91756411  0.27531081  0.75527062  1
  O  O285  1  0.90867457  0.76032757  0.09788711  1
  O  O286  1  0.91617966  0.77350669  0.42349844  1
  O  O287  1  0.90844510  0.76990208  0.75434090  1
  O  O288  1  0.24461298  0.47885325  0.08456147  1
  O  O289  1  0.24446357  0.48718053  0.42866880  1
  O  O290  1  0.24887262  0.47537977  0.75115113  1
  O  O291  1  0.25042132  0.98453177  0.08351914  1
  O  O292  1  0.23862992  0.98839338  0.42185928  1
  O  O293  1  0.24571229  0.99754080  0.75062293  1
  O  O294  1  0.58287573  0.47942513  0.08279596  1
  O  O295  1  0.59026267  0.48043337  0.41083532  1
  O  O296  1  0.58421998  0.48460019  0.74423373  1
  O  O297  1  0.57453810  0.98715115  0.08901981  1
  O  O298  1  0.57793948  0.98438771  0.42661068  1
  O  O299  1  0.58564717  0.97548901  0.74667673  1
  O  O300  1  0.91670955  0.47746655  0.08572565  1
  O  O301  1  0.91908596  0.47782494  0.41861067  1
  O  O302  1  0.91542688  0.47488333  0.75308495  1
  O  O303  1  0.91198196  0.98368825  0.09056885  1
  O  O304  1  0.91602007  0.97728103  0.42175491  1
  O  O305  1  0.90954637  0.97905138  0.75364185  1
  O  O306  1  0.08054028  0.27611662  0.07932537  1
  O  O307  1  0.08274386  0.27242548  0.41695500  1
  O  O308  1  0.08431917  0.27802321  0.74686678  1
  O  O309  1  0.08750818  0.76100952  0.09252997  1
  O  O310  1  0.07559336  0.77305896  0.41053499  1
  O  O311  1  0.07236848  0.75758704  0.73666938  1
  O  O312  1  0.41584965  0.27538114  0.07946858  1
  O  O313  1  0.42886591  0.26404469  0.42138848  1
  O  O314  1  0.41648828  0.27471576  0.75033853  1
  O  O315  1  0.41483390  0.76798421  0.08314525  1
  O  O316  1  0.41608086  0.75649575  0.41540055  1
  O  O317  1  0.42549215  0.76656977  0.75179232  1
  O  O318  1  0.74952323  0.27761722  0.08901960  1
  O  O319  1  0.75466209  0.27658709  0.42187987  1
  O  O320  1  0.75005309  0.26587600  0.75150343  1
  O  O321  1  0.74991500  0.76745400  0.08722849  1
  O  O322  1  0.75220128  0.76580182  0.42675462  1
  O  O323  1  0.74956878  0.77474836  0.75119444  1
  O  O324  1  0.24993317  0.00232495  0.24698250  1
  O  O325  1  0.24736670  0.01478348  0.58223209  1
  O  O326  1  0.24812842  0.01251234  0.91300828  1
  O  O327  1  0.25069361  0.52773382  0.25571895  1
  O  O328  1  0.25653785  0.52252350  0.59033680  1
  O  O329  1  0.25192062  0.51399010  0.92618102  1
  O  O330  1  0.58475434  0.01982223  0.25341395  1
  O  O331  1  0.58700637  0.02795927  0.58448624  1
  O  O332  1  0.57723683  0.01322609  0.90868170  1
  O  O333  1  0.58363398  0.52750267  0.24667534  1
  O  O334  1  0.57939537  0.52068758  0.57729029  1
  O  O335  1  0.58153062  0.50265580  0.91616302  1
  O  O336  1  0.91631708  0.00201593  0.25183081  1
  O  O337  1  0.92330313  0.01151983  0.58990530  1
  O  O338  1  0.92505763  0.01582778  0.92159170  1
  O  O339  1  0.91882912  0.52403622  0.24745724  1
  O  O340  1  0.92624369  0.51287335  0.59049706  1
  O  O341  1  0.91724648  0.51657339  0.92278028  1
  O  O342  1  0.08218947  0.25091265  0.24814477  1
  O  O343  1  0.08526835  0.23099523  0.58246486  1
  O  O344  1  0.08468694  0.22972034  0.91065341  1
  O  O345  1  0.08413426  0.71851701  0.24953393  1
  O  O346  1  0.09019174  0.72790547  0.57284084  1
  O  O347  1  0.07875994  0.73284539  0.92075740  1
  O  O348  1  0.42707373  0.24357114  0.24423067  1
  O  O349  1  0.41893678  0.23141008  0.58519789  1
  O  O350  1  0.42085753  0.23711908  0.90905527  1
  O  O351  1  0.41873059  0.72327785  0.24598927  1
  O  O352  1  0.41972822  0.73267615  0.58224586  1
  O  O353  1  0.41057930  0.73546914  0.92445798  1
  O  O354  1  0.74130643  0.24569401  0.26048634  1
  O  O355  1  0.74563251  0.23247897  0.58327974  1
  O  O356  1  0.74883337  0.25208831  0.91956929  1
  O  O357  1  0.75121673  0.73164681  0.25009300  1
  O  O358  1  0.74334691  0.73494880  0.59356794  1
  O  O359  1  0.75426627  0.74209458  0.91216315  1
