# generated using pymatgen
data_Ba17Sr5La8Pr42Mn72O216
_symmetry_space_group_name_H-M   'P 1'
_cell_length_a   16.67277507
_cell_length_b   15.70258211
_cell_length_c   16.82261937
_cell_angle_alpha   90.00124370
_cell_angle_beta   89.96725923
_cell_angle_gamma   90.00791743
_symmetry_Int_Tables_number   1
_chemical_formula_structural   Ba17Sr5La8Pr42Mn72O216
_chemical_formula_sum   'Ba17 Sr5 La8 Pr42 Mn72 O216'
_cell_volume   4404.25552581
_cell_formula_units_Z   1
loop_
 _symmetry_equiv_pos_site_id
 _symmetry_equiv_pos_as_xyz
  1  'x, y, z'
loop_
 _atom_site_type_symbol
 _atom_site_label
 _atom_site_symmetry_multiplicity
 _atom_site_fract_x
 _atom_site_fract_y
 _atom_site_fract_z
 _atom_site_occupancy
  Ba  Ba0  1  0.00105436  0.37378989  0.33292426  1
  Ba  Ba1  1  0.83419114  0.62549218  0.16741518  1
  Ba  Ba2  1  0.16884719  0.37488596  0.49616989  1
  Ba  Ba3  1  0.66778904  0.87480290  0.67110596  1
  Ba  Ba4  1  0.49875493  0.37401617  0.16696004  1
  Ba  Ba5  1  0.66584857  0.12430592  0.33779503  1
  Ba  Ba6  1  0.33510741  0.62779700  0.66495905  1
  Ba  Ba7  1  0.66512873  0.37418204  0.33724675  1
  Ba  Ba8  1  0.83498018  0.62602724  0.50092984  1
  Ba  Ba9  1  0.33588978  0.62699008  0.99760674  1
  Ba  Ba10  1  -0.00013575  0.12398055  0.33172443  1
  Ba  Ba11  1  0.83347060  0.87641171  0.83235054  1
  Ba  Ba12  1  -0.00084956  0.62398118  0.99682706  1
  Ba  Ba13  1  -0.00010783  0.62532081  0.33046751  1
  Ba  Ba14  1  0.16428693  0.87672676  0.16466809  1
  Ba  Ba15  1  0.33382662  0.37439605  0.33227185  1
  Ba  Ba16  1  0.66577878  0.87654974  0.33857181  1
  Sr  Sr17  1  0.66465815  0.37381748  0.00775253  1
  Sr  Sr18  1  -0.00114902  0.87309907  0.33337058  1
  Sr  Sr19  1  0.66574453  0.37502973  0.67128179  1
  Sr  Sr20  1  0.83384441  0.87493157  0.49977968  1
  Sr  Sr21  1  0.33080167  0.87439176  0.66596614  1
  La  La22  1  0.49941975  0.87868776  0.16610882  1
  La  La23  1  0.50550907  0.62650974  0.83643370  1
  La  La24  1  0.16492944  0.12722127  0.49776395  1
  La  La25  1  0.67004367  0.12398244  0.66682486  1
  La  La26  1  -0.00247587  0.12313942  0.66071481  1
  La  La27  1  0.33695900  0.12236356  0.99759328  1
  La  La28  1  0.17084542  0.12500799  0.83131169  1
  La  La29  1  0.83231747  0.12530916  0.83533250  1
  Pr  Pr30  1  0.50478095  0.12401465  0.83375466  1
  Pr  Pr31  1  0.66710336  0.87547439  0.00700633  1
  Pr  Pr32  1  0.50419050  0.12689733  0.50174327  1
  Pr  Pr33  1  0.83095991  0.37428657  0.16901015  1
  Pr  Pr34  1  0.00231754  0.12317817  0.99570024  1
  Pr  Pr35  1  0.16513969  0.62279596  0.49634382  1
  Pr  Pr36  1  -0.00218422  0.37462328  0.66469478  1
  Pr  Pr37  1  0.49537320  0.87499174  0.82938691  1
  Pr  Pr38  1  0.16860147  0.12402559  0.16793844  1
  Pr  Pr39  1  0.83075774  0.12435062  0.49977682  1
  Pr  Pr40  1  -0.00208878  0.87346051  0.66533860  1
  Pr  Pr41  1  0.33272541  0.12620198  0.33132457  1
  Pr  Pr42  1  0.83107843  0.12599094  0.17281361  1
  Pr  Pr43  1  0.66495471  0.12876786  1.00356510  1
  Pr  Pr44  1  0.16389927  0.87079453  0.82867732  1
  Pr  Pr45  1  0.00153813  0.62635527  0.66238611  1
  Pr  Pr46  1  0.33383176  0.62428748  0.32906613  1
  Pr  Pr47  1  0.16794059  0.62624873  0.16723247  1
  Pr  Pr48  1  0.16075483  0.37469095  0.16437462  1
  Pr  Pr49  1  0.16736436  0.87380844  0.49313027  1
  Pr  Pr50  1  0.50380947  0.62331749  0.17107466  1
  Pr  Pr51  1  0.67082608  0.62581528  0.66874201  1
  Pr  Pr52  1  0.49375072  0.37473785  0.83409689  1
  Pr  Pr53  1  0.32975335  0.37547257  0.66639314  1
  Pr  Pr54  1  0.32735258  0.87443629  0.00021957  1
  Pr  Pr55  1  0.50577057  0.62375800  0.50231693  1
  Pr  Pr56  1  0.83081023  0.62562988  0.83796752  1
  Pr  Pr57  1  0.83115078  0.37527611  0.83341945  1
  Pr  Pr58  1  0.49811829  0.37726210  0.49542516  1
  Pr  Pr59  1  0.33023568  0.87691008  0.33388720  1
  Pr  Pr60  1  0.50118425  0.12789544  0.17142247  1
  Pr  Pr61  1  0.67365848  0.62719130  0.33374739  1
  Pr  Pr62  1  0.49678950  0.87356492  0.49938243  1
  Pr  Pr63  1  0.33625945  0.12253084  0.66072772  1
  Pr  Pr64  1  0.66711942  0.62007537  1.00216459  1
  Pr  Pr65  1  0.17529140  0.62597249  0.83589496  1
  Pr  Pr66  1  0.83464784  0.37427702  0.49618796  1
  Pr  Pr67  1  0.16228556  0.37969139  0.82819096  1
  Pr  Pr68  1  -0.00599295  0.37472878  0.00222927  1
  Pr  Pr69  1  0.32683122  0.37514087  0.00569536  1
  Pr  Pr70  1  0.83757408  0.87593785  0.16876801  1
  Pr  Pr71  1  -0.00461138  0.87419998  0.00184071  1
  Mn  Mn72  1  -0.00141225  0.00090790  0.16278050  1
  Mn  Mn73  1  0.00019596  -0.00058124  0.49895310  1
  Mn  Mn74  1  0.00247891  0.00171446  0.83054781  1
  Mn  Mn75  1  0.00041183  0.49805733  0.16390080  1
  Mn  Mn76  1  0.00094361  0.50081550  0.50036388  1
  Mn  Mn77  1  -0.00147708  0.49795241  0.83019716  1
  Mn  Mn78  1  0.33412742  -0.00013531  0.16405464  1
  Mn  Mn79  1  0.33401319  -0.00077830  0.49933255  1
  Mn  Mn80  1  0.33313649  0.00078721  0.83000181  1
  Mn  Mn81  1  0.33250587  0.50073531  0.16408524  1
  Mn  Mn82  1  0.33502801  0.50338139  0.49931333  1
  Mn  Mn83  1  0.33480519  0.49812640  0.83306738  1
  Mn  Mn84  1  0.66640144  -0.00062780  0.16843211  1
  Mn  Mn85  1  0.66604401  0.00000825  0.50450607  1
  Mn  Mn86  1  0.66571534  0.00349284  0.83761077  1
  Mn  Mn87  1  0.66628487  0.50027907  0.16872243  1
  Mn  Mn88  1  0.66714645  0.49958240  0.50552220  1
  Mn  Mn89  1  0.66515028  0.49571695  0.83591853  1
  Mn  Mn90  1  -0.00064721  0.24931805  0.16188342  1
  Mn  Mn91  1  -0.00062361  0.24789083  0.50024869  1
  Mn  Mn92  1  0.00107272  0.24986252  0.83208077  1
  Mn  Mn93  1  0.00037844  0.75134885  0.16508383  1
  Mn  Mn94  1  0.00125937  0.75079364  0.49955393  1
  Mn  Mn95  1  0.00031233  0.74916963  0.83021833  1
  Mn  Mn96  1  0.33084122  0.24881899  0.16355244  1
  Mn  Mn97  1  0.33565928  0.24689229  0.50042083  1
  Mn  Mn98  1  0.33346801  0.24914715  0.83290560  1
  Mn  Mn99  1  0.33534437  0.75121988  0.16474371  1
  Mn  Mn100  1  0.33403612  0.75141808  0.49710851  1
  Mn  Mn101  1  0.33482755  0.75217796  0.83117278  1
  Mn  Mn102  1  0.66628924  0.24966651  0.16775247  1
  Mn  Mn103  1  0.66637928  0.25060025  0.50699394  1
  Mn  Mn104  1  0.66534986  0.25135065  0.83613438  1
  Mn  Mn105  1  0.66572367  0.75197331  0.16933130  1
  Mn  Mn106  1  0.66600562  0.74975917  0.50283840  1
  Mn  Mn107  1  0.66588707  0.74970445  0.83832036  1
  Mn  Mn108  1  0.16566993  0.24781920  -0.00318919  1
  Mn  Mn109  1  0.16802756  0.24743827  0.33105468  1
  Mn  Mn110  1  0.16712604  0.24958346  0.66745914  1
  Mn  Mn111  1  0.16547838  0.75057231  -0.00304595  1
  Mn  Mn112  1  0.16818832  0.75140021  0.33146236  1
  Mn  Mn113  1  0.16656309  0.75095319  0.66316253  1
  Mn  Mn114  1  0.49829159  0.24757396  -0.00062587  1
  Mn  Mn115  1  0.49898063  0.24925723  0.33583546  1
  Mn  Mn116  1  0.49873485  0.25151820  0.66855468  1
  Mn  Mn117  1  0.50190731  0.75252178  0.00063090  1
  Mn  Mn118  1  0.49779082  0.75001992  0.33440934  1
  Mn  Mn119  1  0.50049850  0.74995765  0.66754164  1
  Mn  Mn120  1  0.83319129  0.24810197  0.00180036  1
  Mn  Mn121  1  0.83295368  0.24920797  0.33461021  1
  Mn  Mn122  1  0.83391426  0.25189701  0.66881325  1
  Mn  Mn123  1  0.83123698  0.75081462  -0.00012243  1
  Mn  Mn124  1  0.83398781  0.75261937  0.33448034  1
  Mn  Mn125  1  0.83489370  0.74904236  0.66924516  1
  Mn  Mn126  1  0.16590540  0.00206734  -0.00409103  1
  Mn  Mn127  1  0.16666830  0.00033924  0.33175062  1
  Mn  Mn128  1  0.16696466  -0.00074646  0.66460769  1
  Mn  Mn129  1  0.16541594  0.49901163  -0.00366925  1
  Mn  Mn130  1  0.16907611  0.50153732  0.33106578  1
  Mn  Mn131  1  0.16638910  0.50059241  0.66576319  1
  Mn  Mn132  1  0.50092124  -0.00008188  -0.00098264  1
  Mn  Mn133  1  0.49692631  0.00004912  0.33417962  1
  Mn  Mn134  1  0.49867440  0.00014429  0.66797291  1
  Mn  Mn135  1  0.49965575  0.49968447  0.00016262  1
  Mn  Mn136  1  0.49987211  0.50235478  0.33660869  1
  Mn  Mn137  1  0.50081968  0.49766864  0.66789007  1
  Mn  Mn138  1  0.83271005  0.00223280  0.00191308  1
  Mn  Mn139  1  0.83436422  -0.00065610  0.33551637  1
  Mn  Mn140  1  0.83484337  0.00082322  0.66794311  1
  Mn  Mn141  1  0.83099016  0.49786724  -0.00047214  1
  Mn  Mn142  1  0.83290025  0.49862845  0.33434814  1
  Mn  Mn143  1  0.83434249  0.49722307  0.66938527  1
  O  O144  1  0.16418457  0.12554736  0.02464853  1
  O  O145  1  0.17296020  0.12201697  0.35109974  1
  O  O146  1  0.16803706  0.12361082  0.69059173  1
  O  O147  1  0.16648303  0.62536014  0.02032504  1
  O  O148  1  0.17355310  0.63019397  0.35076433  1
  O  O149  1  0.15839768  0.62273625  0.69417412  1
  O  O150  1  0.49242468  0.12141338  0.02747747  1
  O  O151  1  0.48868575  0.12267402  0.35571872  1
  O  O152  1  0.49026040  0.12703743  0.69275376  1
  O  O153  1  0.50196689  0.63187101  0.02588031  1
  O  O154  1  0.48884911  0.62801220  0.35837115  1
  O  O155  1  0.50399713  0.61998150  0.69451839  1
  O  O156  1  0.84329727  0.12522438  0.02957008  1
  O  O157  1  0.83457798  0.12442855  0.35300001  1
  O  O158  1  0.84066689  0.12913843  0.69129439  1
  O  O159  1  0.82726676  0.62439705  0.01088719  1
  O  O160  1  0.82771673  0.62509850  0.34191232  1
  O  O161  1  0.84039255  0.61888824  0.69291599  1
  O  O162  1  0.16933740  0.37131368  0.31095298  1
  O  O163  1  0.17213404  0.37575770  0.65191214  1
  O  O164  1  0.17054196  0.36921072  0.97114140  1
  O  O165  1  0.17090072  0.87716703  0.32095120  1
  O  O166  1  0.16381219  0.87851589  0.63664299  1
  O  O167  1  0.16696294  0.87928924  0.97366010  1
  O  O168  1  0.50141890  0.37589802  0.32696635  1
  O  O169  1  0.49783468  0.37338450  0.63917517  1
  O  O170  1  0.49822223  0.36888566  0.97822070  1
  O  O171  1  0.49506129  0.87523809  0.30936507  1
  O  O172  1  0.50073332  0.87904898  0.64368006  1
  O  O173  1  0.51159569  0.87826997  0.97197684  1
  O  O174  1  0.83135800  0.37208812  0.31691804  1
  O  O175  1  0.83460411  0.37362004  0.63991600  1
  O  O176  1  0.83383108  0.37066076  0.97540977  1
  O  O177  1  0.83419891  0.87827031  0.31525257  1
  O  O178  1  0.83861480  0.87776243  0.65284668  1
  O  O179  1  0.82843800  0.87779168  0.98584350  1
  O  O180  1  0.00818739  0.37227582  0.17521057  1
  O  O181  1  -0.00459813  0.37345099  0.52053081  1
  O  O182  1  0.00663542  0.37260683  0.86021735  1
  O  O183  1  -0.00473954  0.87850208  0.17961995  1
  O  O184  1  0.01101934  0.87644445  0.52298872  1
  O  O185  1  0.00945515  0.88097720  0.85906065  1
  O  O186  1  0.32511626  0.37361227  0.17520851  1
  O  O187  1  0.34038498  0.37182377  0.52293504  1
  O  O188  1  0.33722133  0.36928756  0.86175231  1
  O  O189  1  0.33921335  0.87739160  0.18994971  1
  O  O190  1  0.33118272  0.87663282  0.51977600  1
  O  O191  1  0.33587568  0.87833356  0.85657930  1
  O  O192  1  0.67099983  0.37276458  0.17732901  1
  O  O193  1  0.66214770  0.37402947  0.52277321  1
  O  O194  1  0.67016058  0.37239327  0.85875295  1
  O  O195  1  0.65979945  0.87601609  0.18141464  1
  O  O196  1  0.65636676  0.87538025  0.51486122  1
  O  O197  1  0.66190429  0.88010679  0.86147830  1
  O  O198  1  -0.00409827  0.12627150  0.13841583  1
  O  O199  1  -0.00405210  0.12388209  0.49036462  1
  O  O200  1  -0.00091487  0.12692725  0.80491602  1
  O  O201  1  0.00813423  0.62330620  0.15416378  1
  O  O202  1  0.00558328  0.62632548  0.48974412  1
  O  O203  1  -0.00925070  0.61840978  0.80668603  1
  O  O204  1  0.33320278  0.12319087  0.13986531  1
  O  O205  1  0.34148132  0.11999070  0.47628654  1
  O  O206  1  0.33193986  0.12606068  0.80393572  1
  O  O207  1  0.33602917  0.62645465  0.15200994  1
  O  O208  1  0.33683865  0.63190488  0.47479118  1
  O  O209  1  0.33103170  0.62670388  0.82171800  1
  O  O210  1  0.66846288  0.12295615  0.14760283  1
  O  O211  1  0.66749678  0.12529534  0.49508536  1
  O  O212  1  0.66119697  0.12967046  0.81133594  1
  O  O213  1  0.66125233  0.62928646  0.14606929  1
  O  O214  1  0.66006056  0.62530579  0.48017231  1
  O  O215  1  0.66217335  0.61734428  0.81217724  1
  O  O216  1  0.08667904  0.01751569  0.23771684  1
  O  O217  1  0.08383732  0.02353803  0.58502010  1
  O  O218  1  0.08599801  0.02790907  0.90827223  1
  O  O219  1  0.09517211  0.50939959  0.23655048  1
  O  O220  1  0.08659901  0.51967388  0.58273458  1
  O  O221  1  0.09100808  0.51556138  0.90231672  1
  O  O222  1  0.41514023  0.02239602  0.24635656  1
  O  O223  1  0.41949843  0.02001456  0.58019680  1
  O  O224  1  0.42110819  0.02024670  0.91309804  1
  O  O225  1  0.41966583  0.51910106  0.24852356  1
  O  O226  1  0.42544261  0.51547069  0.57819219  1
  O  O227  1  0.42682391  0.51116701  0.90469262  1
  O  O228  1  0.75267141  0.01232067  0.24565446  1
  O  O229  1  0.75185513  0.02032386  0.58930699  1
  O  O230  1  0.75102515  0.02852895  0.92336552  1
  O  O231  1  0.74336655  0.51234158  0.25535677  1
  O  O232  1  0.74711522  0.51657167  0.59455484  1
  O  O233  1  0.74752992  0.51904238  0.91716315  1
  O  O234  1  0.25198437  0.22420999  0.24653427  1
  O  O235  1  0.25471218  0.22721112  0.58518302  1
  O  O236  1  0.25474259  0.22438137  0.92013388  1
  O  O237  1  0.25501815  0.73254586  0.25097175  1
  O  O238  1  0.24503978  0.73486054  0.57387780  1
  O  O239  1  0.24879097  0.74364331  0.91234815  1
  O  O240  1  0.57772750  0.23338365  0.24880991  1
  O  O241  1  0.58390734  0.22738099  0.59280491  1
  O  O242  1  0.58204273  0.22505715  0.92161788  1
  O  O243  1  0.58275320  0.72536770  0.25638317  1
  O  O244  1  0.58662376  0.72562760  0.59171277  1
  O  O245  1  0.58956052  0.72601302  0.92765834  1
  O  O246  1  0.91328008  0.23824899  0.24015609  1
  O  O247  1  0.91580839  0.23201026  0.58649523  1
  O  O248  1  0.91872267  0.22906785  0.91690233  1
  O  O249  1  0.91604143  0.75015719  0.24748947  1
  O  O250  1  0.92476351  0.74070552  0.59009103  1
  O  O251  1  0.91289532  0.73855799  0.91165942  1
  O  O252  1  0.08017681  0.47670221  0.07279598  1
  O  O253  1  0.08600886  0.49662101  0.41544627  1
  O  O254  1  0.07793678  0.47578070  0.74382115  1
  O  O255  1  0.07310140  0.98823825  0.06832046  1
  O  O256  1  0.08910156  0.98904889  0.42312041  1
  O  O257  1  0.08511022  0.97713318  0.74686960  1
  O  O258  1  0.40859697  0.48350154  0.07356087  1
  O  O259  1  0.41923364  0.48727675  0.42006453  1
  O  O260  1  0.41260997  0.47312977  0.74452404  1
  O  O261  1  0.41672674  0.97500552  0.07729014  1
  O  O262  1  0.41284041  0.97426085  0.41442033  1
  O  O263  1  0.41348595  0.98070248  0.74752943  1
  O  O264  1  0.75308255  0.48272225  0.08474421  1
  O  O265  1  0.75130811  0.48543837  0.42767674  1
  O  O266  1  0.75320651  0.48130259  0.75747543  1
  O  O267  1  0.74797343  0.98243768  0.08502014  1
  O  O268  1  0.75407634  0.99400519  0.42676045  1
  O  O269  1  0.75174964  1.00177477  0.75414782  1
  O  O270  1  0.24096655  0.26783388  0.08401579  1
  O  O271  1  0.25541060  0.24959697  0.41806557  1
  O  O272  1  0.24870376  0.27172200  0.75658053  1
  O  O273  1  0.25194611  0.76623942  0.07854067  1
  O  O274  1  0.25211778  0.77195758  0.41433570  1
  O  O275  1  0.24370096  0.76708874  0.74930779  1
  O  O276  1  0.58239395  0.25135430  0.08284991  1
  O  O277  1  0.57919799  0.25683667  0.43145089  1
  O  O278  1  0.57285449  0.26804412  0.75653594  1
  O  O279  1  0.57900872  0.77337859  0.08780902  1
  O  O280  1  0.56984357  0.76108696  0.42653014  1
  O  O281  1  0.57670034  0.76406390  0.76498648  1
  O  O282  1  0.91422508  0.27572461  0.08180185  1
  O  O283  1  0.91202153  0.26181747  0.42452833  1
  O  O284  1  0.91670340  0.27632460  0.75023019  1
  O  O285  1  0.91356982  0.77007102  0.08135071  1
  O  O286  1  0.91968985  0.76599794  0.41986918  1
  O  O287  1  0.92333830  0.76559081  0.74605391  1
  O  O288  1  0.24150995  0.48047976  0.08373157  1
  O  O289  1  0.25284881  0.49898689  0.41413134  1
  O  O290  1  0.24816397  0.48079518  0.75243075  1
  O  O291  1  0.25537270  0.98676832  0.07624129  1
  O  O292  1  0.25279993  0.98259413  0.41802415  1
  O  O293  1  0.24419576  0.98001319  0.75061482  1
  O  O294  1  0.58240505  0.49495782  0.08575430  1
  O  O295  1  0.57694408  0.49130772  0.42804119  1
  O  O296  1  0.57686115  0.47565189  0.75886824  1
  O  O297  1  0.58312650  0.98355047  0.08146044  1
  O  O298  1  0.57248875  0.99253511  0.42709140  1
  O  O299  1  0.57286444  0.98969903  0.75941661  1
  O  O300  1  0.91553447  0.47786303  0.07984925  1
  O  O301  1  0.91311198  0.48532090  0.42409551  1
  O  O302  1  0.91600873  0.46700662  0.75142763  1
  O  O303  1  0.91431608  0.97710676  0.08093338  1
  O  O304  1  0.92089413  0.98395052  0.41714425  1
  O  O305  1  0.92611369  0.98703296  0.74289646  1
  O  O306  1  0.07779405  0.26809508  0.07052765  1
  O  O307  1  0.08594631  0.25093690  0.41778246  1
  O  O308  1  0.08224151  0.27189291  0.75009493  1
  O  O309  1  0.07681138  0.76749404  0.07070234  1
  O  O310  1  0.08922652  0.76427509  0.42030129  1
  O  O311  1  0.08163086  0.77386208  0.74321075  1
  O  O312  1  0.40516437  0.26202719  0.07114894  1
  O  O313  1  0.42135381  0.26264102  0.42418492  1
  O  O314  1  0.41106240  0.27645522  0.74580116  1
  O  O315  1  0.41614297  0.77870986  0.07641920  1
  O  O316  1  0.41067118  0.77685233  0.40960937  1
  O  O317  1  0.41577014  0.76974584  0.74683583  1
  O  O318  1  0.75321356  0.26130466  0.08505442  1
  O  O319  1  0.75335581  0.26067357  0.43052567  1
  O  O320  1  0.75480331  0.26554803  0.75534780  1
  O  O321  1  0.74703069  0.77121576  0.08474294  1
  O  O322  1  0.74716668  0.75739637  0.42046046  1
  O  O323  1  0.75078671  0.74833770  0.75542850  1
  O  O324  1  0.25306507  0.02081918  0.24794886  1
  O  O325  1  0.25108157  0.02427733  0.58188632  1
  O  O326  1  0.25285941  0.02221262  0.91464432  1
  O  O327  1  0.25278648  0.52326849  0.24801767  1
  O  O328  1  0.24919392  0.51726477  0.57988570  1
  O  O329  1  0.24927579  0.51004801  0.91486398  1
  O  O330  1  0.57513858  0.01539468  0.24442564  1
  O  O331  1  0.58322365  0.02432561  0.59178821  1
  O  O332  1  0.58492359  0.02986637  0.92307601  1
  O  O333  1  0.58289648  0.52580165  0.25745082  1
  O  O334  1  0.58705717  0.52234390  0.59139805  1
  O  O335  1  0.58528496  0.51993109  0.92159103  1
  O  O336  1  0.91154130  0.01391772  0.23917465  1
  O  O337  1  0.91457025  0.01748857  0.58172705  1
  O  O338  1  0.91935924  0.02186130  0.91595149  1
  O  O339  1  0.91656945  0.49842341  0.24366981  1
  O  O340  1  0.92645164  0.51063573  0.59445141  1
  O  O341  1  0.90990477  0.50779443  0.90891163  1
  O  O342  1  0.09045489  0.23434871  0.23371258  1
  O  O343  1  0.08222857  0.23147449  0.58411629  1
  O  O344  1  0.08714233  0.22329263  0.91249602  1
  O  O345  1  0.09217347  0.73737773  0.24210640  1
  O  O346  1  0.08593953  0.72819881  0.58321171  1
  O  O347  1  0.09070563  0.73233573  0.90180554  1
  O  O348  1  0.41397732  0.22897596  0.24601030  1
  O  O349  1  0.41781234  0.22569845  0.58426995  1
  O  O350  1  0.42040670  0.22457918  0.90823950  1
  O  O351  1  0.42187094  0.73077247  0.24571270  1
  O  O352  1  0.42545169  0.73926383  0.57000090  1
  O  O353  1  0.42932875  0.74213349  0.90929215  1
  O  O354  1  0.75295723  0.23588325  0.24640908  1
  O  O355  1  0.75125022  0.22859949  0.58987713  1
  O  O356  1  0.75244238  0.22277433  0.92243540  1
  O  O357  1  0.74394601  0.74020222  0.25327831  1
  O  O358  1  0.74897876  0.73418081  0.59279396  1
  O  O359  1  0.74723031  0.72886719  0.91928271  1
