# generated using pymatgen
data_Ba17Sr5La8Pr42Mn72O216
_symmetry_space_group_name_H-M   'P 1'
_cell_length_a   16.67976515
_cell_length_b   15.70722831
_cell_length_c   16.81708653
_cell_angle_alpha   90.00047064
_cell_angle_beta   89.99997278
_cell_angle_gamma   90.02446918
_symmetry_Int_Tables_number   1
_chemical_formula_structural   Ba17Sr5La8Pr42Mn72O216
_chemical_formula_sum   'Ba17 Sr5 La8 Pr42 Mn72 O216'
_cell_volume   4405.95651908
_cell_formula_units_Z   1
loop_
 _symmetry_equiv_pos_site_id
 _symmetry_equiv_pos_as_xyz
  1  'x, y, z'
loop_
 _atom_site_type_symbol
 _atom_site_label
 _atom_site_symmetry_multiplicity
 _atom_site_fract_x
 _atom_site_fract_y
 _atom_site_fract_z
 _atom_site_occupancy
  Ba  Ba0  1  0.50163111  0.12447477  0.83449174  1
  Ba  Ba1  1  0.83512812  0.87581157  0.49494699  1
  Ba  Ba2  1  0.66455091  0.62498805  0.66361330  1
  Ba  Ba3  1  0.49972456  0.37586204  0.83153124  1
  Ba  Ba4  1  0.66558181  0.62643328  0.32957136  1
  Ba  Ba5  1  0.49853062  0.12571900  0.16753040  1
  Ba  Ba6  1  0.66820215  0.62554602  0.99837005  1
  Ba  Ba7  1  0.16334376  0.12518591  0.83748880  1
  Ba  Ba8  1  0.33135494  0.12394275  1.00004951  1
  Ba  Ba9  1  0.66797900  0.37518745  0.66428156  1
  Ba  Ba10  1  0.50061971  0.62548275  0.83326004  1
  Ba  Ba11  1  0.83589029  0.37551993  0.16289668  1
  Ba  Ba12  1  0.66876314  0.87533558  0.33082457  1
  Ba  Ba13  1  0.66814868  0.12421255  0.99586089  1
  Ba  Ba14  1  0.66530285  0.12532920  0.66443903  1
  Ba  Ba15  1  0.33516450  0.87474592  0.00146589  1
  Ba  Ba16  1  0.16427738  0.62547149  0.17236110  1
  Sr  Sr17  1  0.16021156  0.12563121  0.50726379  1
  Sr  Sr18  1  0.50152600  0.87605365  0.83532381  1
  Sr  Sr19  1  0.49986621  0.62821845  0.50217977  1
  Sr  Sr20  1  0.83425321  0.87463244  0.82679730  1
  Sr  Sr21  1  0.83038432  0.62274615  0.16465429  1
  La  La22  1  0.49736987  0.62734948  0.16976308  1
  La  La23  1  0.17196348  0.87594176  0.83584859  1
  La  La24  1  0.83354985  0.37575922  0.83035329  1
  La  La25  1  0.00442107  0.37433458  0.00366173  1
  La  La26  1  0.50276572  0.37868468  0.50081149  1
  La  La27  1  0.33628336  0.87433898  0.67293063  1
  La  La28  1  0.33075200  0.62380207  0.33474795  1
  La  La29  1  0.33110083  0.12483131  0.66823789  1
  Pr  Pr30  1  0.82976658  0.12574016  0.83221452  1
  Pr  Pr31  1  0.32660085  0.12684435  0.33070523  1
  Pr  Pr32  1  0.50726920  0.87496213  0.16250957  1
  Pr  Pr33  1  0.16140307  0.62560158  0.84211236  1
  Pr  Pr34  1  0.82603883  0.62506195  0.83229206  1
  Pr  Pr35  1  0.00672953  0.87258304  0.33775019  1
  Pr  Pr36  1  0.50646935  0.87306077  0.49985556  1
  Pr  Pr37  1  0.82454826  0.62669354  0.49838940  1
  Pr  Pr38  1  0.00379239  0.87552843  0.00339256  1
  Pr  Pr39  1  0.67149995  0.12362405  0.32787345  1
  Pr  Pr40  1  0.17256412  0.87772312  0.50184320  1
  Pr  Pr41  1  0.49637786  0.12228073  0.50526301  1
  Pr  Pr42  1  0.33465679  0.37506506  0.67094931  1
  Pr  Pr43  1  0.16411171  0.12252054  0.16987126  1
  Pr  Pr44  1  0.00548936  0.37757664  0.33774862  1
  Pr  Pr45  1  0.32896395  0.62484624  0.99915310  1
  Pr  Pr46  1  0.17500656  0.36989637  0.50037877  1
  Pr  Pr47  1  0.16257977  0.62325539  0.50679809  1
  Pr  Pr48  1  0.17375130  0.37495767  0.16796435  1
  Pr  Pr49  1  0.83380047  0.87057186  0.16011414  1
  Pr  Pr50  1  0.33981689  0.37524723  0.33529720  1
  Pr  Pr51  1  -0.00482216  0.12602375  0.99724996  1
  Pr  Pr52  1  0.66076962  0.87550991  -0.00272080  1
  Pr  Pr53  1  0.33945909  0.87545833  0.33552008  1
  Pr  Pr54  1  -0.00508090  0.12424899  0.33338891  1
  Pr  Pr55  1  -0.00911325  0.62357006  1.00018516  1
  Pr  Pr56  1  0.50597760  0.37630310  0.16330031  1
  Pr  Pr57  1  -0.00506754  0.12290904  0.66547123  1
  Pr  Pr58  1  0.17424992  0.37409612  0.83604680  1
  Pr  Pr59  1  0.83137477  0.12392304  0.49863570  1
  Pr  Pr60  1  -0.00879685  0.62569155  0.33029706  1
  Pr  Pr61  1  0.33509577  0.62499793  0.66603648  1
  Pr  Pr62  1  0.66342309  0.37473041  -0.00444870  1
  Pr  Pr63  1  0.00483095  0.87558738  0.67127070  1
  Pr  Pr64  1  0.83127824  0.12658646  0.16366748  1
  Pr  Pr65  1  0.67040207  0.37433364  0.33295037  1
  Pr  Pr66  1  0.17393683  0.87330599  0.16731686  1
  Pr  Pr67  1  0.00591224  0.37432352  0.67088291  1
  Pr  Pr68  1  0.34028279  0.37324221  0.00138234  1
  Pr  Pr69  1  -0.00733674  0.62599020  0.66606166  1
  Pr  Pr70  1  0.66495531  0.87272869  0.66669335  1
  Pr  Pr71  1  0.83123397  0.37507735  0.49430738  1
  Mn  Mn72  1  0.00010922  -0.00016577  0.16803049  1
  Mn  Mn73  1  0.00159906  0.00004740  0.50064637  1
  Mn  Mn74  1  -0.00017822  -0.00088290  0.83459953  1
  Mn  Mn75  1  0.00134952  0.49935712  0.16906061  1
  Mn  Mn76  1  0.00025396  0.49974009  0.50189680  1
  Mn  Mn77  1  0.00048463  0.50052916  0.83361857  1
  Mn  Mn78  1  0.33281395  0.00095089  0.17086439  1
  Mn  Mn79  1  0.33172366  -0.00004852  0.50049755  1
  Mn  Mn80  1  0.33358898  -0.00154869  0.83407510  1
  Mn  Mn81  1  0.33354340  0.49926573  0.16880484  1
  Mn  Mn82  1  0.33220581  0.50017554  0.50126550  1
  Mn  Mn83  1  0.33004935  0.50186465  0.83393387  1
  Mn  Mn84  1  0.66873716  0.00064823  0.16427723  1
  Mn  Mn85  1  0.66552429  0.00188627  0.49677046  1
  Mn  Mn86  1  0.66899897  -0.00361146  0.83045233  1
  Mn  Mn87  1  0.66691672  0.49894362  0.16496587  1
  Mn  Mn88  1  0.66650903  0.49881608  0.49652507  1
  Mn  Mn89  1  0.66776579  0.50009334  0.83101090  1
  Mn  Mn90  1  0.00333899  0.24856300  0.16803532  1
  Mn  Mn91  1  -0.00085398  0.25177765  0.50220125  1
  Mn  Mn92  1  -0.00027648  0.25215684  0.83417012  1
  Mn  Mn93  1  -0.00140488  0.75071958  0.16936666  1
  Mn  Mn94  1  0.00231190  0.74820593  0.50069086  1
  Mn  Mn95  1  0.00052999  0.74947301  0.83414517  1
  Mn  Mn96  1  0.33215846  0.25045856  0.16918944  1
  Mn  Mn97  1  0.33329271  0.24906253  0.49994661  1
  Mn  Mn98  1  0.33195810  0.25027618  0.83446136  1
  Mn  Mn99  1  0.33347413  0.74928368  0.17052729  1
  Mn  Mn100  1  0.33134010  0.75073362  0.50158542  1
  Mn  Mn101  1  0.33149614  0.74829983  0.83341005  1
  Mn  Mn102  1  0.66761765  0.24987569  0.16571293  1
  Mn  Mn103  1  0.66459606  0.25042296  0.49453232  1
  Mn  Mn104  1  0.66864304  0.25076306  0.83105085  1
  Mn  Mn105  1  0.66796680  0.75047253  0.16292153  1
  Mn  Mn106  1  0.66639081  0.75082542  0.49829813  1
  Mn  Mn107  1  0.66780933  0.75297524  0.83124035  1
  Mn  Mn108  1  0.16581838  0.25212313  0.00348783  1
  Mn  Mn109  1  0.16509218  0.24897547  0.33592360  1
  Mn  Mn110  1  0.16536169  0.25064551  0.66818429  1
  Mn  Mn111  1  0.16442908  0.74860990  0.00388711  1
  Mn  Mn112  1  0.16747615  0.75068341  0.33912633  1
  Mn  Mn113  1  0.16537947  0.74769468  0.66955304  1
  Mn  Mn114  1  0.50011871  0.25086301  0.00004058  1
  Mn  Mn115  1  0.49940281  0.25042736  0.33600358  1
  Mn  Mn116  1  0.49734545  0.24854152  0.66491734  1
  Mn  Mn117  1  0.49927307  0.74933128  0.00130743  1
  Mn  Mn118  1  0.49784789  0.75032927  0.33391488  1
  Mn  Mn119  1  0.49796244  0.75082550  0.66557099  1
  Mn  Mn120  1  0.83553289  0.25083224  -0.00359700  1
  Mn  Mn121  1  0.83603967  0.25001000  0.33051915  1
  Mn  Mn122  1  0.83621227  0.25004656  0.66286870  1
  Mn  Mn123  1  0.83538642  0.75239123  -0.00540812  1
  Mn  Mn124  1  0.83548854  0.75016269  0.32907781  1
  Mn  Mn125  1  0.83533757  0.75165869  0.66365489  1
  Mn  Mn126  1  0.16406941  -0.00156835  0.00414211  1
  Mn  Mn127  1  0.16603672  0.00144228  0.33658944  1
  Mn  Mn128  1  0.16559690  0.00017928  0.66781388  1
  Mn  Mn129  1  0.16528763  0.50025651  0.00336278  1
  Mn  Mn130  1  0.16642672  0.49817257  0.33924849  1
  Mn  Mn131  1  0.16514073  0.50103704  0.67063771  1
  Mn  Mn132  1  0.50030886  -0.00076769  -0.00121311  1
  Mn  Mn133  1  0.49827064  0.00126667  0.33640105  1
  Mn  Mn134  1  0.49763251  -0.00072907  0.66611382  1
  Mn  Mn135  1  0.49937289  0.49988649  0.00195089  1
  Mn  Mn136  1  0.49923581  0.49970890  0.33198720  1
  Mn  Mn137  1  0.49769835  0.50154512  0.66392706  1
  Mn  Mn138  1  0.83624253  -0.00359177  -0.00503832  1
  Mn  Mn139  1  0.83752916  0.00123289  0.32858684  1
  Mn  Mn140  1  0.83486934  -0.00117570  0.66358503  1
  Mn  Mn141  1  0.83491446  0.49980923  -0.00369741  1
  Mn  Mn142  1  0.83487269  0.49831199  0.33041190  1
  Mn  Mn143  1  0.83710044  0.50000029  0.66234806  1
  O  O144  1  0.15845716  0.12660623  0.02504141  1
  O  O145  1  0.17198859  0.12562030  0.35951628  1
  O  O146  1  0.16438529  0.12794766  0.68120338  1
  O  O147  1  0.16986264  0.62359749  0.01658475  1
  O  O148  1  0.17446233  0.62038880  0.36378328  1
  O  O149  1  0.16506257  0.62331872  0.69838318  1
  O  O150  1  0.50066453  0.12718058  0.00771808  1
  O  O151  1  0.49435332  0.12782376  0.36178625  1
  O  O152  1  0.49484515  0.12329360  0.67487775  1
  O  O153  1  0.49492719  0.62316503  0.02426215  1
  O  O154  1  0.49369050  0.62404640  0.35143147  1
  O  O155  1  0.49385815  0.62600134  0.67355168  1
  O  O156  1  0.83963561  0.12238284  0.02063819  1
  O  O157  1  0.84027977  0.12793172  0.35451966  1
  O  O158  1  0.84126448  0.12308220  0.68809055  1
  O  O159  1  0.83934885  0.62726480  0.01583264  1
  O  O160  1  0.84198576  0.62009408  0.35400002  1
  O  O161  1  0.83999438  0.62596120  0.68766142  1
  O  O162  1  0.15836582  0.37288519  0.31140594  1
  O  O163  1  0.16447316  0.37779390  0.64207313  1
  O  O164  1  0.15879441  0.37912910  0.97947180  1
  O  O165  1  0.15858194  0.88058175  0.30982909  1
  O  O166  1  0.16260851  0.87084885  0.64376094  1
  O  O167  1  0.15840453  0.87015636  0.98153653  1
  O  O168  1  0.49240571  0.37404840  0.30675541  1
  O  O169  1  0.48572086  0.37502095  0.64675002  1
  O  O170  1  0.49260764  0.37674143  0.99136048  1
  O  O171  1  0.48975248  0.87573148  0.30757947  1
  O  O172  1  0.48968852  0.87589540  0.64396916  1
  O  O173  1  0.50246779  0.87285861  0.99048704  1
  O  O174  1  0.83494352  0.37225835  0.31999880  1
  O  O175  1  0.84615718  0.37662063  0.63826761  1
  O  O176  1  0.84662918  0.37481298  0.97550657  1
  O  O177  1  0.84437874  0.88018298  0.30737397  1
  O  O178  1  0.84664938  0.87442461  0.65020723  1
  O  O179  1  0.85073936  0.87477477  0.97491724  1
  O  O180  1  0.00498194  0.37108774  0.19381354  1
  O  O181  1  -0.01062631  0.37617633  0.52825817  1
  O  O182  1  -0.00912592  0.37753614  0.86040758  1
  O  O183  1  -0.01069131  0.87699788  0.19587109  1
  O  O184  1  0.00484634  0.86952648  0.52659598  1
  O  O185  1  -0.00122499  0.86999777  0.85866597  1
  O  O186  1  0.32881226  0.37476729  0.19271794  1
  O  O187  1  0.32934845  0.37305232  0.52798274  1
  O  O188  1  0.32657093  0.38031851  0.85470929  1
  O  O189  1  0.32757316  0.87731713  0.19212209  1
  O  O190  1  0.32549829  0.87314514  0.52915001  1
  O  O191  1  0.32886167  0.87122467  0.84147705  1
  O  O192  1  0.66118759  0.37222770  0.18934619  1
  O  O193  1  0.67612838  0.37348559  0.50682908  1
  O  O194  1  0.67783480  0.37484674  0.84695875  1
  O  O195  1  0.66548641  0.87811532  0.17500146  1
  O  O196  1  0.66397740  0.87835210  0.51793997  1
  O  O197  1  0.67313254  0.87421379  0.85093461  1
  O  O198  1  0.01083793  0.12272127  0.14004248  1
  O  O199  1  0.00240432  0.13038772  0.47622920  1
  O  O200  1  -0.00032740  0.12978266  0.80836145  1
  O  O201  1  0.00048004  0.62844387  0.14523406  1
  O  O202  1  0.01315589  0.62257230  0.47226954  1
  O  O203  1  0.01174952  0.62387203  0.80775430  1
  O  O204  1  0.32556843  0.12731354  0.15776867  1
  O  O205  1  0.33925139  0.12615109  0.47227214  1
  O  O206  1  0.33000501  0.12289139  0.81550767  1
  O  O207  1  0.33735229  0.62087438  0.14413083  1
  O  O208  1  0.32484348  0.62738764  0.47538598  1
  O  O209  1  0.32177368  0.62411128  0.81144856  1
  O  O210  1  0.67500050  0.12454440  0.15255268  1
  O  O211  1  0.65480982  0.12787662  0.47357723  1
  O  O212  1  0.67577709  0.12302371  0.82190442  1
  O  O213  1  0.66209338  0.62442242  0.15527892  1
  O  O214  1  0.66904158  0.62219609  0.48855954  1
  O  O215  1  0.67467130  0.62738231  0.82183993  1
  O  O216  1  0.07860760  0.02342844  0.25924817  1
  O  O217  1  0.07424869  0.01398506  0.59602207  1
  O  O218  1  0.07152960  0.01075795  0.93124147  1
  O  O219  1  0.07602069  0.51433724  0.27013932  1
  O  O220  1  0.07762820  0.52079194  0.59382726  1
  O  O221  1  0.07442955  0.51993348  0.92507262  1
  O  O222  1  0.40472399  0.01620625  0.26602490  1
  O  O223  1  0.40847475  0.02045951  0.58483189  1
  O  O224  1  0.41577811  0.00350604  0.91598505  1
  O  O225  1  0.41052816  0.51957269  0.25482767  1
  O  O226  1  0.40854971  0.51899477  0.58355286  1
  O  O227  1  0.40410505  0.51468783  0.92796110  1
  O  O228  1  0.75529457  0.02094850  0.24674815  1
  O  O229  1  0.75213579  0.01736415  0.57452474  1
  O  O230  1  0.75829617  0.00979341  0.90784349  1
  O  O231  1  0.74736449  0.50545167  0.24916507  1
  O  O232  1  0.75696933  0.51042781  0.57611796  1
  O  O233  1  0.75668375  0.50790543  0.91146537  1
  O  O234  1  0.24095254  0.23410596  0.24461651  1
  O  O235  1  0.24787348  0.23414886  0.57876741  1
  O  O236  1  0.24334774  0.24868629  0.91724977  1
  O  O237  1  0.24962569  0.73897055  0.25799170  1
  O  O238  1  0.24296735  0.72548131  0.58335956  1
  O  O239  1  0.24454483  0.73187061  0.91353294  1
  O  O240  1  0.58748908  0.23522640  0.26027460  1
  O  O241  1  0.57368919  0.24292487  0.57205170  1
  O  O242  1  0.58954186  0.25364337  0.91967130  1
  O  O243  1  0.57172471  0.74193235  0.24178502  1
  O  O244  1  0.57781773  0.75005864  0.58100462  1
  O  O245  1  0.58305359  0.74810675  0.91625063  1
  O  O246  1  0.91768472  0.22477154  0.24437694  1
  O  O247  1  0.91527918  0.22325088  0.57948706  1
  O  O248  1  0.91414643  0.22554675  0.91002316  1
  O  O249  1  0.91414862  0.72872742  0.24550396  1
  O  O250  1  0.91559271  0.72241394  0.57428333  1
  O  O251  1  0.91731411  0.72210994  0.91044911  1
  O  O252  1  0.08973424  0.47826779  0.09454754  1
  O  O253  1  0.08954967  0.47256548  0.43070995  1
  O  O254  1  0.08859328  0.47405570  0.75959596  1
  O  O255  1  0.08644506  0.97294440  0.09583078  1
  O  O256  1  0.09020892  0.97837911  0.42526114  1
  O  O257  1  0.08748247  0.97626756  0.75941200  1
  O  O258  1  0.42032021  0.47960056  0.09283697  1
  O  O259  1  0.41879453  0.47906751  0.41652705  1
  O  O260  1  0.40809118  0.49212884  0.74464073  1
  O  O261  1  0.42056126  0.98618824  0.09748816  1
  O  O262  1  0.41886246  0.97451106  0.42479554  1
  O  O263  1  0.41393386  0.98603775  0.74636899  1
  O  O264  1  0.74891151  0.48352877  0.07461848  1
  O  O265  1  0.75566377  0.48255592  0.41469161  1
  O  O266  1  0.76361012  0.48824750  0.75044133  1
  O  O267  1  0.75723080  0.97597730  0.07712444  1
  O  O268  1  0.75179777  1.00195449  0.41062109  1
  O  O269  1  0.75004892  0.97990113  0.74046768  1
  O  O270  1  0.25258430  0.27485495  0.08101603  1
  O  O271  1  0.25540161  0.27281971  0.41150155  1
  O  O272  1  0.25006679  0.27118199  0.74678578  1
  O  O273  1  0.24984869  0.76266947  0.08970371  1
  O  O274  1  0.25290766  0.77710372  0.41784280  1
  O  O275  1  0.24955955  0.76846944  0.74547947  1
  O  O276  1  0.58312619  0.27079075  0.08478691  1
  O  O277  1  0.58215687  0.27898663  0.41387942  1
  O  O278  1  0.58483041  0.25692733  0.74798561  1
  O  O279  1  0.58675868  0.76806467  0.08006497  1
  O  O280  1  0.57807887  0.76484527  0.41634960  1
  O  O281  1  0.58545370  0.77042960  0.74505356  1
  O  O282  1  0.92759262  0.25887695  0.07477509  1
  O  O283  1  0.91891474  0.27003400  0.41565615  1
  O  O284  1  0.92524206  0.27203600  0.74646627  1
  O  O285  1  0.92018761  0.77039226  0.08034378  1
  O  O286  1  0.93201671  0.76177061  0.40751629  1
  O  O287  1  0.92689603  0.76138438  0.74153649  1
  O  O288  1  0.25636293  0.47743598  0.08098071  1
  O  O289  1  0.25211880  0.47263500  0.41785189  1
  O  O290  1  0.24904508  0.47594389  0.74828600  1
  O  O291  1  0.24483787  0.98757231  0.09140237  1
  O  O292  1  0.25522382  0.97669547  0.41200648  1
  O  O293  1  0.25162096  0.98262648  0.74350630  1
  O  O294  1  0.58619884  0.47675787  0.08136208  1
  O  O295  1  0.58684068  0.47722724  0.40654549  1
  O  O296  1  0.58304087  0.49412194  0.74546943  1
  O  O297  1  0.58482604  0.98309134  0.08216378  1
  O  O298  1  0.57759001  0.98297783  0.41935110  1
  O  O299  1  0.58653188  0.97876510  0.74371289  1
  O  O300  1  0.92673556  0.48962698  0.06965564  1
  O  O301  1  0.92317869  0.47992311  0.41288285  1
  O  O302  1  0.92744700  0.48461101  0.74021456  1
  O  O303  1  0.92264198  0.98117250  0.07893700  1
  O  O304  1  0.92903291  0.98922558  0.40348798  1
  O  O305  1  0.92724661  0.98667740  0.74152161  1
  O  O306  1  0.09242571  0.27209165  0.09541085  1
  O  O307  1  0.08448461  0.27578244  0.42514833  1
  O  O308  1  0.08680556  0.27748222  0.76047826  1
  O  O309  1  0.08367855  0.77454232  0.09413414  1
  O  O310  1  0.09352634  0.77096658  0.42919423  1
  O  O311  1  0.08788193  0.77291772  0.75698812  1
  O  O312  1  0.41682942  0.26974612  0.09172597  1
  O  O313  1  0.41919840  0.27637998  0.42268516  1
  O  O314  1  0.40821129  0.25974663  0.74290542  1
  O  O315  1  0.42632215  0.76286162  0.09827026  1
  O  O316  1  0.41656849  0.77285584  0.42102474  1
  O  O317  1  0.41413245  0.75963128  0.74811678  1
  O  O318  1  0.75048042  0.26657607  0.07306326  1
  O  O319  1  0.74672723  0.26087845  0.40723120  1
  O  O320  1  0.76077856  0.26196576  0.74882372  1
  O  O321  1  0.75291985  0.77357578  0.07348686  1
  O  O322  1  0.75686465  0.75393770  0.41281999  1
  O  O323  1  0.75008852  0.76809885  0.74199833  1
  O  O324  1  0.24284523  0.02032330  0.25089000  1
  O  O325  1  0.24522496  0.01626546  0.57817736  1
  O  O326  1  0.24291576  0.00106685  0.91453237  1
  O  O327  1  0.25028977  0.50966996  0.25519359  1
  O  O328  1  0.24322117  0.52302680  0.58630083  1
  O  O329  1  0.24152086  0.51814915  0.91332459  1
  O  O330  1  0.58414459  0.01646072  0.25784620  1
  O  O331  1  0.57390070  0.00884281  0.57715078  1
  O  O332  1  0.58780707  -0.00217282  0.91563664  1
  O  O333  1  0.57099833  0.50979537  0.24074497  1
  O  O334  1  0.57567430  0.50108013  0.57250611  1
  O  O335  1  0.58352017  0.50072347  0.91978898  1
  O  O336  1  0.91511153  0.03044356  0.24148188  1
  O  O337  1  0.91405377  0.02371136  0.57542642  1
  O  O338  1  0.91556521  0.02550942  0.91053179  1
  O  O339  1  0.91663664  0.51641197  0.24791126  1
  O  O340  1  0.91522169  0.52968027  0.57543265  1
  O  O341  1  0.91357796  0.52603762  0.90537894  1
  O  O342  1  0.07940045  0.22487134  0.25861017  1
  O  O343  1  0.07440145  0.23889201  0.59370611  1
  O  O344  1  0.07177949  0.24007587  0.93086073  1
  O  O345  1  0.07403611  0.73697067  0.26581365  1
  O  O346  1  0.07869946  0.72444750  0.59202535  1
  O  O347  1  0.07709352  0.72805378  0.92293723  1
  O  O348  1  0.40560264  0.23647161  0.26417172  1
  O  O349  1  0.41078873  0.22665906  0.58217748  1
  O  O350  1  0.41218362  0.24773904  0.92070366  1
  O  O351  1  0.40910113  0.72942771  0.25823866  1
  O  O352  1  0.40694069  0.73281259  0.58571229  1
  O  O353  1  0.40810944  0.73149791  0.92735998  1
  O  O354  1  0.75401272  0.22975843  0.24698000  1
  O  O355  1  0.75465519  0.23549036  0.56874546  1
  O  O356  1  0.75818616  0.24151309  0.90836784  1
  O  O357  1  0.75380165  0.74614870  0.23811199  1
  O  O358  1  0.75415317  0.74027246  0.57899436  1
  O  O359  1  0.75792324  0.74016214  0.90785236  1
