# generated using pymatgen
data_Ba17Sr5La8Pr42Mn72O216
_symmetry_space_group_name_H-M   'P 1'
_cell_length_a   16.67634571
_cell_length_b   15.70542925
_cell_length_c   16.81919406
_cell_angle_alpha   89.99737020
_cell_angle_beta   90.04423156
_cell_angle_gamma   90.01343631
_symmetry_Int_Tables_number   1
_chemical_formula_structural   Ba17Sr5La8Pr42Mn72O216
_chemical_formula_sum   'Ba17 Sr5 La8 Pr42 Mn72 O216'
_cell_volume   4405.09968125
_cell_formula_units_Z   1
loop_
 _symmetry_equiv_pos_site_id
 _symmetry_equiv_pos_as_xyz
  1  'x, y, z'
loop_
 _atom_site_type_symbol
 _atom_site_label
 _atom_site_symmetry_multiplicity
 _atom_site_fract_x
 _atom_site_fract_y
 _atom_site_fract_z
 _atom_site_occupancy
  Ba  Ba0  1  0.17014290  0.37487658  0.16108762  1
  Ba  Ba1  1  0.33409593  0.87651389  0.33456329  1
  Ba  Ba2  1  -0.00172877  0.12291828  0.66138340  1
  Ba  Ba3  1  0.16719440  0.87470376  0.82996360  1
  Ba  Ba4  1  0.33365556  0.87531311  0.00188053  1
  Ba  Ba5  1  0.66827359  0.87508135  0.00761932  1
  Ba  Ba6  1  0.16749081  0.37547486  0.82691582  1
  Ba  Ba7  1  -0.00257221  0.12661020  0.99541854  1
  Ba  Ba8  1  0.16630972  0.37491889  0.49391954  1
  Ba  Ba9  1  0.33259305  0.37727403  0.66652582  1
  Ba  Ba10  1  0.66793210  0.87361203  0.67361949  1
  Ba  Ba11  1  0.33537032  0.62609138  0.33267106  1
  Ba  Ba12  1  -0.00071459  0.62659404  0.66067817  1
  Ba  Ba13  1  0.49971329  0.12649997  0.83801643  1
  Ba  Ba14  1  -0.00229611  0.62342696  0.99361146  1
  Ba  Ba15  1  0.83146120  0.12462048  0.50240199  1
  Ba  Ba16  1  0.16788220  0.87508110  0.16232433  1
  Sr  Sr17  1  0.32998118  0.12521332  0.33239935  1
  Sr  Sr18  1  0.66606960  0.62444382  0.33632994  1
  Sr  Sr19  1  0.83655374  0.87430427  0.16588960  1
  Sr  Sr20  1  -0.00045833  0.87520287  0.32654160  1
  Sr  Sr21  1  0.33124703  0.62320232  0.66417166  1
  La  La22  1  0.66786913  0.37714729  0.34340479  1
  La  La23  1  -0.00120789  0.87642047  0.66110119  1
  La  La24  1  0.17014351  0.62677283  0.49651619  1
  La  La25  1  0.49445447  0.12190455  0.50879302  1
  La  La26  1  0.84020702  0.37615269  0.83270604  1
  La  La27  1  0.66982021  0.37388929  0.67143803  1
  La  La28  1  0.83088692  0.62744086  0.50012815  1
  La  La29  1  0.83625989  0.37609630  0.16680470  1
  Pr  Pr30  1  0.66602340  0.37223510  0.00590938  1
  Pr  Pr31  1  0.66138717  0.12362721  0.66784452  1
  Pr  Pr32  1  0.50381020  0.37597528  0.83210108  1
  Pr  Pr33  1  0.50294799  0.62939390  0.17422203  1
  Pr  Pr34  1  0.82811715  0.62679223  0.83745709  1
  Pr  Pr35  1  0.66992140  0.87304060  0.34058914  1
  Pr  Pr36  1  0.16760449  0.12126029  0.16411674  1
  Pr  Pr37  1  0.66251250  0.12558483  0.33827721  1
  Pr  Pr38  1  0.17030159  0.62255216  0.82816425  1
  Pr  Pr39  1  0.00028809  0.12592943  0.32471681  1
  Pr  Pr40  1  0.32630467  0.12515073  0.99845325  1
  Pr  Pr41  1  0.66384629  0.62334418  1.00457795  1
  Pr  Pr42  1  0.82827162  0.12321203  0.83646342  1
  Pr  Pr43  1  0.50010280  0.87245989  0.16822158  1
  Pr  Pr44  1  0.50097904  0.37852645  0.17219814  1
  Pr  Pr45  1  0.00412199  0.37241256  0.66331608  1
  Pr  Pr46  1  0.00182908  0.62371426  0.32357199  1
  Pr  Pr47  1  0.83586828  0.87490335  0.49815386  1
  Pr  Pr48  1  0.83010173  0.12195294  0.17302184  1
  Pr  Pr49  1  0.16117930  0.87389402  0.48923031  1
  Pr  Pr50  1  0.33449896  0.37328210  0.34056849  1
  Pr  Pr51  1  0.16246444  0.12209229  0.49520777  1
  Pr  Pr52  1  0.33696052  0.87421712  0.67160093  1
  Pr  Pr53  1  0.66321963  0.62594350  0.66752559  1
  Pr  Pr54  1  0.66390156  0.12472421  1.00395492  1
  Pr  Pr55  1  0.49742191  0.62516754  0.83689778  1
  Pr  Pr56  1  0.17042018  0.62850683  0.16425301  1
  Pr  Pr57  1  0.84172125  0.87439263  0.83586104  1
  Pr  Pr58  1  0.83814928  0.37571117  0.49955434  1
  Pr  Pr59  1  0.49664443  0.62848520  0.50600721  1
  Pr  Pr60  1  0.32894137  0.62547856  0.99992261  1
  Pr  Pr61  1  0.00200317  0.87460805  0.00460874  1
  Pr  Pr62  1  0.33926610  0.37338756  0.00062372  1
  Pr  Pr63  1  0.49758101  0.37717273  0.50076896  1
  Pr  Pr64  1  0.32458118  0.12671989  0.66531387  1
  Pr  Pr65  1  0.00203891  0.37427124  0.33108686  1
  Pr  Pr66  1  0.16796452  0.12814445  0.83033449  1
  Pr  Pr67  1  0.83123483  0.62816279  0.17111757  1
  Pr  Pr68  1  0.49909339  0.12126108  0.17287932  1
  Pr  Pr69  1  0.50350640  0.87483672  0.83554165  1
  Pr  Pr70  1  0.50323091  0.87409272  0.50324860  1
  Pr  Pr71  1  0.00533188  0.37475864  -0.00282609  1
  Mn  Mn72  1  -0.00260982  0.00068095  0.16244213  1
  Mn  Mn73  1  -0.00122383  -0.00184446  0.49329381  1
  Mn  Mn74  1  -0.00123556  -0.00007172  0.83092352  1
  Mn  Mn75  1  -0.00064392  0.49984158  0.16136408  1
  Mn  Mn76  1  -0.00192593  0.50154135  0.49276625  1
  Mn  Mn77  1  -0.00151289  0.50118304  0.82721124  1
  Mn  Mn78  1  0.33600991  0.00230865  0.16685933  1
  Mn  Mn79  1  0.33218256  0.00004278  0.50271554  1
  Mn  Mn80  1  0.33465555  -0.00000978  0.83335002  1
  Mn  Mn81  1  0.33721505  0.49899990  0.16583348  1
  Mn  Mn82  1  0.33434955  0.50064901  0.49878499  1
  Mn  Mn83  1  0.33571697  0.50296645  0.83348479  1
  Mn  Mn84  1  0.66709272  0.00151446  0.17331416  1
  Mn  Mn85  1  0.66598249  -0.00119762  0.50354990  1
  Mn  Mn86  1  0.66729952  0.00005873  0.83907941  1
  Mn  Mn87  1  0.66751234  0.49788925  0.17169365  1
  Mn  Mn88  1  0.66592953  0.50194507  0.50477481  1
  Mn  Mn89  1  0.66690416  0.49982907  0.83718357  1
  Mn  Mn90  1  -0.00176082  0.25096791  0.16180235  1
  Mn  Mn91  1  -0.00128140  0.25082808  0.49457194  1
  Mn  Mn92  1  -0.00194266  0.24930622  0.82876140  1
  Mn  Mn93  1  -0.00181158  0.74849061  0.16205824  1
  Mn  Mn94  1  -0.00132151  0.74943689  0.49178470  1
  Mn  Mn95  1  -0.00040856  0.74966222  0.82933122  1
  Mn  Mn96  1  0.33698071  0.25031792  0.16768752  1
  Mn  Mn97  1  0.33345603  0.24723152  0.49829186  1
  Mn  Mn98  1  0.33531607  0.25012199  0.83346693  1
  Mn  Mn99  1  0.33609927  0.74925514  0.16565200  1
  Mn  Mn100  1  0.33364149  0.75094190  0.50305522  1
  Mn  Mn101  1  0.33506662  0.74885471  0.83255336  1
  Mn  Mn102  1  0.66597424  0.25138287  0.17284277  1
  Mn  Mn103  1  0.66454228  0.25110553  0.50496565  1
  Mn  Mn104  1  0.66822277  0.25126214  0.83819034  1
  Mn  Mn105  1  0.66860290  0.74914158  0.17296423  1
  Mn  Mn106  1  0.66748704  0.74889211  0.50361526  1
  Mn  Mn107  1  0.66638300  0.74819076  0.83896416  1
  Mn  Mn108  1  0.16810731  0.25135687  -0.00449760  1
  Mn  Mn109  1  0.16682531  0.24818280  0.32690975  1
  Mn  Mn110  1  0.16505774  0.24819809  0.66157446  1
  Mn  Mn111  1  0.16566830  0.74710301  -0.00443115  1
  Mn  Mn112  1  0.16539905  0.74983018  0.32964265  1
  Mn  Mn113  1  0.16884244  0.75076123  0.66040035  1
  Mn  Mn114  1  0.50043261  0.25202355  0.00602290  1
  Mn  Mn115  1  0.50055573  0.24856192  0.33750200  1
  Mn  Mn116  1  0.49973213  0.25050910  0.66915601  1
  Mn  Mn117  1  0.50091940  0.74724592  0.00374719  1
  Mn  Mn118  1  0.50320461  0.75132867  0.33739302  1
  Mn  Mn119  1  0.49928812  0.74899181  0.67112248  1
  Mn  Mn120  1  0.83111159  0.25174157  0.00134085  1
  Mn  Mn121  1  0.83235197  0.25058855  0.33376460  1
  Mn  Mn122  1  0.83135002  0.25182641  0.66813521  1
  Mn  Mn123  1  0.83142601  0.74851585  0.00206735  1
  Mn  Mn124  1  0.83387540  0.75067220  0.33371909  1
  Mn  Mn125  1  0.83274399  0.74965692  0.66849395  1
  Mn  Mn126  1  0.16541728  0.00234388  -0.00397554  1
  Mn  Mn127  1  0.16539716  0.00041735  0.32995643  1
  Mn  Mn128  1  0.16771100  -0.00216465  0.66035754  1
  Mn  Mn129  1  0.16861996  0.49998605  -0.00446845  1
  Mn  Mn130  1  0.16702365  0.50113773  0.32665592  1
  Mn  Mn131  1  0.16568894  0.50270985  0.66128509  1
  Mn  Mn132  1  0.50044261  0.00095434  0.00516418  1
  Mn  Mn133  1  0.50162397  0.00013985  0.33856444  1
  Mn  Mn134  1  0.49859934  -0.00022194  0.67117647  1
  Mn  Mn135  1  0.50062031  0.49941229  0.00323644  1
  Mn  Mn136  1  0.50214060  0.50059084  0.33596758  1
  Mn  Mn137  1  0.50144484  0.49982523  0.66887029  1
  Mn  Mn138  1  0.83181356  0.00112615  0.00276640  1
  Mn  Mn139  1  0.83316798  -0.00083007  0.33395906  1
  Mn  Mn140  1  0.83152408  -0.00167377  0.66926005  1
  Mn  Mn141  1  0.83046313  0.49758818  0.00055058  1
  Mn  Mn142  1  0.83323627  0.49979568  0.33348201  1
  Mn  Mn143  1  0.83181004  0.50073957  0.66645413  1
  O  O144  1  0.17148142  0.13032892  0.01790712  1
  O  O145  1  0.15994795  0.12487485  0.35083786  1
  O  O146  1  0.16826368  0.12111639  0.68534364  1
  O  O147  1  0.17095731  0.61993608  0.01938186  1
  O  O148  1  0.15971872  0.62517628  0.34963080  1
  O  O149  1  0.16585673  0.62829530  0.68316879  1
  O  O150  1  0.50721487  0.13201695  0.02976791  1
  O  O151  1  0.50898780  0.12470480  0.36578238  1
  O  O152  1  0.50454568  0.12494335  0.68036674  1
  O  O153  1  0.50591753  0.62007927  0.03168019  1
  O  O154  1  0.50427822  0.62433334  0.36152939  1
  O  O155  1  0.50433180  0.62336686  0.69153076  1
  O  O156  1  0.82989037  0.13047857  0.02850077  1
  O  O157  1  0.84661802  0.12670096  0.34619433  1
  O  O158  1  0.82927256  0.12703753  0.69130841  1
  O  O159  1  0.82935229  0.61898564  0.02665686  1
  O  O160  1  0.84486092  0.62298843  0.35647351  1
  O  O161  1  0.83066079  0.62413035  0.69284043  1
  O  O162  1  0.16807729  0.37364792  0.31733060  1
  O  O163  1  0.15912863  0.37487405  0.65162444  1
  O  O164  1  0.16970975  0.37602191  0.98377950  1
  O  O165  1  0.16530539  0.87539012  0.32106309  1
  O  O166  1  0.17811590  0.87506550  0.63480603  1
  O  O167  1  0.15914269  0.87521313  0.98839321  1
  O  O168  1  0.50105144  0.37295838  0.31473657  1
  O  O169  1  0.50778523  0.37597840  0.64543681  1
  O  O170  1  0.50076272  0.37728212  0.97459961  1
  O  O171  1  0.50917819  0.87832313  0.31182953  1
  O  O172  1  0.49481343  0.87469105  0.64803671  1
  O  O173  1  0.50141371  0.86933538  0.97938864  1
  O  O174  1  0.82056195  0.37518565  0.31094468  1
  O  O175  1  0.82134971  0.37830117  0.64262093  1
  O  O176  1  0.81729715  0.37457373  0.97616431  1
  O  O177  1  0.81917586  0.87532481  0.31444599  1
  O  O178  1  0.83146920  0.87146953  0.64432447  1
  O  O179  1  0.83223744  0.87502357  0.97998653  1
  O  O180  1  -0.00042823  0.37575529  0.18756105  1
  O  O181  1  -0.00270293  0.37874683  0.51790043  1
  O  O182  1  -0.00258853  0.37566906  0.85204474  1
  O  O183  1  0.00063256  0.87395024  0.17602346  1
  O  O184  1  0.00693880  0.87237245  0.51485288  1
  O  O185  1  -0.00568654  0.87531917  0.85978841  1
  O  O186  1  0.33916800  0.37342737  0.19664466  1
  O  O187  1  0.33768147  0.37371443  0.50879698  1
  O  O188  1  0.33945149  0.37870898  0.85687689  1
  O  O189  1  0.34001112  0.87666607  0.17692263  1
  O  O190  1  0.32959807  0.87666028  0.52605760  1
  O  O191  1  0.33738568  0.87381844  0.84666294  1
  O  O192  1  0.66543099  0.37385387  0.20108271  1
  O  O193  1  0.66755198  0.38016780  0.52745077  1
  O  O194  1  0.66232953  0.37717035  0.86280075  1
  O  O195  1  0.66400752  0.87837515  0.19650375  1
  O  O196  1  0.67249220  0.87384857  0.51684326  1
  O  O197  1  0.65921407  0.87074698  0.85140935  1
  O  O198  1  -0.01624449  0.12816776  0.15297192  1
  O  O199  1  0.00130078  0.12332574  0.47267697  1
  O  O200  1  -0.01168309  0.12560418  0.81739305  1
  O  O201  1  -0.01583855  0.62226917  0.15017344  1
  O  O202  1  -0.01176176  0.62562256  0.46902520  1
  O  O203  1  -0.01420704  0.62369721  0.81678583  1
  O  O204  1  0.34673393  0.12901990  0.14302002  1
  O  O205  1  0.34366102  0.12295160  0.48125048  1
  O  O206  1  0.33223517  0.12275097  0.81027675  1
  O  O207  1  0.34634292  0.62115596  0.14563784  1
  O  O208  1  0.34365297  0.62502986  0.48836571  1
  O  O209  1  0.34504376  0.62628044  0.81287784  1
  O  O210  1  0.66431500  0.13023306  0.14647887  1
  O  O211  1  0.65793206  0.12131738  0.48198358  1
  O  O212  1  0.67348718  0.12962604  0.81137068  1
  O  O213  1  0.66398054  0.61821128  0.14764606  1
  O  O214  1  0.66317107  0.62480836  0.48373100  1
  O  O215  1  0.66823049  0.62193553  0.81059653  1
  O  O216  1  0.08047735  0.02345044  0.24305450  1
  O  O217  1  0.08948310  0.00985865  0.56897795  1
  O  O218  1  0.08642207  0.01848680  0.90444975  1
  O  O219  1  0.08346646  0.52291602  0.23927034  1
  O  O220  1  0.08429873  0.51934809  0.56650396  1
  O  O221  1  0.08733221  0.51555920  0.90248654  1
  O  O222  1  0.42065592  0.01857814  0.25709690  1
  O  O223  1  0.40821517  0.01537904  0.59645259  1
  O  O224  1  0.41089209  0.01719844  0.92777111  1
  O  O225  1  0.42550503  0.51276252  0.24515197  1
  O  O226  1  0.42310587  0.51132047  0.57935355  1
  O  O227  1  0.41547819  0.52230754  0.92469936  1
  O  O228  1  0.74546256  0.02713402  0.25907098  1
  O  O229  1  0.73944045  0.01800880  0.59627680  1
  O  O230  1  0.74502730  0.02471031  0.92714364  1
  O  O231  1  0.75402064  0.52113571  0.25122971  1
  O  O232  1  0.74415805  0.52507074  0.59123225  1
  O  O233  1  0.74346935  0.52451580  0.92347692  1
  O  O234  1  0.24647920  0.22660475  0.23863184  1
  O  O235  1  0.24677272  0.22597868  0.57522048  1
  O  O236  1  0.24908762  0.22834754  0.91019604  1
  O  O237  1  0.24740686  0.73376712  0.24255161  1
  O  O238  1  0.24984871  0.72747311  0.57959897  1
  O  O239  1  0.25064064  0.72542640  0.91071067  1
  O  O240  1  0.58267380  0.22699620  0.25491508  1
  O  O241  1  0.57849768  0.23229633  0.58369047  1
  O  O242  1  0.58817335  0.23837506  0.92816627  1
  O  O243  1  0.58485775  0.73164815  0.25465955  1
  O  O244  1  0.58010869  0.73137237  0.58679144  1
  O  O245  1  0.58169279  0.72218874  0.92162799  1
  O  O246  1  0.91322447  0.24282936  0.24652232  1
  O  O247  1  0.91200575  0.25041274  0.57924545  1
  O  O248  1  0.90791321  0.24343756  0.90710351  1
  O  O249  1  0.91524100  0.73352124  0.24787341  1
  O  O250  1  0.91046750  0.74061991  0.57141984  1
  O  O251  1  0.90200093  0.73777768  0.90926856  1
  O  O252  1  0.07823020  0.48525431  0.07256487  1
  O  O253  1  0.07319088  0.48933322  0.40066539  1
  O  O254  1  0.07678126  0.48945824  0.73886708  1
  O  O255  1  0.08036131  0.99431724  0.07651022  1
  O  O256  1  0.08069396  0.98549807  0.40996842  1
  O  O257  1  0.08184633  0.98135485  0.73518397  1
  O  O258  1  0.42143330  0.47156341  0.08547506  1
  O  O259  1  0.41938022  0.47821187  0.41525505  1
  O  O260  1  0.42835954  0.48545521  0.76095952  1
  O  O261  1  0.42701666  0.98745983  0.09518443  1
  O  O262  1  0.42697728  0.98227653  0.43269523  1
  O  O263  1  0.42236997  0.97764952  0.75773534  1
  O  O264  1  0.74881436  0.47573982  0.08953834  1
  O  O265  1  0.75144019  0.48487346  0.42442934  1
  O  O266  1  0.75228269  0.48050369  0.75948152  1
  O  O267  1  0.75627523  0.99513699  0.09675448  1
  O  O268  1  0.75092131  0.98428405  0.42131088  1
  O  O269  1  0.75891320  0.98676191  0.76777705  1
  O  O270  1  0.26323599  0.26221453  0.07236150  1
  O  O271  1  0.25749557  0.25774719  0.40587361  1
  O  O272  1  0.25081843  0.25167157  0.74244046  1
  O  O273  1  0.25350945  0.74616862  0.08056895  1
  O  O274  1  0.24447746  0.75977432  0.42196585  1
  O  O275  1  0.25605876  0.76102682  0.74122387  1
  O  O276  1  0.58513745  0.27746229  0.09019190  1
  O  O277  1  0.58524115  0.27394146  0.41884526  1
  O  O278  1  0.58934074  0.27081190  0.75333425  1
  O  O279  1  0.58121810  0.76194371  0.09358107  1
  O  O280  1  0.58596019  0.77227257  0.42094926  1
  O  O281  1  0.57842830  0.75879035  0.75989638  1
  O  O282  1  0.91703643  0.27961121  0.07715510  1
  O  O283  1  0.91525691  0.27658716  0.41162118  1
  O  O284  1  0.91714924  0.27628883  0.74344177  1
  O  O285  1  0.91877048  0.76855167  0.07620221  1
  O  O286  1  0.91424072  0.77511955  0.41388609  1
  O  O287  1  0.91938503  0.77485021  0.74507106  1
  O  O288  1  0.26356604  0.48805919  0.07386552  1
  O  O289  1  0.25558743  0.48979528  0.40819482  1
  O  O290  1  0.25255624  0.50034596  0.75096252  1
  O  O291  1  0.25198607  1.00403731  0.07943693  1
  O  O292  1  0.24499328  0.99063729  0.42267585  1
  O  O293  1  0.25949799  0.98761728  0.73725758  1
  O  O294  1  0.58597134  0.47463180  0.08474117  1
  O  O295  1  0.58332762  0.47716484  0.42293180  1
  O  O296  1  0.58931789  0.47883056  0.75168139  1
  O  O297  1  0.58234260  0.98791070  0.09628157  1
  O  O298  1  0.58788407  0.97525000  0.41731804  1
  O  O299  1  0.58297120  0.98898251  0.75538695  1
  O  O300  1  0.91638079  0.47136821  0.07696697  1
  O  O301  1  0.91539604  0.47072173  0.41052498  1
  O  O302  1  0.91811279  0.47343492  0.74004105  1
  O  O303  1  0.91953065  0.98023870  0.07551446  1
  O  O304  1  0.91408945  0.97611462  0.41410733  1
  O  O305  1  0.91894838  0.97488940  0.74676807  1
  O  O306  1  0.07958075  0.26384068  0.07390783  1
  O  O307  1  0.07492022  0.26130894  0.40214165  1
  O  O308  1  0.07738392  0.25956017  0.73981271  1
  O  O309  1  0.07920802  0.75689314  0.07574096  1
  O  O310  1  0.07923818  0.76240421  0.40823502  1
  O  O311  1  0.08174402  0.76887185  0.73335477  1
  O  O312  1  0.42367394  0.27872274  0.09167426  1
  O  O313  1  0.42209484  0.26993232  0.42071805  1
  O  O314  1  0.42500157  0.26869847  0.75978423  1
  O  O315  1  0.42413427  0.76140236  0.08906301  1
  O  O316  1  0.42496694  0.76751536  0.42738425  1
  O  O317  1  0.42121932  0.77176939  0.75541292  1
  O  O318  1  0.74914452  0.27289071  0.09250187  1
  O  O319  1  0.74990790  0.26755595  0.42278211  1
  O  O320  1  0.75456527  0.27313197  0.76002729  1
  O  O321  1  0.75538447  0.75441034  0.09379296  1
  O  O322  1  0.75435615  0.76265587  0.42247644  1
  O  O323  1  0.75779862  0.76067697  0.76683515  1
  O  O324  1  0.24798960  0.02064389  0.24435673  1
  O  O325  1  0.24827584  0.02939399  0.57868315  1
  O  O326  1  0.24711680  0.02278425  0.90986959  1
  O  O327  1  0.24718738  0.51917270  0.23747750  1
  O  O328  1  0.24907196  0.51659658  0.57597725  1
  O  O329  1  0.25219848  0.52597605  0.91237847  1
  O  O330  1  0.58427435  0.02661273  0.25627077  1
  O  O331  1  0.57487724  0.01179708  0.58095532  1
  O  O332  1  0.58514461  0.01612980  0.92592811  1
  O  O333  1  0.58385011  0.51596257  0.25343998  1
  O  O334  1  0.58262384  0.52391682  0.58588766  1
  O  O335  1  0.57987398  0.52258229  0.91692866  1
  O  O336  1  0.91292533  0.01253905  0.24594968  1
  O  O337  1  0.91545607  -0.00125959  0.57735065  1
  O  O338  1  0.90313188  0.01256249  0.90933879  1
  O  O339  1  0.91698012  0.51132849  0.24794042  1
  O  O340  1  0.90618089  0.51214498  0.56914885  1
  O  O341  1  0.90636149  0.50651492  0.90594912  1
  O  O342  1  0.08157449  0.22740319  0.24197792  1
  O  O343  1  0.08568746  0.23424192  0.57177152  1
  O  O344  1  0.08570058  0.23662049  0.90524472  1
  O  O345  1  0.08174261  0.72596282  0.24128188  1
  O  O346  1  0.08953907  0.73660370  0.56604183  1
  O  O347  1  0.08739550  0.73141908  0.90243035  1
  O  O348  1  0.41967679  0.23014605  0.25555077  1
  O  O349  1  0.41180403  0.23220493  0.58742805  1
  O  O350  1  0.41023573  0.23771787  0.93311492  1
  O  O351  1  0.42483428  0.74038262  0.24792745  1
  O  O352  1  0.41888092  0.73600024  0.58832223  1
  O  O353  1  0.41856285  0.72580144  0.92202605  1
  O  O354  1  0.74681705  0.22491615  0.25629021  1
  O  O355  1  0.73796239  0.23450556  0.59855123  1
  O  O356  1  0.74626033  0.22543080  0.92379844  1
  O  O357  1  0.75110137  0.72705656  0.25512435  1
  O  O358  1  0.74613305  0.72598683  0.59063650  1
  O  O359  1  0.74326036  0.72414910  0.92659930  1
