# generated using pymatgen
data_Ba17Sr5La8Pr42Mn72O216
_symmetry_space_group_name_H-M   'P 1'
_cell_length_a   16.67432565
_cell_length_b   15.70456247
_cell_length_c   16.82383612
_cell_angle_alpha   90.01016424
_cell_angle_beta   90.00664983
_cell_angle_gamma   90.03816127
_symmetry_Int_Tables_number   1
_chemical_formula_structural   Ba17Sr5La8Pr42Mn72O216
_chemical_formula_sum   'Ba17 Sr5 La8 Pr42 Mn72 O216'
_cell_volume   4405.53893272
_cell_formula_units_Z   1
loop_
 _symmetry_equiv_pos_site_id
 _symmetry_equiv_pos_as_xyz
  1  'x, y, z'
loop_
 _atom_site_type_symbol
 _atom_site_label
 _atom_site_symmetry_multiplicity
 _atom_site_fract_x
 _atom_site_fract_y
 _atom_site_fract_z
 _atom_site_occupancy
  Ba  Ba0  1  0.33309251  0.87883028  0.66766212  1
  Ba  Ba1  1  0.66320129  0.62329107  1.00159817  1
  Ba  Ba2  1  0.83446604  0.62744135  0.50226449  1
  Ba  Ba3  1  0.49741142  0.62697639  0.83698060  1
  Ba  Ba4  1  -0.00121001  0.87405352  0.00238757  1
  Ba  Ba5  1  0.49808907  0.62530361  0.16784799  1
  Ba  Ba6  1  0.66725723  0.37400650  0.66689291  1
  Ba  Ba7  1  0.16693611  0.37492055  0.82853720  1
  Ba  Ba8  1  0.49868915  0.62557479  0.50214146  1
  Ba  Ba9  1  0.50463018  0.37430317  0.50321915  1
  Ba  Ba10  1  -0.00073486  0.12388182  0.33173770  1
  Ba  Ba11  1  0.83460948  0.12324832  0.50070186  1
  Ba  Ba12  1  0.66468260  0.12588733  1.00054374  1
  Ba  Ba13  1  -0.00165534  0.62471873  0.66711232  1
  Ba  Ba14  1  0.16957942  0.37347347  0.49756432  1
  Ba  Ba15  1  0.00308580  0.87600621  0.33157644  1
  Ba  Ba16  1  0.33404503  0.62439445  0.33094870  1
  Sr  Sr17  1  0.32772804  0.12419259  0.66509569  1
  Sr  Sr18  1  0.16446622  0.62672090  0.82980264  1
  Sr  Sr19  1  0.83542244  0.87567211  0.16580028  1
  Sr  Sr20  1  0.32792302  0.12538118  0.99854427  1
  Sr  Sr21  1  0.66693576  0.37532021  -0.00040940  1
  La  La22  1  0.67300278  0.37668848  0.33808228  1
  La  La23  1  0.33476652  0.87765952  -0.00044314  1
  La  La24  1  -0.00382136  0.62567252  0.99394942  1
  La  La25  1  0.50464586  0.37605995  0.16715948  1
  La  La26  1  -0.00277603  0.37567942  0.66573478  1
  La  La27  1  0.16551984  0.62745667  0.50096432  1
  La  La28  1  0.83219946  0.62840112  0.17003800  1
  La  La29  1  0.33936621  0.37428392  0.67021761  1
  Pr  Pr30  1  0.00136069  0.62378971  0.33282537  1
  Pr  Pr31  1  0.66570861  0.87278409  0.00730471  1
  Pr  Pr32  1  0.00436949  0.37777808  0.00014123  1
  Pr  Pr33  1  0.16860901  0.87622299  0.16236409  1
  Pr  Pr34  1  0.33927899  0.37252092  -0.00248032  1
  Pr  Pr35  1  0.50756682  0.37203633  0.83061366  1
  Pr  Pr36  1  0.83156583  0.12742011  0.83605100  1
  Pr  Pr37  1  0.83144804  0.37520914  0.83307069  1
  Pr  Pr38  1  0.17243903  0.87515899  0.49731111  1
  Pr  Pr39  1  0.50800825  0.87867273  0.83495043  1
  Pr  Pr40  1  0.16642590  0.12331647  0.83257265  1
  Pr  Pr41  1  0.66467419  0.62185083  0.32961699  1
  Pr  Pr42  1  0.84037280  0.37288970  0.16420502  1
  Pr  Pr43  1  0.83859848  0.37702613  0.49765658  1
  Pr  Pr44  1  0.16289021  0.62653278  0.16641922  1
  Pr  Pr45  1  0.50212009  0.87429776  0.16631110  1
  Pr  Pr46  1  0.82986365  0.11895441  0.17192005  1
  Pr  Pr47  1  0.82758042  0.87442273  0.83755664  1
  Pr  Pr48  1  0.49611455  0.12564554  0.50413424  1
  Pr  Pr49  1  0.33963628  0.87423472  0.33654895  1
  Pr  Pr50  1  0.66849917  0.87341041  0.66645894  1
  Pr  Pr51  1  0.67139663  0.87297913  0.33581727  1
  Pr  Pr52  1  0.49245340  0.12612995  0.16857622  1
  Pr  Pr53  1  0.32798046  0.62491499  0.99584635  1
  Pr  Pr54  1  0.83765005  0.87327202  0.49802928  1
  Pr  Pr55  1  0.16299040  0.87615037  0.82835815  1
  Pr  Pr56  1  -0.00450220  0.87466759  0.66911080  1
  Pr  Pr57  1  0.32818475  0.12903926  0.33079837  1
  Pr  Pr58  1  0.16359006  0.12288580  0.49958193  1
  Pr  Pr59  1  0.66408922  0.12711393  0.32818104  1
  Pr  Pr60  1  0.00453707  0.37386237  0.33671315  1
  Pr  Pr61  1  0.16005896  0.12239615  0.16502478  1
  Pr  Pr62  1  0.48913984  0.12502668  0.83698857  1
  Pr  Pr63  1  0.17352527  0.37299353  0.16031923  1
  Pr  Pr64  1  0.66243612  0.62493058  0.66600961  1
  Pr  Pr65  1  0.82908440  0.62217140  0.83656696  1
  Pr  Pr66  1  0.66011211  0.12502440  0.66497939  1
  Pr  Pr67  1  0.32662451  0.62442345  0.66205525  1
  Pr  Pr68  1  0.00093004  0.12804902  0.66198889  1
  Pr  Pr69  1  0.34415456  0.37593672  0.33645652  1
  Pr  Pr70  1  -0.00215850  0.12368883  0.99690352  1
  Pr  Pr71  1  0.50411284  0.87732664  0.49862717  1
  Mn  Mn72  1  -0.00066697  -0.00081805  0.16442677  1
  Mn  Mn73  1  0.00235974  -0.00069641  0.50219318  1
  Mn  Mn74  1  -0.00356097  0.00042479  0.83134495  1
  Mn  Mn75  1  0.00190032  0.49967297  0.16642213  1
  Mn  Mn76  1  0.00211350  0.49935892  0.49828568  1
  Mn  Mn77  1  -0.00158026  0.49974332  0.83365369  1
  Mn  Mn78  1  0.33242901  0.00146986  0.16784149  1
  Mn  Mn79  1  0.33473749  0.00105959  0.49821620  1
  Mn  Mn80  1  0.33091146  -0.00026039  0.83543481  1
  Mn  Mn81  1  0.33239942  0.49694887  0.16449268  1
  Mn  Mn82  1  0.33327079  0.49909402  0.49975840  1
  Mn  Mn83  1  0.33275630  0.50052255  0.83311028  1
  Mn  Mn84  1  0.66516617  0.00027838  0.16798906  1
  Mn  Mn85  1  0.66746619  0.00112254  0.49996578  1
  Mn  Mn86  1  0.66708888  0.00082116  0.83335490  1
  Mn  Mn87  1  0.66857741  0.49730928  0.16773251  1
  Mn  Mn88  1  0.66927808  0.50117300  0.50091900  1
  Mn  Mn89  1  0.66599691  0.49891662  0.83459617  1
  Mn  Mn90  1  0.00044842  0.25122319  0.16436762  1
  Mn  Mn91  1  0.00161757  0.24907880  0.49871035  1
  Mn  Mn92  1  -0.00262376  0.24864110  0.83145373  1
  Mn  Mn93  1  0.00102745  0.74796913  0.16603425  1
  Mn  Mn94  1  0.00307454  0.75257936  0.50037953  1
  Mn  Mn95  1  -0.00232666  0.75103262  0.83433789  1
  Mn  Mn96  1  0.33271973  0.24875168  0.16559679  1
  Mn  Mn97  1  0.33401683  0.24826170  0.49970955  1
  Mn  Mn98  1  0.33208246  0.24767635  0.83361174  1
  Mn  Mn99  1  0.33193765  0.75320339  0.16538886  1
  Mn  Mn100  1  0.33442886  0.75196193  0.50052723  1
  Mn  Mn101  1  0.33035281  0.75224759  0.83345611  1
  Mn  Mn102  1  0.66708935  0.25097153  0.16694669  1
  Mn  Mn103  1  0.66998044  0.24789748  0.49863087  1
  Mn  Mn104  1  0.66678997  0.24723775  0.83335770  1
  Mn  Mn105  1  0.66767568  0.75076458  0.16955537  1
  Mn  Mn106  1  0.66672173  0.75118416  0.50211296  1
  Mn  Mn107  1  0.66655074  0.75229116  0.83533214  1
  Mn  Mn108  1  0.16584177  0.24958603  -0.00300982  1
  Mn  Mn109  1  0.16830380  0.25046783  0.32810914  1
  Mn  Mn110  1  0.16736767  0.24929623  0.66426837  1
  Mn  Mn111  1  0.16736758  0.74970318  -0.00218781  1
  Mn  Mn112  1  0.16879260  0.75064278  0.33116806  1
  Mn  Mn113  1  0.16473706  0.75209821  0.66533217  1
  Mn  Mn114  1  0.49828403  0.24893568  0.00043261  1
  Mn  Mn115  1  0.50208564  0.24737332  0.33397058  1
  Mn  Mn116  1  0.49886929  0.24578033  0.66909307  1
  Mn  Mn117  1  0.49668177  0.75226184  0.00125945  1
  Mn  Mn118  1  0.50272713  0.75274837  0.33397727  1
  Mn  Mn119  1  0.49849158  0.75267623  0.66954345  1
  Mn  Mn120  1  0.83457462  0.25096621  0.00132993  1
  Mn  Mn121  1  0.83373076  0.25016084  0.33151650  1
  Mn  Mn122  1  0.83292466  0.24879823  0.66820541  1
  Mn  Mn123  1  0.83155331  0.74933755  0.00235949  1
  Mn  Mn124  1  0.83506656  0.75009014  0.33425987  1
  Mn  Mn125  1  0.83110172  0.75299002  0.66928370  1
  Mn  Mn126  1  0.16593291  0.00139438  -0.00267946  1
  Mn  Mn127  1  0.17062288  0.00018286  0.33108212  1
  Mn  Mn128  1  0.16348641  0.00082595  0.66516517  1
  Mn  Mn129  1  0.16772696  0.49887926  -0.00183705  1
  Mn  Mn130  1  0.16763848  0.49915330  0.32906418  1
  Mn  Mn131  1  0.16721960  0.49943984  0.66399341  1
  Mn  Mn132  1  0.49781926  0.00153078  0.00171437  1
  Mn  Mn133  1  0.50159137  0.00144819  0.33364224  1
  Mn  Mn134  1  0.49980491  -0.00071767  0.66792755  1
  Mn  Mn135  1  0.49754792  0.49692824  0.00024194  1
  Mn  Mn136  1  0.50268614  0.49931879  0.33336171  1
  Mn  Mn137  1  0.49925502  0.50122532  0.67117812  1
  Mn  Mn138  1  0.83185763  0.00192864  0.00152597  1
  Mn  Mn139  1  0.83216071  -0.00220482  0.33450848  1
  Mn  Mn140  1  0.83198932  -0.00077706  0.67005457  1
  Mn  Mn141  1  0.83333274  0.49722077  0.00158794  1
  Mn  Mn142  1  0.83638973  0.50064141  0.33224499  1
  Mn  Mn143  1  0.83210744  0.49945055  0.66754587  1
  O  O144  1  0.16065125  0.12797366  0.02221041  1
  O  O145  1  0.17464383  0.12427638  0.35556552  1
  O  O146  1  0.16115401  0.12461808  0.68840607  1
  O  O147  1  0.17245040  0.62152741  0.02426749  1
  O  O148  1  0.16438092  0.62404694  0.35513433  1
  O  O149  1  0.17612482  0.62685809  0.67797480  1
  O  O150  1  0.49533416  0.12513114  0.02573289  1
  O  O151  1  0.50329203  0.12269543  0.36022856  1
  O  O152  1  0.50590376  0.12000965  0.69241800  1
  O  O153  1  0.48923931  0.62841979  0.01218241  1
  O  O154  1  0.50852725  0.62853305  0.34304929  1
  O  O155  1  0.50216584  0.62966423  0.68098281  1
  O  O156  1  0.83795113  0.12924998  0.02675401  1
  O  O157  1  0.82480906  0.12472447  0.34165017  1
  O  O158  1  0.84159283  0.12285328  0.69306573  1
  O  O159  1  0.83658183  0.61888950  0.02401289  1
  O  O160  1  0.83522906  0.62483807  0.34613278  1
  O  O161  1  0.82854237  0.63032344  0.69293933  1
  O  O162  1  0.15871855  0.37514035  0.30373951  1
  O  O163  1  0.16726552  0.37238022  0.65481276  1
  O  O164  1  0.16396619  0.37307841  0.98343058  1
  O  O165  1  0.17673668  0.87739209  0.30641035  1
  O  O166  1  0.15537821  0.87818299  0.64240560  1
  O  O167  1  0.17052047  0.87650593  0.97292984  1
  O  O168  1  0.50062701  0.36917817  0.31404105  1
  O  O169  1  0.49400807  0.37088702  0.66172336  1
  O  O170  1  0.49108798  0.36944719  0.97535074  1
  O  O171  1  0.50208732  0.88042671  0.30926169  1
  O  O172  1  0.50501250  0.87848942  0.64256193  1
  O  O173  1  0.50073308  0.87779326  0.98003060  1
  O  O174  1  0.83826073  0.37642949  0.30831686  1
  O  O175  1  0.83419350  0.37016894  0.64229113  1
  O  O176  1  0.84178914  0.37363233  0.97617199  1
  O  O177  1  0.82778129  0.87242499  0.31603157  1
  O  O178  1  0.82424307  0.87745371  0.64152654  1
  O  O179  1  0.82548510  0.87816109  0.98200149  1
  O  O180  1  -0.00498610  0.37650588  0.19419973  1
  O  O181  1  -0.00335948  0.37168444  0.51787215  1
  O  O182  1  -0.00637685  0.37231632  0.85769262  1
  O  O183  1  0.00551769  0.87096359  0.17547417  1
  O  O184  1  0.00854462  0.87709619  0.52237891  1
  O  O185  1  0.00692062  0.87656845  0.84866725  1
  O  O186  1  0.32236087  0.36854611  0.19384548  1
  O  O187  1  0.33463556  0.36981168  0.52320135  1
  O  O188  1  0.33492083  0.37080947  0.85362861  1
  O  O189  1  0.32231294  0.88163632  0.19398712  1
  O  O190  1  0.33280578  0.87761226  0.51091590  1
  O  O191  1  0.31894690  0.87695663  0.85621635  1
  O  O192  1  0.66297979  0.37229616  0.19149067  1
  O  O193  1  0.67652731  0.37405256  0.50993064  1
  O  O194  1  0.66325308  0.37011982  0.84740909  1
  O  O195  1  0.65829102  0.87738487  0.19017555  1
  O  O196  1  0.66546453  0.87770772  0.52427867  1
  O  O197  1  0.66804757  0.87911304  0.86295159  1
  O  O198  1  0.00362098  0.12885155  0.14242137  1
  O  O199  1  0.00458131  0.12490315  0.48779900  1
  O  O200  1  -0.01102094  0.12358296  0.80411559  1
  O  O201  1  0.00618655  0.62127988  0.13912456  1
  O  O202  1  0.00580254  0.62702436  0.47746958  1
  O  O203  1  -0.01006449  0.62627320  0.82336641  1
  O  O204  1  0.34264477  0.12535514  0.14518427  1
  O  O205  1  0.33644786  0.12346835  0.47410011  1
  O  O206  1  0.33654728  0.12233970  0.81477095  1
  O  O207  1  0.32932541  0.62470191  0.14074760  1
  O  O208  1  0.32723840  0.62892536  0.48978080  1
  O  O209  1  0.33312519  0.63080700  0.80756114  1
  O  O210  1  0.67819780  0.12632227  0.15632236  1
  O  O211  1  0.66373356  0.12207090  0.47255178  1
  O  O212  1  0.67587282  0.12149205  0.80858996  1
  O  O213  1  0.67434217  0.62381574  0.15907937  1
  O  O214  1  0.66736178  0.62895851  0.47564514  1
  O  O215  1  0.67278096  0.62965375  0.81189433  1
  O  O216  1  0.08881682  0.01255235  0.24479728  1
  O  O217  1  0.08303011  0.02461578  0.58439579  1
  O  O218  1  0.08005759  0.02570013  0.91007121  1
  O  O219  1  0.07932544  0.52485383  0.25104845  1
  O  O220  1  0.08544569  0.51187484  0.57722405  1
  O  O221  1  0.07578873  0.51367278  0.92723712  1
  O  O222  1  0.41304839  0.02161630  0.25634101  1
  O  O223  1  0.41598302  0.01895574  0.58114268  1
  O  O224  1  0.41093489  0.01245771  0.92417877  1
  O  O225  1  0.41410591  0.49857913  0.24990177  1
  O  O226  1  0.40763020  0.51043096  0.60017701  1
  O  O227  1  0.40260239  0.51125416  0.92885925  1
  O  O228  1  0.74095353  0.01162216  0.25558875  1
  O  O229  1  0.74191220  0.01795310  0.59444971  1
  O  O230  1  0.75530490  0.01776525  0.91229208  1
  O  O231  1  0.74985680  0.51434813  0.25643159  1
  O  O232  1  0.74431623  0.51967296  0.59224325  1
  O  O233  1  0.75167858  0.51015369  0.91640338  1
  O  O234  1  0.24585455  0.22344547  0.24065380  1
  O  O235  1  0.24643585  0.22671411  0.57394689  1
  O  O236  1  0.24344391  0.22923162  0.90851746  1
  O  O237  1  0.24110705  0.73408913  0.23744369  1
  O  O238  1  0.24583242  0.74132151  0.57841189  1
  O  O239  1  0.24724064  0.72788263  0.91551776  1
  O  O240  1  0.57598429  0.22587569  0.24495729  1
  O  O241  1  0.57957611  0.22689332  0.58050007  1
  O  O242  1  0.57356911  0.23310596  0.90825676  1
  O  O243  1  0.59299573  0.74053748  0.25942581  1
  O  O244  1  0.58682923  0.73949349  0.58829031  1
  O  O245  1  0.58229522  0.74853868  0.91886338  1
  O  O246  1  0.90589574  0.23440605  0.23713521  1
  O  O247  1  0.92105261  0.23708877  0.59138173  1
  O  O248  1  0.91607260  0.22472344  0.91663560  1
  O  O249  1  0.92053339  0.72791164  0.25014456  1
  O  O250  1  0.91640986  0.75218229  0.58737514  1
  O  O251  1  0.91358291  0.73475883  0.91817398  1
  O  O252  1  0.08905260  0.47674511  0.09031366  1
  O  O253  1  0.08124327  0.48600736  0.40813268  1
  O  O254  1  0.08119087  0.48990024  0.74644598  1
  O  O255  1  0.08996385  0.98876580  0.08375692  1
  O  O256  1  0.09782357  0.98663342  0.42275079  1
  O  O257  1  0.07729034  0.98305398  0.74653387  1
  O  O258  1  0.41766676  0.47181092  0.08776570  1
  O  O259  1  0.41773548  0.48585466  0.41755723  1
  O  O260  1  0.42251341  0.47942527  0.76173493  1
  O  O261  1  0.41869869  0.97672549  0.09473614  1
  O  O262  1  0.42525603  0.97877115  0.41918742  1
  O  O263  1  0.42374169  0.98492052  0.76370102  1
  O  O264  1  0.75699156  0.47772950  0.09018595  1
  O  O265  1  0.75996268  0.48113145  0.41867747  1
  O  O266  1  0.75772728  0.48740385  0.75935055  1
  O  O267  1  0.74597299  0.98258125  0.08547949  1
  O  O268  1  0.75227777  0.97624424  0.42274280  1
  O  O269  1  0.75068175  0.97525048  0.75364019  1
  O  O270  1  0.25521057  0.26807072  0.07933728  1
  O  O271  1  0.25914838  0.26488438  0.39956370  1
  O  O272  1  0.25767816  0.25893837  0.74114970  1
  O  O273  1  0.25422738  0.77405034  0.07665664  1
  O  O274  1  0.25555406  0.77136481  0.41058206  1
  O  O275  1  0.24190923  0.76887150  0.75203569  1
  O  O276  1  0.58319456  0.26671551  0.08308937  1
  O  O277  1  0.59550395  0.26118064  0.40421908  1
  O  O278  1  0.58411960  0.25428916  0.74967977  1
  O  O279  1  0.58089118  0.76993580  0.08669127  1
  O  O280  1  0.58550294  0.77681075  0.41960463  1
  O  O281  1  0.58588043  0.77513664  0.75189458  1
  O  O282  1  0.92374444  0.27490270  0.07847823  1
  O  O283  1  0.91990680  0.27003108  0.41230272  1
  O  O284  1  0.91410579  0.27506981  0.75190008  1
  O  O285  1  0.91322255  0.75375860  0.08852780  1
  O  O286  1  0.91690154  0.76656476  0.42125895  1
  O  O287  1  0.91117516  0.77608871  0.75264038  1
  O  O288  1  0.25677139  0.47574541  0.07372859  1
  O  O289  1  0.25575632  0.47992948  0.40084645  1
  O  O290  1  0.26263451  0.48857077  0.73768641  1
  O  O291  1  0.25273002  0.98287308  0.08375208  1
  O  O292  1  0.25922582  0.98221783  0.40785589  1
  O  O293  1  0.23921004  0.98905114  0.75349638  1
  O  O294  1  0.58196955  0.48142579  0.08413365  1
  O  O295  1  0.59502524  0.48911034  0.41003239  1
  O  O296  1  0.58375899  0.49096527  0.75188238  1
  O  O297  1  0.58408447  0.98057814  0.08224864  1
  O  O298  1  0.58841455  0.97691744  0.41134448  1
  O  O299  1  0.59081770  0.97712265  0.74661654  1
  O  O300  1  0.92332573  0.47647706  0.08102395  1
  O  O301  1  0.92205975  0.47969340  0.41057882  1
  O  O302  1  0.91563851  0.47702280  0.74852563  1
  O  O303  1  0.91325332  0.99468948  0.08368985  1
  O  O304  1  0.91608852  0.98345636  0.42505130  1
  O  O305  1  0.91106258  0.97116487  0.75471736  1
  O  O306  1  0.08374238  0.27274254  0.08279554  1
  O  O307  1  0.08459791  0.26258365  0.40796558  1
  O  O308  1  0.07412728  0.26002836  0.74295246  1
  O  O309  1  0.09477125  0.76077421  0.09059430  1
  O  O310  1  0.09505689  0.76693217  0.42084520  1
  O  O311  1  0.08014902  0.76819896  0.74820904  1
  O  O312  1  0.41923968  0.27358373  0.09073057  1
  O  O313  1  0.41990455  0.26135319  0.41648293  1
  O  O314  1  0.42173108  0.26215111  0.75965489  1
  O  O315  1  0.41668146  0.77792557  0.08819852  1
  O  O316  1  0.42247953  0.77213230  0.41951143  1
  O  O317  1  0.42203092  0.77451176  0.76277764  1
  O  O318  1  0.75877133  0.27048771  0.08971291  1
  O  O319  1  0.76022064  0.27049459  0.41880471  1
  O  O320  1  0.75842240  0.26177589  0.75791805  1
  O  O321  1  0.74503422  0.76769455  0.08320261  1
  O  O322  1  0.75073418  0.77217594  0.42110282  1
  O  O323  1  0.74849324  0.77676050  0.75261367  1
  O  O324  1  0.24910967  0.02938451  0.24488982  1
  O  O325  1  0.24284570  0.01473639  0.57400413  1
  O  O326  1  0.24358338  0.02187276  0.91334386  1
  O  O327  1  0.23900042  0.51335406  0.23430146  1
  O  O328  1  0.24668622  0.51748307  0.57591259  1
  O  O329  1  0.24585126  0.51949948  0.91080523  1
  O  O330  1  0.57707529  0.02599567  0.24537778  1
  O  O331  1  0.58019246  0.02256590  0.57615876  1
  O  O332  1  0.57506425  0.01703289  0.90430717  1
  O  O333  1  0.58786721  0.50866424  0.25207561  1
  O  O334  1  0.58350437  0.51337755  0.58839960  1
  O  O335  1  0.57832850  0.50104727  0.91561637  1
  O  O336  1  0.90992841  0.01121885  0.24436307  1
  O  O337  1  0.92144516  0.00727357  0.59561774  1
  O  O338  1  0.91646201  0.02183884  0.91659479  1
  O  O339  1  0.91617358  0.52324492  0.24476847  1
  O  O340  1  0.91467958  0.50269663  0.58099932  1
  O  O341  1  0.91160376  0.51803015  0.91671308  1
  O  O342  1  0.08666184  0.23375104  0.24189120  1
  O  O343  1  0.08573404  0.23069460  0.58110783  1
  O  O344  1  0.07822496  0.22467642  0.91236409  1
  O  O345  1  0.08041659  0.72685399  0.25332113  1
  O  O346  1  0.08712926  0.73433333  0.57925218  1
  O  O347  1  0.08099955  0.73102284  0.92115076  1
  O  O348  1  0.41309168  0.23020599  0.25414046  1
  O  O349  1  0.41637123  0.22795354  0.58825935  1
  O  O350  1  0.41041786  0.23039946  0.92167056  1
  O  O351  1  0.41519605  0.75174557  0.25055652  1
  O  O352  1  0.40959712  0.73901371  0.59222256  1
  O  O353  1  0.40410692  0.74446476  0.92828953  1
  O  O354  1  0.74210044  0.23911436  0.25893418  1
  O  O355  1  0.74495234  0.22735176  0.59326463  1
  O  O356  1  0.75359414  0.23825128  0.91560494  1
  O  O357  1  0.75231516  0.73373062  0.25202164  1
  O  O358  1  0.74293367  0.73601549  0.59276941  1
  O  O359  1  0.75461954  0.73552236  0.91112367  1
