# generated using pymatgen
data_Ba17Sr5La8Pr42Mn72O216
_symmetry_space_group_name_H-M   'P 1'
_cell_length_a   16.66897285
_cell_length_b   15.70129215
_cell_length_c   16.81667575
_cell_angle_alpha   90.00808656
_cell_angle_beta   89.99619934
_cell_angle_gamma   90.03585266
_symmetry_Int_Tables_number   1
_chemical_formula_structural   Ba17Sr5La8Pr42Mn72O216
_chemical_formula_sum   'Ba17 Sr5 La8 Pr42 Mn72 O216'
_cell_volume   4401.33366650
_cell_formula_units_Z   1
loop_
 _symmetry_equiv_pos_site_id
 _symmetry_equiv_pos_as_xyz
  1  'x, y, z'
loop_
 _atom_site_type_symbol
 _atom_site_label
 _atom_site_symmetry_multiplicity
 _atom_site_fract_x
 _atom_site_fract_y
 _atom_site_fract_z
 _atom_site_occupancy
  Ba  Ba0  1  0.33352869  0.37746256  0.33317056  1
  Ba  Ba1  1  0.33816234  0.62688440  0.66625892  1
  Ba  Ba2  1  0.16425621  0.87275158  0.83220917  1
  Ba  Ba3  1  0.00057593  0.12450214  0.33276056  1
  Ba  Ba4  1  0.83276503  0.37461907  0.50089822  1
  Ba  Ba5  1  0.49779798  0.37445585  0.16604967  1
  Ba  Ba6  1  0.16839591  0.37612293  0.49831276  1
  Ba  Ba7  1  0.66689551  0.62645281  0.99846035  1
  Ba  Ba8  1  0.33507665  0.12220502  0.66689264  1
  Ba  Ba9  1  0.83469060  0.12419549  0.50005823  1
  Ba  Ba10  1  0.33513886  0.62456856  0.99806683  1
  Ba  Ba11  1  0.66946768  0.62659038  0.33141171  1
  Ba  Ba12  1  0.83228514  0.12400891  0.16787606  1
  Ba  Ba13  1  0.83243288  0.37541918  0.83299755  1
  Ba  Ba14  1  0.16873491  0.12521076  0.50115101  1
  Ba  Ba15  1  0.00121101  0.12517689  1.00204904  1
  Ba  Ba16  1  0.16652516  0.12337157  0.16812577  1
  Sr  Sr17  1  0.49434560  0.87228795  0.16451654  1
  Sr  Sr18  1  0.33878260  0.62320611  0.33248124  1
  Sr  Sr19  1  0.66741532  0.12487292  1.00134437  1
  Sr  Sr20  1  0.32977227  0.87550942  0.66912159  1
  Sr  Sr21  1  0.67096050  0.62433907  0.66390083  1
  La  La22  1  0.50092347  0.12588704  0.50175924  1
  La  La23  1  0.16451735  0.37793639  0.83181799  1
  La  La24  1  -0.00437185  0.87726139  0.66928359  1
  La  La25  1  0.16515313  0.87335070  0.50337027  1
  La  La26  1  0.00334796  0.62286959  0.66513233  1
  La  La27  1  0.82950799  0.37464118  0.16678843  1
  La  La28  1  0.17427299  0.12304135  0.83724539  1
  La  La29  1  0.83490613  0.62442599  0.83492236  1
  Pr  Pr30  1  0.32343952  0.87428982  0.00380745  1
  Pr  Pr31  1  0.00065968  0.36960808  0.33607003  1
  Pr  Pr32  1  0.50576138  0.62327498  0.50116833  1
  Pr  Pr33  1  0.33275113  0.37307635  0.66570319  1
  Pr  Pr34  1  0.16158137  0.37673335  0.16675055  1
  Pr  Pr35  1  0.32539437  0.87298243  0.33423760  1
  Pr  Pr36  1  0.49288757  0.87288256  0.49741457  1
  Pr  Pr37  1  0.17757530  0.62282806  0.50124767  1
  Pr  Pr38  1  0.83746988  0.62660996  0.16951893  1
  Pr  Pr39  1  0.17767726  0.62640079  0.16817190  1
  Pr  Pr40  1  0.82673143  0.87388913  0.49926877  1
  Pr  Pr41  1  0.83634601  0.62607494  0.50374951  1
  Pr  Pr42  1  0.66328118  0.87748471  0.66824542  1
  Pr  Pr43  1  0.50061847  0.37800846  0.83308848  1
  Pr  Pr44  1  0.66557844  0.37332440  0.33639905  1
  Pr  Pr45  1  0.82525032  0.87634558  0.16709540  1
  Pr  Pr46  1  0.33286565  0.12744067  0.33262053  1
  Pr  Pr47  1  0.83821114  0.12559988  0.84157302  1
  Pr  Pr48  1  0.50611036  0.62815864  0.83480753  1
  Pr  Pr49  1  0.65991031  0.87786440  0.33573244  1
  Pr  Pr50  1  0.00423360  0.12589497  0.66458184  1
  Pr  Pr51  1  0.82715000  0.87631538  0.83496206  1
  Pr  Pr52  1  0.65815003  0.87738190  0.00425217  1
  Pr  Pr53  1  0.49940529  0.37738575  0.49458469  1
  Pr  Pr54  1  0.66690958  0.37347267  0.66849616  1
  Pr  Pr55  1  0.50658656  0.12101825  0.83547249  1
  Pr  Pr56  1  0.66407694  0.37335448  0.00382238  1
  Pr  Pr57  1  0.00483217  0.62200288  0.33145601  1
  Pr  Pr58  1  0.17631566  0.62657704  0.83457158  1
  Pr  Pr59  1  -0.00049389  0.37105397  0.66702462  1
  Pr  Pr60  1  0.00368151  0.62606173  0.99544363  1
  Pr  Pr61  1  0.15732054  0.87347440  0.16273275  1
  Pr  Pr62  1  0.32533432  0.37473981  0.00708943  1
  Pr  Pr63  1  0.49564623  0.87200209  0.83191756  1
  Pr  Pr64  1  -0.00634721  0.87931871  0.33508683  1
  Pr  Pr65  1  0.33859165  0.12501364  0.99682881  1
  Pr  Pr66  1  0.67114945  0.12616266  0.66632867  1
  Pr  Pr67  1  0.66936679  0.12732873  0.32987684  1
  Pr  Pr68  1  0.50203461  0.62536243  0.16959229  1
  Pr  Pr69  1  -0.00856192  0.87487679  0.00303892  1
  Pr  Pr70  1  0.50176265  0.12439876  0.17005960  1
  Pr  Pr71  1  -0.00571148  0.37558052  0.00369990  1
  Mn  Mn72  1  -0.00212592  -0.00295914  0.16832521  1
  Mn  Mn73  1  0.00007046  -0.00220785  0.50328569  1
  Mn  Mn74  1  -0.00107132  -0.00043864  0.83322164  1
  Mn  Mn75  1  -0.00010632  0.50332725  0.16584000  1
  Mn  Mn76  1  0.00026441  0.50223586  0.49736335  1
  Mn  Mn77  1  0.00080083  0.50160538  0.83310777  1
  Mn  Mn78  1  0.33330722  -0.00158991  0.16739553  1
  Mn  Mn79  1  0.33387597  -0.00428553  0.49959994  1
  Mn  Mn80  1  0.33525861  -0.00055285  0.83470347  1
  Mn  Mn81  1  0.33323401  0.50034272  0.16579397  1
  Mn  Mn82  1  0.33734658  0.50255999  0.49994317  1
  Mn  Mn83  1  0.33662105  0.49738381  0.83310126  1
  Mn  Mn84  1  0.66242319  -0.00105797  0.16824970  1
  Mn  Mn85  1  0.66430928  -0.00039878  0.50152306  1
  Mn  Mn86  1  0.66637824  -0.00084504  0.83471496  1
  Mn  Mn87  1  0.66718767  0.50098310  0.16557563  1
  Mn  Mn88  1  0.66837526  0.50109298  0.50032360  1
  Mn  Mn89  1  0.66665927  0.50038100  0.83128525  1
  Mn  Mn90  1  -0.00076242  0.25276746  0.16769302  1
  Mn  Mn91  1  0.00048561  0.24988993  0.50144234  1
  Mn  Mn92  1  0.00182641  0.25071338  0.83363274  1
  Mn  Mn93  1  -0.00116876  0.74775452  0.16628810  1
  Mn  Mn94  1  -0.00032266  0.74964491  0.49928048  1
  Mn  Mn95  1  -0.00238395  0.74948953  0.83302306  1
  Mn  Mn96  1  0.33161084  0.24903457  0.16486138  1
  Mn  Mn97  1  0.33589592  0.24930449  0.50077190  1
  Mn  Mn98  1  0.33648824  0.25228154  0.83552324  1
  Mn  Mn99  1  0.33340159  0.75062328  0.16835436  1
  Mn  Mn100  1  0.33491802  0.75059374  0.49905153  1
  Mn  Mn101  1  0.33485361  0.75017322  0.83253280  1
  Mn  Mn102  1  0.66497191  0.24988628  0.16682697  1
  Mn  Mn103  1  0.66606627  0.24922407  0.50144747  1
  Mn  Mn104  1  0.66580446  0.24937653  0.83449737  1
  Mn  Mn105  1  0.66563119  0.75079070  0.16564959  1
  Mn  Mn106  1  0.66628031  0.75104924  0.50053125  1
  Mn  Mn107  1  0.66728756  0.75140810  0.83129186  1
  Mn  Mn108  1  0.16641232  0.25102850  -0.00101055  1
  Mn  Mn109  1  0.16839851  0.24975176  0.33256624  1
  Mn  Mn110  1  0.16709020  0.25296053  0.66974704  1
  Mn  Mn111  1  0.16362608  0.74944235  -0.00037579  1
  Mn  Mn112  1  0.16584069  0.74997713  0.33241707  1
  Mn  Mn113  1  0.16503996  0.74753566  0.66548734  1
  Mn  Mn114  1  0.50008301  0.24814305  -0.00200686  1
  Mn  Mn115  1  0.50045876  0.24843739  0.33495444  1
  Mn  Mn116  1  0.50183553  0.25087890  0.66661054  1
  Mn  Mn117  1  0.49806644  0.75182992  -0.00020412  1
  Mn  Mn118  1  0.49923306  0.75168936  0.33118517  1
  Mn  Mn119  1  0.50359974  0.75087834  0.66511496  1
  Mn  Mn120  1  0.83197883  0.25050298  0.00001834  1
  Mn  Mn121  1  0.83223113  0.25183772  0.33274133  1
  Mn  Mn122  1  0.83374970  0.24952133  0.66934279  1
  Mn  Mn123  1  0.83237854  0.75056041  0.00109962  1
  Mn  Mn124  1  0.83421270  0.74997908  0.33420086  1
  Mn  Mn125  1  0.83345957  0.75094749  0.66750709  1
  Mn  Mn126  1  0.16609612  -0.00048458  0.00037612  1
  Mn  Mn127  1  0.16737681  -0.00420368  0.33301291  1
  Mn  Mn128  1  0.16592327  -0.00176590  0.66810303  1
  Mn  Mn129  1  0.16380388  0.50064333  -0.00162339  1
  Mn  Mn130  1  0.16686920  0.50361175  0.33218945  1
  Mn  Mn131  1  0.16761987  0.49998291  0.66657309  1
  Mn  Mn132  1  0.49829833  -0.00069425  0.00106669  1
  Mn  Mn133  1  0.49795451  -0.00169832  0.33296340  1
  Mn  Mn134  1  0.50185811  -0.00065691  0.66680397  1
  Mn  Mn135  1  0.49997158  0.49997241  -0.00231357  1
  Mn  Mn136  1  0.50198418  0.50176459  0.33287672  1
  Mn  Mn137  1  0.50351248  0.49923627  0.66544967  1
  Mn  Mn138  1  0.83095190  -0.00037623  -0.00022566  1
  Mn  Mn139  1  0.83033227  -0.00266112  0.33416676  1
  Mn  Mn140  1  0.83290841  -0.00052421  0.66999391  1
  Mn  Mn141  1  0.83269354  0.50079057  0.00125590  1
  Mn  Mn142  1  0.83439423  0.50144129  0.33314341  1
  Mn  Mn143  1  0.83375179  0.50102296  0.66645293  1
  O  O144  1  0.17583261  0.12613429  0.01032278  1
  O  O145  1  0.17171063  0.11741041  0.34357248  1
  O  O146  1  0.15939736  0.13017416  0.69094459  1
  O  O147  1  0.15875275  0.62507947  0.02428090  1
  O  O148  1  0.15586966  0.62914907  0.35839962  1
  O  O149  1  0.16241869  0.62287245  0.69016529  1
  O  O150  1  0.49419175  0.12281897  0.02604146  1
  O  O151  1  0.49905847  0.12135897  0.35799814  1
  O  O152  1  0.50695899  0.12652700  0.69278253  1
  O  O153  1  0.50014756  0.62984152  0.02404801  1
  O  O154  1  0.49996813  0.62884481  0.35571349  1
  O  O155  1  0.50585051  0.62545334  0.69241339  1
  O  O156  1  0.83117907  0.12395707  0.01062517  1
  O  O157  1  0.82399066  0.12157464  0.34247553  1
  O  O158  1  0.82948000  0.12238421  0.69544725  1
  O  O159  1  0.83870330  0.62662946  0.02599976  1
  O  O160  1  0.83834029  0.62755277  0.35924825  1
  O  O161  1  0.83427943  0.62806241  0.69107981  1
  O  O162  1  0.16162239  0.38255605  0.31213741  1
  O  O163  1  0.16233621  0.37813566  0.65579940  1
  O  O164  1  0.16257691  0.37628228  0.97654958  1
  O  O165  1  0.17481904  0.87020066  0.30560514  1
  O  O166  1  0.15839494  0.86769162  0.64964415  1
  O  O167  1  0.16627608  0.87324849  0.98960703  1
  O  O168  1  0.50819190  0.37413039  0.32386592  1
  O  O169  1  0.50579723  0.37333391  0.63853162  1
  O  O170  1  0.50444727  0.37034436  0.97716131  1
  O  O171  1  0.50635268  0.87619706  0.31151130  1
  O  O172  1  0.51006837  0.87494676  0.64090141  1
  O  O173  1  0.50263964  0.87686530  0.97609546  1
  O  O174  1  0.83097440  0.37959082  0.31292821  1
  O  O175  1  0.83290268  0.37563693  0.65696600  1
  O  O176  1  0.83316027  0.37640541  0.98883437  1
  O  O177  1  0.83619378  0.87076089  0.31199460  1
  O  O178  1  0.83660843  0.87406070  0.64228926  1
  O  O179  1  0.83521687  0.87434450  0.97780961  1
  O  O180  1  0.00628391  0.38635846  0.19235523  1
  O  O181  1  0.00120912  0.38051646  0.52228925  1
  O  O182  1  0.00849659  0.38040711  0.85981387  1
  O  O183  1  0.00624449  0.86726762  0.19027450  1
  O  O184  1  0.00008399  0.87166247  0.52613483  1
  O  O185  1  -0.00338449  0.87219836  0.85886820  1
  O  O186  1  0.32709212  0.37711996  0.17606406  1
  O  O187  1  0.34491955  0.37869421  0.51945392  1
  O  O188  1  0.34488361  0.37484483  0.86287210  1
  O  O189  1  0.33324101  0.87381297  0.19150530  1
  O  O190  1  0.34071752  0.87230070  0.51934156  1
  O  O191  1  0.34303010  0.87645370  0.85756927  1
  O  O192  1  0.67031415  0.37748934  0.18989104  1
  O  O193  1  0.65906464  0.37517911  0.52443307  1
  O  O194  1  0.66092752  0.37249482  0.86016805  1
  O  O195  1  0.66876780  0.87438680  0.19027555  1
  O  O196  1  0.66558795  0.87590558  0.52560678  1
  O  O197  1  0.67253865  0.87657229  0.86098045  1
  O  O198  1  -0.00143606  0.12235984  0.16012901  1
  O  O199  1  0.00115171  0.12054075  0.49261698  1
  O  O200  1  -0.00893862  0.12240153  0.81043943  1
  O  O201  1  -0.01023947  0.62513838  0.13663420  1
  O  O202  1  -0.00960486  0.62804903  0.47336865  1
  O  O203  1  -0.01183318  0.62609476  0.81079505  1
  O  O204  1  0.33747898  0.12183780  0.14156815  1
  O  O205  1  0.34001433  0.11759951  0.47858581  1
  O  O206  1  0.32741704  0.12644419  0.82363310  1
  O  O207  1  0.33295324  0.62540016  0.15282940  1
  O  O208  1  0.33406136  0.62928581  0.48384880  1
  O  O209  1  0.32910988  0.62202314  0.82220158  1
  O  O210  1  0.65966096  0.12180935  0.15221163  1
  O  O211  1  0.66047031  0.12065324  0.47395818  1
  O  O212  1  0.65990172  0.12215802  0.80811337  1
  O  O213  1  0.66691203  0.62653632  0.15374933  1
  O  O214  1  0.66825090  0.62793736  0.48653746  1
  O  O215  1  0.66012842  0.62856654  0.81298784  1
  O  O216  1  0.08584411  -0.00323389  0.24908121  1
  O  O217  1  0.08288817  0.00780660  0.58455533  1
  O  O218  1  0.08934986  0.01694984  0.90578043  1
  O  O219  1  0.08629284  0.52957766  0.23882414  1
  O  O220  1  0.08461663  0.52583890  0.57525566  1
  O  O221  1  0.08529465  0.52756119  0.91160357  1
  O  O222  1  0.42143442  0.02228001  0.24453336  1
  O  O223  1  0.42720368  0.01047796  0.57267357  1
  O  O224  1  0.42234377  0.02233342  0.91317068  1
  O  O225  1  0.42092999  0.51713564  0.24536035  1
  O  O226  1  0.42782696  0.51684766  0.57840903  1
  O  O227  1  0.42630816  0.51633683  0.90503152  1
  O  O228  1  0.74098047  0.00665040  0.25724431  1
  O  O229  1  0.74831690  0.01298197  0.58982398  1
  O  O230  1  0.75384811  0.01715249  0.90881938  1
  O  O231  1  0.76222211  0.51518374  0.24008154  1
  O  O232  1  0.75654490  0.51849888  0.57647702  1
  O  O233  1  0.75445845  0.51701671  0.90678763  1
  O  O234  1  0.25723345  0.23511281  0.25374965  1
  O  O235  1  0.25540524  0.24862459  0.59168578  1
  O  O236  1  0.25978063  0.24034329  0.92669405  1
  O  O237  1  0.25303673  0.72941252  0.25578674  1
  O  O238  1  0.24705716  0.73851388  0.57905338  1
  O  O239  1  0.24807699  0.74004388  0.91877603  1
  O  O240  1  0.58285873  0.22876977  0.25314693  1
  O  O241  1  0.58711050  0.22639930  0.58743457  1
  O  O242  1  0.58234942  0.22652537  0.91494670  1
  O  O243  1  0.58185342  0.73706106  0.24687472  1
  O  O244  1  0.58892834  0.73156601  0.58569241  1
  O  O245  1  0.58328530  0.74137852  0.91199424  1
  O  O246  1  0.91456751  0.25320513  0.24861827  1
  O  O247  1  0.92051964  0.23852078  0.59106089  1
  O  O248  1  0.91728877  0.23945794  0.91423032  1
  O  O249  1  0.92686621  0.72778999  0.25553326  1
  O  O250  1  0.92226132  0.72864450  0.59219610  1
  O  O251  1  0.92428503  0.73292155  0.92695016  1
  O  O252  1  0.07517884  0.47937056  0.07922420  1
  O  O253  1  0.07522953  0.48875840  0.40489084  1
  O  O254  1  0.08195847  0.48456518  0.75075591  1
  O  O255  1  0.07600331  0.97878248  0.08026121  1
  O  O256  1  0.08147952  0.97322125  0.41460235  1
  O  O257  1  0.07069689  0.98795556  0.74252165  1
  O  O258  1  0.40981719  0.48438329  0.07381262  1
  O  O259  1  0.42323268  0.49181214  0.42097608  1
  O  O260  1  0.41821338  0.47537940  0.74489007  1
  O  O261  1  0.40551066  0.97963860  0.07464880  1
  O  O262  1  0.41081808  0.97552979  0.40816507  1
  O  O263  1  0.41974586  0.98311634  0.75095650  1
  O  O264  1  0.74602542  0.47979803  0.08043022  1
  O  O265  1  0.74333553  0.48377015  0.40961084  1
  O  O266  1  0.74183416  0.48730984  0.74251409  1
  O  O267  1  0.74454667  0.97817146  0.08240167  1
  O  O268  1  0.74562689  0.97494264  0.41838711  1
  O  O269  1  0.74630956  0.97655781  0.74846120  1
  O  O270  1  0.23983224  0.27369211  0.08601389  1
  O  O271  1  0.25416916  0.25350300  0.41553410  1
  O  O272  1  0.24943090  0.27322178  0.75786649  1
  O  O273  1  0.24201892  0.76589029  0.09302740  1
  O  O274  1  0.24419435  0.76967813  0.41992809  1
  O  O275  1  0.24763968  0.75658351  0.75093534  1
  O  O276  1  0.58503915  0.26269147  0.07882751  1
  O  O277  1  0.58324404  0.26713121  0.41941775  1
  O  O278  1  0.58133314  0.27457037  0.75147469  1
  O  O279  1  0.58015197  0.77019043  0.08118121  1
  O  O280  1  0.57776080  0.77105992  0.41992702  1
  O  O281  1  0.58224973  0.77592886  0.75223906  1
  O  O282  1  0.91693105  0.27210402  0.08545855  1
  O  O283  1  0.91807702  0.26308696  0.41189005  1
  O  O284  1  0.92277354  0.26369277  0.74725163  1
  O  O285  1  0.90916914  0.77451946  0.09464823  1
  O  O286  1  0.91013935  0.77414388  0.42517350  1
  O  O287  1  0.90689034  0.77190060  0.75965444  1
  O  O288  1  0.24210363  0.48338345  0.08416202  1
  O  O289  1  0.24900010  0.50045932  0.41734827  1
  O  O290  1  0.25529497  0.47610379  0.75219477  1
  O  O291  1  0.24486549  0.97595299  0.09313275  1
  O  O292  1  0.24657867  0.97284173  0.42022893  1
  O  O293  1  0.24782508  0.99181263  0.75537707  1
  O  O294  1  0.58600511  0.48405738  0.07745244  1
  O  O295  1  0.58397775  0.48336795  0.41959425  1
  O  O296  1  0.58255325  0.47417432  0.74939632  1
  O  O297  1  0.57852696  0.98125840  0.08526258  1
  O  O298  1  0.57707301  0.97702934  0.41992881  1
  O  O299  1  0.58276223  0.97586471  0.75502861  1
  O  O300  1  0.91519154  0.47813471  0.09174916  1
  O  O301  1  0.91928833  0.48441922  0.41169782  1
  O  O302  1  0.92358616  0.48624231  0.74613025  1
  O  O303  1  0.91244189  0.97568601  0.08624740  1
  O  O304  1  0.91323616  0.97770603  0.42234439  1
  O  O305  1  0.90947111  0.97604556  0.75703855  1
  O  O306  1  0.07832270  0.27363580  0.07860774  1
  O  O307  1  0.08057069  0.26350483  0.41223038  1
  O  O308  1  0.08211497  0.27261865  0.75047325  1
  O  O309  1  0.07089678  0.76708125  0.07415602  1
  O  O310  1  0.07685635  0.77435625  0.40662273  1
  O  O311  1  0.06834998  0.75824550  0.73942671  1
  O  O312  1  0.40532778  0.26262908  0.07091902  1
  O  O313  1  0.42296484  0.25994557  0.41957857  1
  O  O314  1  0.41640651  0.27484803  0.74570175  1
  O  O315  1  0.40743693  0.77135274  0.07585709  1
  O  O316  1  0.41225455  0.77213463  0.40831229  1
  O  O317  1  0.42037002  0.76863524  0.74612279  1
  O  O318  1  0.74740065  0.26933007  0.08337236  1
  O  O319  1  0.74225642  0.26356512  0.41192901  1
  O  O320  1  0.74162974  0.26156141  0.74545210  1
  O  O321  1  0.74399038  0.77427495  0.07682350  1
  O  O322  1  0.74261932  0.77529656  0.41347570  1
  O  O323  1  0.74470133  0.77455842  0.74261721  1
  O  O324  1  0.26391890  0.01173525  0.26099510  1
  O  O325  1  0.25108155  -0.00033971  0.58427193  1
  O  O326  1  0.25988463  0.01061648  0.92548823  1
  O  O327  1  0.24724174  0.51838253  0.24774201  1
  O  O328  1  0.25249422  0.51249640  0.58135704  1
  O  O329  1  0.24555274  0.50829228  0.91170535  1
  O  O330  1  0.58271940  0.02144718  0.25522697  1
  O  O331  1  0.58818158  0.02338535  0.58831815  1
  O  O332  1  0.58534012  0.01652564  0.91811044  1
  O  O333  1  0.58193096  0.51563706  0.24512576  1
  O  O334  1  0.58638336  0.51934567  0.58352568  1
  O  O335  1  0.58051076  0.51425019  0.90936677  1
  O  O336  1  0.91534065  -0.00231804  0.25170120  1
  O  O337  1  0.92231400  0.01387187  0.59788510  1
  O  O338  1  0.91651806  0.01114533  0.91492243  1
  O  O339  1  0.92335525  0.52540730  0.24985693  1
  O  O340  1  0.91913200  0.52281894  0.58236935  1
  O  O341  1  0.92169902  0.51879026  0.92148027  1
  O  O342  1  0.08569441  0.25119756  0.24620785  1
  O  O343  1  0.08009807  0.24022313  0.59228395  1
  O  O344  1  0.09484177  0.23411554  0.90721058  1
  O  O345  1  0.08965476  0.72604894  0.23776295  1
  O  O346  1  0.08794483  0.72514338  0.57298131  1
  O  O347  1  0.08524568  0.72439004  0.90725981  1
  O  O348  1  0.42029805  0.22720463  0.24877011  1
  O  O349  1  0.42515030  0.23478774  0.58002603  1
  O  O350  1  0.42398728  0.22473481  0.91037205  1
  O  O351  1  0.42305670  0.73259185  0.24239335  1
  O  O352  1  0.43093506  0.73640783  0.57205765  1
  O  O353  1  0.42614757  0.73634617  0.90751125  1
  O  O354  1  0.74351142  0.24139107  0.25457176  1
  O  O355  1  0.74608928  0.23511917  0.58768548  1
  O  O356  1  0.74987343  0.23135936  0.91204676  1
  O  O357  1  0.76336548  0.73816227  0.23885440  1
  O  O358  1  0.76253292  0.73794727  0.57424189  1
  O  O359  1  0.76076597  0.73566246  0.90279368  1
