# generated using pymatgen
data_Ba17Sr5La8Pr42Mn72O216
_symmetry_space_group_name_H-M   'P 1'
_cell_length_a   16.67783209
_cell_length_b   15.70174095
_cell_length_c   16.82468024
_cell_angle_alpha   89.99706265
_cell_angle_beta   89.98199510
_cell_angle_gamma   89.99817908
_symmetry_Int_Tables_number   1
_chemical_formula_structural   Ba17Sr5La8Pr42Mn72O216
_chemical_formula_sum   'Ba17 Sr5 La8 Pr42 Mn72 O216'
_cell_volume   4405.89559797
_cell_formula_units_Z   1
loop_
 _symmetry_equiv_pos_site_id
 _symmetry_equiv_pos_as_xyz
  1  'x, y, z'
loop_
 _atom_site_type_symbol
 _atom_site_label
 _atom_site_symmetry_multiplicity
 _atom_site_fract_x
 _atom_site_fract_y
 _atom_site_fract_z
 _atom_site_occupancy
  Ba  Ba0  1  0.16586064  0.37577239  0.49933120  1
  Ba  Ba1  1  0.66683037  0.62324583  0.99893278  1
  Ba  Ba2  1  0.83424953  0.62640902  0.50131437  1
  Ba  Ba3  1  0.50120378  0.62460992  0.49899370  1
  Ba  Ba4  1  0.66621524  0.37376596  -0.00187608  1
  Ba  Ba5  1  0.66811105  0.12682944  0.99901709  1
  Ba  Ba6  1  0.49853530  0.87617276  0.83082159  1
  Ba  Ba7  1  0.32991121  0.37570850  -0.00027551  1
  Ba  Ba8  1  0.83727851  0.12370328  0.50062996  1
  Ba  Ba9  1  0.66690699  0.62805953  0.66408543  1
  Ba  Ba10  1  -0.00470145  0.87620387  0.00205061  1
  Ba  Ba11  1  0.50239022  0.37313318  0.49809398  1
  Ba  Ba12  1  0.33070098  0.87557930  0.66950614  1
  Ba  Ba13  1  0.16970152  0.62303794  0.50136297  1
  Ba  Ba14  1  0.66574806  0.37355542  0.33170681  1
  Ba  Ba15  1  0.49842491  0.62528962  0.16493936  1
  Ba  Ba16  1  0.00310648  0.12423386  0.99967535  1
  Sr  Sr17  1  0.33476936  0.62359359  0.99847936  1
  Sr  Sr18  1  0.17177747  0.62502544  0.83511295  1
  Sr  Sr19  1  0.65855018  0.87575999  0.33409695  1
  Sr  Sr20  1  0.32949048  0.87265139  0.33645012  1
  Sr  Sr21  1  0.66386507  0.87421753  0.66472116  1
  La  La22  1  0.82919662  0.37451491  0.83574752  1
  La  La23  1  0.50267037  0.37536136  0.82904528  1
  La  La24  1  -0.00624800  0.87445357  0.33638834  1
  La  La25  1  -0.00465227  0.37831870  0.66485466  1
  La  La26  1  0.33262215  0.37895041  0.66966260  1
  La  La27  1  0.65860539  0.87400528  0.00166130  1
  La  La28  1  0.17424186  0.12264936  0.16620800  1
  La  La29  1  0.33730164  0.12481119  0.99805499  1
  Pr  Pr30  1  0.49648181  0.87125571  0.50027045  1
  Pr  Pr31  1  0.01193534  0.12840784  0.33005532  1
  Pr  Pr32  1  0.17451450  0.62783500  0.16830736  1
  Pr  Pr33  1  0.34504722  0.12476273  0.66392234  1
  Pr  Pr34  1  0.00866590  0.12507969  0.66363500  1
  Pr  Pr35  1  0.00491741  0.62716489  0.99849080  1
  Pr  Pr36  1  0.83581837  0.62630566  0.83732520  1
  Pr  Pr37  1  0.81864973  0.87667535  0.16416633  1
  Pr  Pr38  1  0.50076242  0.37536643  0.16036221  1
  Pr  Pr39  1  0.83709124  0.12477628  0.83745239  1
  Pr  Pr40  1  0.50768181  0.12714846  0.16615040  1
  Pr  Pr41  1  0.33881824  0.62451290  0.33264298  1
  Pr  Pr42  1  -0.00245261  0.37494138  0.00269060  1
  Pr  Pr43  1  0.49024988  0.87700543  0.16023322  1
  Pr  Pr44  1  -0.00570932  0.37584315  0.33870559  1
  Pr  Pr45  1  0.17426901  0.12441932  0.83623203  1
  Pr  Pr46  1  0.16007116  0.87349504  0.49916639  1
  Pr  Pr47  1  0.50532235  0.12075543  0.83219863  1
  Pr  Pr48  1  0.15943787  0.37479921  0.83006274  1
  Pr  Pr49  1  0.82956483  0.37691629  0.49811256  1
  Pr  Pr50  1  0.16295184  0.37501561  0.16307756  1
  Pr  Pr51  1  0.15794744  0.87484338  0.16458483  1
  Pr  Pr52  1  -0.00640603  0.87262103  0.66986246  1
  Pr  Pr53  1  0.33457275  0.37832315  0.33614921  1
  Pr  Pr54  1  0.50861708  0.12259762  0.49719740  1
  Pr  Pr55  1  0.83596380  0.62559098  0.17365232  1
  Pr  Pr56  1  0.15901207  0.87424830  0.83145554  1
  Pr  Pr57  1  0.82151304  0.87435328  0.49857690  1
  Pr  Pr58  1  0.34213090  0.12350619  0.33231224  1
  Pr  Pr59  1  0.17531986  0.12507963  0.50232194  1
  Pr  Pr60  1  0.83892127  0.12602680  0.17101887  1
  Pr  Pr61  1  0.01179469  0.62299254  0.33254607  1
  Pr  Pr62  1  0.66708212  0.61908558  0.33168007  1
  Pr  Pr63  1  0.33966362  0.62742236  0.66617379  1
  Pr  Pr64  1  0.67077911  0.37754375  0.66447945  1
  Pr  Pr65  1  0.66977842  0.12095697  0.66379061  1
  Pr  Pr66  1  0.00568714  0.62532977  0.66474513  1
  Pr  Pr67  1  0.49584125  0.62968104  0.83658126  1
  Pr  Pr68  1  0.32314344  0.87091732  0.00153879  1
  Pr  Pr69  1  0.67308295  0.12915579  0.32909539  1
  Pr  Pr70  1  0.82661365  0.37478496  0.16485364  1
  Pr  Pr71  1  0.82550171  0.87651526  0.83574889  1
  Mn  Mn72  1  -0.00072978  0.00126003  0.17118344  1
  Mn  Mn73  1  0.00119543  -0.00025775  0.50070984  1
  Mn  Mn74  1  -0.00079295  -0.00029076  0.83054575  1
  Mn  Mn75  1  0.00075242  0.49974318  0.16696333  1
  Mn  Mn76  1  -0.00034420  0.50026132  0.50080237  1
  Mn  Mn77  1  -0.00020866  0.50113697  0.83504291  1
  Mn  Mn78  1  0.33275953  -0.00109148  0.16671598  1
  Mn  Mn79  1  0.33303234  -0.00062866  0.49845945  1
  Mn  Mn80  1  0.33118229  0.00141882  0.83334314  1
  Mn  Mn81  1  0.33162147  0.49932163  0.16780338  1
  Mn  Mn82  1  0.33446642  0.49955225  0.50111690  1
  Mn  Mn83  1  0.33288270  0.49857486  0.83433632  1
  Mn  Mn84  1  0.66481542  0.00016662  0.16871637  1
  Mn  Mn85  1  0.66610386  -0.00088386  0.49721454  1
  Mn  Mn86  1  0.66863942  0.00059850  0.83134081  1
  Mn  Mn87  1  0.66699383  0.50047339  0.16505070  1
  Mn  Mn88  1  0.66768792  0.49979607  0.49916948  1
  Mn  Mn89  1  0.66719346  0.50026898  0.83026548  1
  Mn  Mn90  1  0.00200905  0.25155415  0.16863248  1
  Mn  Mn91  1  0.00180951  0.24870672  0.49927549  1
  Mn  Mn92  1  -0.00035343  0.25074091  0.83136611  1
  Mn  Mn93  1  -0.00250387  0.74907943  0.16931548  1
  Mn  Mn94  1  -0.00082850  0.75131779  0.50236055  1
  Mn  Mn95  1  -0.00066241  0.74923835  0.83371075  1
  Mn  Mn96  1  0.33289639  0.24895640  0.16801101  1
  Mn  Mn97  1  0.33447261  0.24853979  0.49936088  1
  Mn  Mn98  1  0.33352671  0.24906513  0.83194563  1
  Mn  Mn99  1  0.33153574  0.75205608  0.16842731  1
  Mn  Mn100  1  0.33224560  0.75147911  0.50050139  1
  Mn  Mn101  1  0.33001579  0.74966293  0.83508952  1
  Mn  Mn102  1  0.66797876  0.24914364  0.16546188  1
  Mn  Mn103  1  0.66938574  0.24654149  0.49938537  1
  Mn  Mn104  1  0.66814995  0.25056459  0.82838894  1
  Mn  Mn105  1  0.66493477  0.75082316  0.16883853  1
  Mn  Mn106  1  0.66510178  0.75319338  0.49710106  1
  Mn  Mn107  1  0.66754939  0.74976093  0.83266128  1
  Mn  Mn108  1  0.16640249  0.25048987  -0.00106660  1
  Mn  Mn109  1  0.17026201  0.24992636  0.33158449  1
  Mn  Mn110  1  0.16760095  0.24985177  0.66805984  1
  Mn  Mn111  1  0.16519653  0.74881243  0.00029444  1
  Mn  Mn112  1  0.16663459  0.75152343  0.33319144  1
  Mn  Mn113  1  0.16582713  0.74927180  0.66779791  1
  Mn  Mn114  1  0.49794197  0.24898815  -0.00314874  1
  Mn  Mn115  1  0.49953850  0.24774838  0.33087469  1
  Mn  Mn116  1  0.50183445  0.24909072  0.66375398  1
  Mn  Mn117  1  0.49699415  0.75042796  -0.00100183  1
  Mn  Mn118  1  0.49951497  0.75277042  0.33194240  1
  Mn  Mn119  1  0.50005424  0.75066562  0.66704195  1
  Mn  Mn120  1  0.83612514  0.24961226  0.00110667  1
  Mn  Mn121  1  0.83629583  0.24967784  0.33457584  1
  Mn  Mn122  1  0.83546385  0.24899259  0.66822065  1
  Mn  Mn123  1  0.83227557  0.75003122  0.00332048  1
  Mn  Mn124  1  0.83242535  0.75164980  0.33312817  1
  Mn  Mn125  1  0.83355297  0.75220103  0.66901054  1
  Mn  Mn126  1  0.16651644  0.00031932  0.00029608  1
  Mn  Mn127  1  0.16748861  -0.00083799  0.33489497  1
  Mn  Mn128  1  0.16603644  0.00122166  0.66686704  1
  Mn  Mn129  1  0.16515442  0.50043948  -0.00092209  1
  Mn  Mn130  1  0.16880092  0.50025783  0.32982934  1
  Mn  Mn131  1  0.16714268  0.49950229  0.66931427  1
  Mn  Mn132  1  0.49706212  0.00093681  -0.00077559  1
  Mn  Mn133  1  0.49900564  -0.00184408  0.33158911  1
  Mn  Mn134  1  0.50207133  0.00159791  0.66456884  1
  Mn  Mn135  1  0.49788553  0.49982566  -0.00313521  1
  Mn  Mn136  1  0.49982289  0.50015525  0.33102756  1
  Mn  Mn137  1  0.50027237  0.49796635  0.66678372  1
  Mn  Mn138  1  0.83143983  0.00029466  0.00193118  1
  Mn  Mn139  1  0.83475084  -0.00116160  0.33369110  1
  Mn  Mn140  1  0.83492016  -0.00069587  0.66850428  1
  Mn  Mn141  1  0.83614191  0.50102483  0.00239913  1
  Mn  Mn142  1  0.83452738  0.50088716  0.33367832  1
  Mn  Mn143  1  0.83472308  0.50014899  0.66871830  1
  O  O144  1  0.17179206  0.12491173  0.02105339  1
  O  O145  1  0.16148986  0.12334906  0.35888043  1
  O  O146  1  0.15659491  0.12665861  0.69433562  1
  O  O147  1  0.16002248  0.62329146  0.02472276  1
  O  O148  1  0.16163107  0.62676790  0.34573985  1
  O  O149  1  0.15967933  0.62157273  0.68633384  1
  O  O150  1  0.49256202  0.12437624  0.02133527  1
  O  O151  1  0.49284502  0.12195812  0.35416095  1
  O  O152  1  0.50403152  0.12733639  0.68775858  1
  O  O153  1  0.49619807  0.62606230  0.00589223  1
  O  O154  1  0.49137146  0.62772595  0.34145119  1
  O  O155  1  0.49506261  0.61948196  0.68828212  1
  O  O156  1  0.83550846  0.12391634  0.02406510  1
  O  O157  1  0.82603458  0.12371704  0.34349889  1
  O  O158  1  0.83036472  0.12485268  0.69458438  1
  O  O159  1  0.84039773  0.62475759  0.02701534  1
  O  O160  1  0.81811584  0.62771010  0.34269585  1
  O  O161  1  0.83754868  0.62591602  0.69320196  1
  O  O162  1  0.17834355  0.37462478  0.30542714  1
  O  O163  1  0.17101263  0.37265655  0.65552640  1
  O  O164  1  0.15887827  0.37589113  0.97529185  1
  O  O165  1  0.16510049  0.87560956  0.30726722  1
  O  O166  1  0.16225640  0.87889101  0.64336135  1
  O  O167  1  0.17138479  0.87578297  0.97719488  1
  O  O168  1  0.49409406  0.37099730  0.30610887  1
  O  O169  1  0.49148913  0.37077554  0.65467060  1
  O  O170  1  0.49786832  0.37142318  0.97608908  1
  O  O171  1  0.50146103  0.87784454  0.30360591  1
  O  O172  1  0.50073867  0.88170377  0.64665501  1
  O  O173  1  0.50302937  0.87818405  0.98996367  1
  O  O174  1  0.84490560  0.37467392  0.30912813  1
  O  O175  1  0.83788722  0.37135526  0.64190418  1
  O  O176  1  0.84330194  0.37666253  0.98109809  1
  O  O177  1  0.84436666  0.87516931  0.30729566  1
  O  O178  1  0.84374235  0.87760587  0.64188292  1
  O  O179  1  0.82821758  0.87550265  0.98232621  1
  O  O180  1  0.00987864  0.37627572  0.19692495  1
  O  O181  1  -0.00553968  0.37466183  0.51899626  1
  O  O182  1  0.00568301  0.37769452  0.85948473  1
  O  O183  1  0.00772845  0.87903698  0.19216568  1
  O  O184  1  0.00931590  0.87761348  0.52606920  1
  O  O185  1  0.00946761  0.87418076  0.84622479  1
  O  O186  1  0.32745560  0.37047894  0.19340151  1
  O  O187  1  0.33462679  0.36948896  0.52283140  1
  O  O188  1  0.34258336  0.37169845  0.84324259  1
  O  O189  1  0.33724982  0.87745322  0.18780025  1
  O  O190  1  0.33526833  0.87770560  0.51370136  1
  O  O191  1  0.32663972  0.87846527  0.85570122  1
  O  O192  1  0.66511783  0.37250228  0.17461873  1
  O  O193  1  0.67328666  0.36790982  0.51817618  1
  O  O194  1  0.66595062  0.37374237  0.84326449  1
  O  O195  1  0.66281372  0.87713120  0.18532190  1
  O  O196  1  0.66722153  0.87915904  0.51397895  1
  O  O197  1  0.67352265  0.87639788  0.85705676  1
  O  O198  1  -0.00642879  0.12632277  0.15625609  1
  O  O199  1  0.00586419  0.12276143  0.47347161  1
  O  O200  1  -0.00909994  0.12538733  0.80623869  1
  O  O201  1  -0.00809090  0.61910936  0.14121704  1
  O  O202  1  -0.00012582  0.62536202  0.47744615  1
  O  O203  1  -0.00956591  0.62415811  0.80739497  1
  O  O204  1  0.32846705  0.12249733  0.14071180  1
  O  O205  1  0.32721619  0.12354805  0.47594086  1
  O  O206  1  0.32158888  0.12580696  0.80806678  1
  O  O207  1  0.32587699  0.62845671  0.14813741  1
  O  O208  1  0.33397987  0.62886661  0.47774317  1
  O  O209  1  0.33412961  0.62164770  0.81202968  1
  O  O210  1  0.67051835  0.12466490  0.15649600  1
  O  O211  1  0.66486142  0.12049050  0.47357358  1
  O  O212  1  0.67105170  0.12742601  0.80727896  1
  O  O213  1  0.67784322  0.62657328  0.15886026  1
  O  O214  1  0.66858017  0.63162027  0.47811160  1
  O  O215  1  0.67528807  0.62372770  0.82078450  1
  O  O216  1  0.09068763  0.02253904  0.24763243  1
  O  O217  1  0.09343189  0.02359660  0.57408004  1
  O  O218  1  0.09243808  0.01471078  0.90148145  1
  O  O219  1  0.08925975  0.52280690  0.23946539  1
  O  O220  1  0.08060522  0.50881662  0.58866602  1
  O  O221  1  0.08166264  0.52228767  0.91689419  1
  O  O222  1  0.42593026  0.02118997  0.23745283  1
  O  O223  1  0.42293359  0.02178607  0.57490032  1
  O  O224  1  0.41758756  0.02380302  0.90870734  1
  O  O225  1  0.40908431  0.50875083  0.25557669  1
  O  O226  1  0.41245787  0.51308681  0.59174320  1
  O  O227  1  0.41695378  0.51676680  0.91170736  1
  O  O228  1  0.76038719  0.01264396  0.23835207  1
  O  O229  1  0.75209766  0.01238557  0.58670251  1
  O  O230  1  0.75706045  0.01688630  0.90734242  1
  O  O231  1  0.75637261  0.50875190  0.24752338  1
  O  O232  1  0.75357954  0.50141217  0.58296617  1
  O  O233  1  0.76031615  0.50966734  0.90965104  1
  O  O234  1  0.25624515  0.22111885  0.25562116  1
  O  O235  1  0.25477135  0.22641802  0.59366428  1
  O  O236  1  0.25494840  0.23105767  0.92063435  1
  O  O237  1  0.25297062  0.73065899  0.25547676  1
  O  O238  1  0.25507109  0.73402638  0.59444604  1
  O  O239  1  0.25482866  0.73660684  0.92690308  1
  O  O240  1  0.58506392  0.22795677  0.25124144  1
  O  O241  1  0.58757249  0.22582353  0.58105576  1
  O  O242  1  0.57970447  0.23470834  0.90286762  1
  O  O243  1  0.59630064  0.73254945  0.26113990  1
  O  O244  1  0.58164981  0.74982362  0.58006854  1
  O  O245  1  0.58482602  0.74063899  0.91513278  1
  O  O246  1  0.92450158  0.23187196  0.25800520  1
  O  O247  1  0.92582012  0.23283046  0.59621893  1
  O  O248  1  0.91845478  0.23704736  0.91499569  1
  O  O249  1  0.92555790  0.72673493  0.26420518  1
  O  O250  1  0.92650325  0.73591945  0.59858554  1
  O  O251  1  0.92210157  0.72944654  0.92345982  1
  O  O252  1  0.07682172  0.47705552  0.07903459  1
  O  O253  1  0.07802685  0.48541135  0.40137994  1
  O  O254  1  0.08025747  0.47969596  0.75067681  1
  O  O255  1  0.08289766  0.98834063  0.08740520  1
  O  O256  1  0.07565160  0.97634259  0.41154396  1
  O  O257  1  0.07307755  0.98362862  0.73718330  1
  O  O258  1  0.41555672  0.48181655  0.09118359  1
  O  O259  1  0.41492845  0.48533074  0.41222528  1
  O  O260  1  0.41752555  0.48262990  0.75044172  1
  O  O261  1  0.40430072  0.97987607  0.07536549  1
  O  O262  1  0.40904945  0.98600284  0.40495155  1
  O  O263  1  0.41176400  1.00160588  0.74550962  1
  O  O264  1  0.75624429  0.48651235  0.08590333  1
  O  O265  1  0.75474757  0.48370033  0.41734459  1
  O  O266  1  0.75057243  0.47748396  0.74664147  1
  O  O267  1  0.73719652  0.97840187  0.07853171  1
  O  O268  1  0.74751666  0.98172880  0.41028633  1
  O  O269  1  0.75107080  0.97975207  0.74885164  1
  O  O270  1  0.24115068  0.26401474  0.09608664  1
  O  O271  1  0.24855773  0.26218426  0.41546044  1
  O  O272  1  0.24177415  0.26785760  0.75971080  1
  O  O273  1  0.24218395  0.77180336  0.09246139  1
  O  O274  1  0.24143156  0.76967157  0.42337526  1
  O  O275  1  0.23781695  0.76358021  0.76187908  1
  O  O276  1  0.57604067  0.25888415  0.08794561  1
  O  O277  1  0.58267375  0.24928464  0.41349489  1
  O  O278  1  0.58652275  0.26944715  0.74263957  1
  O  O279  1  0.57544971  0.76777438  0.09067689  1
  O  O280  1  0.57605566  0.77154172  0.41914513  1
  O  O281  1  0.58212261  0.75613039  0.75107182  1
  O  O282  1  0.91709024  0.27355448  0.09328101  1
  O  O283  1  0.91483720  0.26974510  0.42035047  1
  O  O284  1  0.91345007  0.27435767  0.75547132  1
  O  O285  1  0.90296833  0.76592716  0.10043348  1
  O  O286  1  0.91018100  0.77399275  0.42668057  1
  O  O287  1  0.90997090  0.77246504  0.76063872  1
  O  O288  1  0.23888160  0.48579454  0.09320187  1
  O  O289  1  0.25451002  0.48766835  0.41100570  1
  O  O290  1  0.24786378  0.47878641  0.75560888  1
  O  O291  1  0.24405395  0.97735659  0.09293625  1
  O  O292  1  0.23610914  0.98439079  0.42916784  1
  O  O293  1  0.23424172  0.98630412  0.76386066  1
  O  O294  1  0.57772372  0.48673076  0.08333457  1
  O  O295  1  0.58701889  0.49837009  0.41014250  1
  O  O296  1  0.58434318  0.47776325  0.74440997  1
  O  O297  1  0.57163148  0.98989649  0.09687426  1
  O  O298  1  0.56820540  0.98286904  0.42402563  1
  O  O299  1  0.58589101  0.99579180  0.74776530  1
  O  O300  1  0.91638466  0.47263030  0.09166294  1
  O  O301  1  0.91385478  0.48120385  0.41926392  1
  O  O302  1  0.91335204  0.47646235  0.75785111  1
  O  O303  1  0.90441761  0.98763458  0.10154278  1
  O  O304  1  0.91161256  0.97615958  0.42768290  1
  O  O305  1  0.91134625  0.97621916  0.75602239  1
  O  O306  1  0.07831733  0.27189987  0.07903046  1
  O  O307  1  0.07704744  0.26666977  0.40037833  1
  O  O308  1  0.07555405  0.27178807  0.74204129  1
  O  O309  1  0.08055278  0.76170542  0.08254475  1
  O  O310  1  0.07741040  0.76979117  0.41025172  1
  O  O311  1  0.07561342  0.76576116  0.74309108  1
  O  O312  1  0.41473544  0.26507456  0.08884327  1
  O  O313  1  0.41027914  0.26220696  0.40347807  1
  O  O314  1  0.41054840  0.25745441  0.74366482  1
  O  O315  1  0.40774579  0.77135279  0.08017658  1
  O  O316  1  0.41620064  0.76963824  0.41585364  1
  O  O317  1  0.41181649  0.75229843  0.74955092  1
  O  O318  1  0.75641481  0.26183213  0.08804064  1
  O  O319  1  0.75568955  0.26396117  0.41999263  1
  O  O320  1  0.75116761  0.27379155  0.74669771  1
  O  O321  1  0.73894608  0.77229908  0.07783453  1
  O  O322  1  0.74707343  0.77218367  0.40991488  1
  O  O323  1  0.75051605  0.77228039  0.74929032  1
  O  O324  1  0.25824646  0.02113906  0.25650110  1
  O  O325  1  0.25500821  0.02576620  0.59448850  1
  O  O326  1  0.25749277  0.02036420  0.92454129  1
  O  O327  1  0.25196124  0.52465837  0.25209952  1
  O  O328  1  0.25617876  0.51185165  0.59478695  1
  O  O329  1  0.24866197  0.51222691  0.91937725  1
  O  O330  1  0.59169054  0.02524245  0.26001802  1
  O  O331  1  0.58702477  0.02337697  0.58320843  1
  O  O332  1  0.58329047  0.01532386  0.91349040  1
  O  O333  1  0.58536050  0.51168922  0.25128033  1
  O  O334  1  0.58539588  0.50080594  0.58486549  1
  O  O335  1  0.57795395  0.51091786  0.90253318  1
  O  O336  1  0.92763742  0.01932750  0.26442003  1
  O  O337  1  0.93062601  0.01700132  0.59611501  1
  O  O338  1  0.91747906  0.01228487  0.91336306  1
  O  O339  1  0.92356809  0.52257932  0.25670832  1
  O  O340  1  0.92300091  0.51466514  0.59684131  1
  O  O341  1  0.92154956  0.52294966  0.92292421  1
  O  O342  1  0.09401649  0.22948279  0.24117067  1
  O  O343  1  0.09035750  0.22890338  0.57731081  1
  O  O344  1  0.09109116  0.23435394  0.90162863  1
  O  O345  1  0.08695559  0.72967068  0.24396815  1
  O  O346  1  0.08472878  0.73656778  0.58259880  1
  O  O347  1  0.08485986  0.73115283  0.91272026  1
  O  O348  1  0.42019790  0.22356359  0.24454853  1
  O  O349  1  0.42324662  0.22271566  0.57734667  1
  O  O350  1  0.41766988  0.22369071  0.90912815  1
  O  O351  1  0.41404123  0.73971048  0.25016869  1
  O  O352  1  0.41466739  0.73755705  0.58546668  1
  O  O353  1  0.41680755  0.73705732  0.91204037  1
  O  O354  1  0.75565606  0.23711529  0.24895197  1
  O  O355  1  0.74849340  0.23243460  0.59023930  1
  O  O356  1  0.75635993  0.23877265  0.90650009  1
  O  O357  1  0.76288585  0.74446510  0.23739536  1
  O  O358  1  0.75530606  0.74984926  0.57904754  1
  O  O359  1  0.76115535  0.73705280  0.90983820  1
