# generated using pymatgen
data_Ba17Sr5La8Pr42Mn72O216
_symmetry_space_group_name_H-M   'P 1'
_cell_length_a   16.68030772
_cell_length_b   15.70233659
_cell_length_c   16.81884876
_cell_angle_alpha   89.99513765
_cell_angle_beta   90.02327842
_cell_angle_gamma   89.98887839
_symmetry_Int_Tables_number   1
_chemical_formula_structural   Ba17Sr5La8Pr42Mn72O216
_chemical_formula_sum   'Ba17 Sr5 La8 Pr42 Mn72 O216'
_cell_volume   4405.18914787
_cell_formula_units_Z   1
loop_
 _symmetry_equiv_pos_site_id
 _symmetry_equiv_pos_as_xyz
  1  'x, y, z'
loop_
 _atom_site_type_symbol
 _atom_site_label
 _atom_site_symmetry_multiplicity
 _atom_site_fract_x
 _atom_site_fract_y
 _atom_site_fract_z
 _atom_site_occupancy
  Ba  Ba0  1  0.16378518  0.62588630  0.50363209  1
  Ba  Ba1  1  0.50004538  0.37468423  0.49673635  1
  Ba  Ba2  1  0.00517263  0.37369818  0.00435780  1
  Ba  Ba3  1  0.66903085  0.12469511  0.33186631  1
  Ba  Ba4  1  0.66762455  0.37439073  -0.00073103  1
  Ba  Ba5  1  0.00179309  0.37511575  0.67083025  1
  Ba  Ba6  1  0.66661306  0.37453574  0.66395430  1
  Ba  Ba7  1  0.83527327  0.87550259  0.82917098  1
  Ba  Ba8  1  0.66571786  0.87489239  0.66726928  1
  Ba  Ba9  1  0.16310871  0.12459114  0.50158955  1
  Ba  Ba10  1  0.49791732  0.87473715  0.82903599  1
  Ba  Ba11  1  0.66769806  0.12468794  1.00008732  1
  Ba  Ba12  1  0.66467335  0.62398505  0.99707412  1
  Ba  Ba13  1  0.50069780  0.12446832  0.49675709  1
  Ba  Ba14  1  0.49553208  0.62571408  0.83424785  1
  Ba  Ba15  1  0.50082301  0.87355542  0.49732982  1
  Ba  Ba16  1  0.67085669  0.37495377  0.33555031  1
  Sr  Sr17  1  0.33523120  0.37565900  0.33462290  1
  Sr  Sr18  1  0.00619519  0.87590624  0.33615321  1
  Sr  Sr19  1  -0.00100893  0.12274786  0.33509596  1
  Sr  Sr20  1  0.83716295  0.37433540  0.49824219  1
  Sr  Sr21  1  0.00383537  0.87486181  0.66979795  1
  La  La22  1  -0.00849904  0.62546948  1.00166061  1
  La  La23  1  0.50439752  0.37248764  0.16633539  1
  La  La24  1  0.50596588  0.87853630  0.16208300  1
  La  La25  1  0.33158307  0.87613128  0.66482711  1
  La  La26  1  0.49716908  0.62248701  0.16253279  1
  La  La27  1  0.66179400  0.62737603  0.66770202  1
  La  La28  1  0.33689447  0.12650884  0.33192981  1
  La  La29  1  0.49865207  0.12489961  0.82992843  1
  Pr  Pr30  1  0.17375569  0.37478800  0.83508090  1
  Pr  Pr31  1  0.00605973  0.87402641  0.00436887  1
  Pr  Pr32  1  -0.01015752  0.62817154  0.33470790  1
  Pr  Pr33  1  0.00437812  0.37520753  0.34012472  1
  Pr  Pr34  1  0.66840661  0.11989305  0.66180777  1
  Pr  Pr35  1  0.33924701  0.87462943  -0.00039907  1
  Pr  Pr36  1  0.33819167  0.37613035  0.00276675  1
  Pr  Pr37  1  0.82740209  0.62074404  0.83168053  1
  Pr  Pr38  1  0.33241445  0.87488233  0.33612279  1
  Pr  Pr39  1  0.15952570  0.62393267  0.17518507  1
  Pr  Pr40  1  0.16789594  0.87588556  0.83376918  1
  Pr  Pr41  1  0.65588972  0.62538147  0.32946367  1
  Pr  Pr42  1  0.15964457  0.12530313  0.83529047  1
  Pr  Pr43  1  0.33226340  0.62710047  0.66402531  1
  Pr  Pr44  1  0.33171592  0.12289409  0.65955470  1
  Pr  Pr45  1  0.16518733  0.12758264  0.17701661  1
  Pr  Pr46  1  0.82823881  0.62280878  0.50151598  1
  Pr  Pr47  1  -0.00626417  0.12274493  1.00201154  1
  Pr  Pr48  1  0.33158641  0.62429517  0.33250279  1
  Pr  Pr49  1  0.49624624  0.61954741  0.50102017  1
  Pr  Pr50  1  0.83914150  0.88009671  0.16111253  1
  Pr  Pr51  1  0.67514604  0.87522644  0.33794369  1
  Pr  Pr52  1  -0.00909130  0.12267262  0.66262159  1
  Pr  Pr53  1  0.82367386  0.62353229  0.16786438  1
  Pr  Pr54  1  0.66690056  0.87148342  -0.00456506  1
  Pr  Pr55  1  0.15778520  0.62468915  0.83636108  1
  Pr  Pr56  1  0.33442070  0.37283595  0.66555503  1
  Pr  Pr57  1  0.82916771  0.12690947  0.83012536  1
  Pr  Pr58  1  0.83099246  0.12712385  0.49897206  1
  Pr  Pr59  1  0.83421741  0.37414379  0.83097594  1
  Pr  Pr60  1  0.50610028  0.37523961  0.82841692  1
  Pr  Pr61  1  0.50691493  0.12790489  0.17108833  1
  Pr  Pr62  1  0.16669671  0.87502745  0.50028037  1
  Pr  Pr63  1  0.17889345  0.37455905  0.16657938  1
  Pr  Pr64  1  0.83882555  0.87555271  0.49798056  1
  Pr  Pr65  1  0.16956568  0.37524241  0.49957637  1
  Pr  Pr66  1  0.83838141  0.37146691  0.16466565  1
  Pr  Pr67  1  0.32923695  0.12261761  0.99727310  1
  Pr  Pr68  1  -0.00960678  0.62678964  0.66546309  1
  Pr  Pr69  1  0.17602645  0.87691981  0.16715280  1
  Pr  Pr70  1  0.32544984  0.62634261  0.99352843  1
  Pr  Pr71  1  0.83311122  0.12958206  0.17061924  1
  Mn  Mn72  1  0.00393207  -0.00157694  0.16789616  1
  Mn  Mn73  1  -0.00067220  -0.00119636  0.50094061  1
  Mn  Mn74  1  0.00042555  0.00159935  0.83407549  1
  Mn  Mn75  1  0.00023944  0.50169042  0.17123294  1
  Mn  Mn76  1  0.00013718  0.50049219  0.50148916  1
  Mn  Mn77  1  -0.00010244  0.50026567  0.83642332  1
  Mn  Mn78  1  0.33477312  0.00067800  0.16461035  1
  Mn  Mn79  1  0.33133091  -0.00087602  0.49840707  1
  Mn  Mn80  1  0.32903272  0.00250052  0.83103063  1
  Mn  Mn81  1  0.33381667  0.50157202  0.16455187  1
  Mn  Mn82  1  0.33089564  0.50035309  0.49913434  1
  Mn  Mn83  1  0.32957167  0.49865426  0.83395406  1
  Mn  Mn84  1  0.67010078  -0.00336016  0.16488087  1
  Mn  Mn85  1  0.66886138  -0.00164168  0.49830798  1
  Mn  Mn86  1  0.66592433  0.00286024  0.83185995  1
  Mn  Mn87  1  0.66654007  0.50049298  0.16702721  1
  Mn  Mn88  1  0.66880583  0.50179976  0.49778786  1
  Mn  Mn89  1  0.66634424  0.49824043  0.83251265  1
  Mn  Mn90  1  0.00400092  0.24949606  0.17136246  1
  Mn  Mn91  1  0.00004766  0.25015186  0.50154887  1
  Mn  Mn92  1  0.00068579  0.24840896  0.83577243  1
  Mn  Mn93  1  0.00047497  0.75107865  0.16855644  1
  Mn  Mn94  1  -0.00105506  0.75142062  0.50098389  1
  Mn  Mn95  1  -0.00087722  0.74932238  0.83473183  1
  Mn  Mn96  1  0.33509766  0.24962030  0.16461260  1
  Mn  Mn97  1  0.33111647  0.25019936  0.49873813  1
  Mn  Mn98  1  0.33112166  0.24853735  0.83336732  1
  Mn  Mn99  1  0.33395642  0.74937162  0.16496777  1
  Mn  Mn100  1  0.33209754  0.74959610  0.49850502  1
  Mn  Mn101  1  0.32722016  0.75036209  0.83201791  1
  Mn  Mn102  1  0.66884894  0.25121329  0.16560524  1
  Mn  Mn103  1  0.66846770  0.24938959  0.49962505  1
  Mn  Mn104  1  0.66640408  0.24891054  0.83142808  1
  Mn  Mn105  1  0.66773274  0.75171567  0.16756808  1
  Mn  Mn106  1  0.66821629  0.74932111  0.49663291  1
  Mn  Mn107  1  0.66620160  0.75026985  0.83270829  1
  Mn  Mn108  1  0.16801521  0.24692636  0.00365304  1
  Mn  Mn109  1  0.16774383  0.25103621  0.33487033  1
  Mn  Mn110  1  0.16664880  0.24998905  0.66988388  1
  Mn  Mn111  1  0.16609873  0.75083114  0.00395297  1
  Mn  Mn112  1  0.16621609  0.74969451  0.33473766  1
  Mn  Mn113  1  0.16495975  0.75010688  0.67070337  1
  Mn  Mn114  1  0.49695432  0.24685170  -0.00168665  1
  Mn  Mn115  1  0.49962901  0.25001785  0.33159410  1
  Mn  Mn116  1  0.49781182  0.24974466  0.66678613  1
  Mn  Mn117  1  0.49825840  0.75238319  -0.00009500  1
  Mn  Mn118  1  0.49768767  0.75027767  0.32859456  1
  Mn  Mn119  1  0.49727046  0.74749215  0.66376510  1
  Mn  Mn120  1  0.83642305  0.24859262  -0.00043249  1
  Mn  Mn121  1  0.83869145  0.25023404  0.33359026  1
  Mn  Mn122  1  0.83304979  0.25104556  0.66637571  1
  Mn  Mn123  1  0.83496652  0.75199690  -0.00074383  1
  Mn  Mn124  1  0.83449650  0.75090003  0.33179461  1
  Mn  Mn125  1  0.83351699  0.74877427  0.66549666  1
  Mn  Mn126  1  0.16687990  0.00059936  0.00276048  1
  Mn  Mn127  1  0.16806959  -0.00069214  0.33418033  1
  Mn  Mn128  1  0.16447583  -0.00024325  0.66952923  1
  Mn  Mn129  1  0.16619083  0.50096659  0.00412241  1
  Mn  Mn130  1  0.16591328  0.50076107  0.33484777  1
  Mn  Mn131  1  0.16714217  0.49998063  0.67046913  1
  Mn  Mn132  1  0.49892569  0.00179669  -0.00118074  1
  Mn  Mn133  1  0.49975377  -0.00146550  0.32765506  1
  Mn  Mn134  1  0.49703083  0.00096555  0.66540011  1
  Mn  Mn135  1  0.49703161  0.49827315  -0.00112310  1
  Mn  Mn136  1  0.49742060  0.50226137  0.33199786  1
  Mn  Mn137  1  0.49795645  0.50009153  0.66617767  1
  Mn  Mn138  1  0.83569731  -0.00077616  -0.00224470  1
  Mn  Mn139  1  0.83852603  -0.00135918  0.33059030  1
  Mn  Mn140  1  0.83454088  -0.00091431  0.66488293  1
  Mn  Mn141  1  0.83557196  0.49916269  0.00108673  1
  Mn  Mn142  1  0.83483685  0.50203972  0.33367716  1
  Mn  Mn143  1  0.83255970  0.49916932  0.66642358  1
  O  O144  1  0.17387918  0.12370309  0.03285183  1
  O  O145  1  0.17712031  0.12506129  0.34374178  1
  O  O146  1  0.17481199  0.12536307  0.69216694  1
  O  O147  1  0.17375598  0.63101740  0.03192467  1
  O  O148  1  0.17743166  0.62610379  0.34655367  1
  O  O149  1  0.17681686  0.62518070  0.69414935  1
  O  O150  1  0.48970709  0.12358621  0.02683846  1
  O  O151  1  0.49715366  0.12210371  0.33640540  1
  O  O152  1  0.48468996  0.12830393  0.68444901  1
  O  O153  1  0.49005521  0.62965978  0.01864006  1
  O  O154  1  0.50134759  0.62955931  0.35484723  1
  O  O155  1  0.49129622  0.62261886  0.67594335  1
  O  O156  1  0.83923520  0.12198093  0.02602260  1
  O  O157  1  0.83926168  0.12082044  0.35289766  1
  O  O158  1  0.83608549  0.12650063  0.68503490  1
  O  O159  1  0.83508610  0.62931423  0.02293525  1
  O  O160  1  0.83987104  0.62880051  0.35815459  1
  O  O161  1  0.83908705  0.62311232  0.68713002  1
  O  O162  1  0.15823876  0.37768147  0.30888323  1
  O  O163  1  0.16901213  0.37556477  0.64434961  1
  O  O164  1  0.17216893  0.36931109  0.97821156  1
  O  O165  1  0.17145351  0.87238820  0.31010660  1
  O  O166  1  0.16324062  0.87357616  0.64477021  1
  O  O167  1  0.16437998  0.87516683  0.97535413  1
  O  O168  1  0.49341955  0.37754521  0.31098211  1
  O  O169  1  0.49356040  0.37644454  0.65564325  1
  O  O170  1  0.48833834  0.36772238  0.97277823  1
  O  O171  1  0.48865120  0.87257459  0.30546364  1
  O  O172  1  0.49225474  0.87100775  0.65579379  1
  O  O173  1  0.49621229  0.87807511  0.98605909  1
  O  O174  1  0.84414595  0.37955089  0.30801743  1
  O  O175  1  0.83491583  0.37613330  0.64990094  1
  O  O176  1  0.84034790  0.37056346  0.97862156  1
  O  O177  1  0.82878554  0.87286297  0.30434924  1
  O  O178  1  0.83541115  0.87363516  0.64370508  1
  O  O179  1  0.84831635  0.87598192  0.98581760  1
  O  O180  1  -0.00910299  0.37985847  0.19453501  1
  O  O181  1  0.00235211  0.37608758  0.51372654  1
  O  O182  1  -0.00909260  0.37418214  0.84848924  1
  O  O183  1  -0.01065315  0.87418479  0.18733093  1
  O  O184  1  -0.00342231  0.87423509  0.52209574  1
  O  O185  1  0.00475014  0.87648113  0.86048057  1
  O  O186  1  0.33234517  0.37787429  0.18532498  1
  O  O187  1  0.32747973  0.37693769  0.51953097  1
  O  O188  1  0.32448570  0.37080866  0.86253425  1
  O  O189  1  0.33115885  0.87377964  0.19297798  1
  O  O190  1  0.32801239  0.87339592  0.51856708  1
  O  O191  1  0.32358725  0.87852266  0.85786450  1
  O  O192  1  0.66554871  0.37772028  0.17680866  1
  O  O193  1  0.67026895  0.37806187  0.50751278  1
  O  O194  1  0.66061663  0.37245701  0.84059511  1
  O  O195  1  0.66821630  0.87258344  0.19439947  1
  O  O196  1  0.67353434  0.87326357  0.51119050  1
  O  O197  1  0.66428722  0.87991007  0.84756382  1
  O  O198  1  0.01399176  0.11955218  0.14428307  1
  O  O199  1  -0.00620623  0.12385938  0.48412910  1
  O  O200  1  0.00901071  0.12500966  0.80768955  1
  O  O201  1  0.01163419  0.62742611  0.14436561  1
  O  O202  1  -0.00458711  0.62699674  0.47847822  1
  O  O203  1  0.00868286  0.62432822  0.81076840  1
  O  O204  1  0.32711462  0.12331989  0.14053526  1
  O  O205  1  0.32876731  0.12286975  0.47977725  1
  O  O206  1  0.32656784  0.12756403  0.80316438  1
  O  O207  1  0.33325848  0.62612846  0.13564075  1
  O  O208  1  0.33391972  0.62627797  0.47766385  1
  O  O209  1  0.32189646  0.62232934  0.80903085  1
  O  O210  1  0.66865985  0.12289997  0.15682410  1
  O  O211  1  0.67418711  0.12052844  0.48892830  1
  O  O212  1  0.67449058  0.12772108  0.81154440  1
  O  O213  1  0.66988714  0.62728136  0.15269465  1
  O  O214  1  0.67540699  0.62889730  0.47170564  1
  O  O215  1  0.67561836  0.62155443  0.82000435  1
  O  O216  1  0.08918720  0.01178527  0.24870341  1
  O  O217  1  0.07487183  0.01542658  0.59722500  1
  O  O218  1  0.07887868  0.02331583  0.92702480  1
  O  O219  1  0.07377153  0.52396147  0.26292483  1
  O  O220  1  0.07680437  0.51890841  0.59858566  1
  O  O221  1  0.07822594  0.52284986  0.93029261  1
  O  O222  1  0.41736728  0.02223909  0.24067001  1
  O  O223  1  0.41001178  0.01059021  0.58312565  1
  O  O224  1  0.40792772  0.02212283  0.91436886  1
  O  O225  1  0.41110117  0.52681559  0.24847404  1
  O  O226  1  0.41234021  0.51801197  0.58215494  1
  O  O227  1  0.39942735  0.51362518  0.92643940  1
  O  O228  1  0.75952660  0.01143228  0.24075618  1
  O  O229  1  0.75299471  0.01810370  0.58178414  1
  O  O230  1  0.75205469  0.01192874  0.91323551  1
  O  O231  1  0.74634935  0.52298831  0.25782423  1
  O  O232  1  0.74572104  0.52427590  0.58734425  1
  O  O233  1  0.75444176  0.50642243  0.91350275  1
  O  O234  1  0.24898622  0.23731851  0.24517749  1
  O  O235  1  0.25006490  0.23841201  0.58868140  1
  O  O236  1  0.24475357  0.22325715  0.91391447  1
  O  O237  1  0.24788304  0.73113395  0.24162092  1
  O  O238  1  0.25323823  0.73878156  0.59092740  1
  O  O239  1  0.23862826  0.72885493  0.91314884  1
  O  O240  1  0.57769129  0.24286014  0.24338272  1
  O  O241  1  0.58567417  0.23364321  0.59092737  1
  O  O242  1  0.57376849  0.23334227  0.91128397  1
  O  O243  1  0.57466324  0.73005295  0.24129629  1
  O  O244  1  0.58109808  0.72669298  0.57346273  1
  O  O245  1  0.58123092  0.74711758  0.91746382  1
  O  O246  1  0.91743923  0.22847466  0.24628500  1
  O  O247  1  0.91227953  0.22989236  0.58054754  1
  O  O248  1  0.91748130  0.22223658  0.91642485  1
  O  O249  1  0.90944440  0.72605284  0.24279407  1
  O  O250  1  0.90897153  0.72993298  0.57566918  1
  O  O251  1  0.91176981  0.72453748  0.90861875  1
  O  O252  1  0.09665707  0.48434578  0.10355099  1
  O  O253  1  0.08848909  0.48098376  0.42550158  1
  O  O254  1  0.09496195  0.48571932  0.76890251  1
  O  O255  1  0.08845780  0.97200431  0.08853146  1
  O  O256  1  0.08644443  0.98147874  0.42545274  1
  O  O257  1  0.09139035  0.98415294  0.76296780  1
  O  O258  1  0.42096459  0.47853300  0.08854809  1
  O  O259  1  0.41410967  0.49704037  0.41332035  1
  O  O260  1  0.41427385  0.47762885  0.75804008  1
  O  O261  1  0.41562747  0.97870090  0.08327286  1
  O  O262  1  0.40963050  0.98839166  0.40371052  1
  O  O263  1  0.40678319  0.98987161  0.74474871  1
  O  O264  1  0.76109896  0.48701613  0.09436975  1
  O  O265  1  0.76385166  0.49196267  0.42449944  1
  O  O266  1  0.75737673  0.48730584  0.75565777  1
  O  O267  1  0.75267775  0.97394027  0.08014806  1
  O  O268  1  0.75625087  0.97923608  0.41474411  1
  O  O269  1  0.75147190  0.99829235  0.74590944  1
  O  O270  1  0.25696549  0.27133646  0.07903669  1
  O  O271  1  0.24700141  0.27174769  0.41649618  1
  O  O272  1  0.25323347  0.27561823  0.74911709  1
  O  O273  1  0.25760117  0.77683506  0.07705984  1
  O  O274  1  0.24991763  0.77164506  0.41572914  1
  O  O275  1  0.24805297  0.77667616  0.75057188  1
  O  O276  1  0.57739714  0.25948860  0.08388672  1
  O  O277  1  0.58276240  0.25552560  0.41376146  1
  O  O278  1  0.57533409  0.25521359  0.75385994  1
  O  O279  1  0.59054670  0.77343125  0.08220232  1
  O  O280  1  0.59271110  0.76485838  0.40010823  1
  O  O281  1  0.58405077  0.74736085  0.74255939  1
  O  O282  1  0.92008577  0.25782459  0.08761160  1
  O  O283  1  0.92495858  0.26725609  0.40968813  1
  O  O284  1  0.91287102  0.25735670  0.75341570  1
  O  O285  1  0.92695507  0.76440762  0.07525983  1
  O  O286  1  0.91968036  0.76959279  0.40945328  1
  O  O287  1  0.92567256  0.75698421  0.74037741  1
  O  O288  1  0.25774544  0.47969766  0.07629983  1
  O  O289  1  0.24897256  0.48098365  0.41589241  1
  O  O290  1  0.25383502  0.47208787  0.74859530  1
  O  O291  1  0.25491359  0.97485329  0.08018971  1
  O  O292  1  0.24877768  0.97545340  0.41695081  1
  O  O293  1  0.24801623  0.97586082  0.74993109  1
  O  O294  1  0.57891139  0.49033210  0.08616275  1
  O  O295  1  0.58603423  0.50058045  0.41319322  1
  O  O296  1  0.58312645  0.49392037  0.74872505  1
  O  O297  1  0.59066350  0.97798479  0.08049622  1
  O  O298  1  0.58896365  0.98213163  0.40642844  1
  O  O299  1  0.58001800  1.00626733  0.74951113  1
  O  O300  1  0.92169492  0.49143587  0.08557879  1
  O  O301  1  0.92784134  0.48846690  0.40432008  1
  O  O302  1  0.91600722  0.49292784  0.75398354  1
  O  O303  1  0.92577448  0.98497080  0.07904687  1
  O  O304  1  0.91684084  0.97772010  0.41471617  1
  O  O305  1  0.92377733  0.99371381  0.74217913  1
  O  O306  1  0.09685780  0.26630704  0.09959047  1
  O  O307  1  0.08795885  0.27013273  0.42265850  1
  O  O308  1  0.09543043  0.26412192  0.76696302  1
  O  O309  1  0.09281809  0.77602979  0.09369936  1
  O  O310  1  0.08792437  0.76905287  0.42681149  1
  O  O311  1  0.09217209  0.76475232  0.76610876  1
  O  O312  1  0.41784717  0.27164774  0.08328760  1
  O  O313  1  0.41108579  0.25513750  0.40747821  1
  O  O314  1  0.41540917  0.27253132  0.75665410  1
  O  O315  1  0.42053406  0.77320782  0.08962700  1
  O  O316  1  0.41035593  0.76286721  0.40640629  1
  O  O317  1  0.40434022  0.75757278  0.74340262  1
  O  O318  1  0.75939757  0.26158372  0.08691822  1
  O  O319  1  0.76237544  0.25637533  0.42066807  1
  O  O320  1  0.75624223  0.26347038  0.75313517  1
  O  O321  1  0.75750303  0.77376157  0.08909821  1
  O  O322  1  0.75933802  0.77251986  0.41925793  1
  O  O323  1  0.75397550  0.75018078  0.75028647  1
  O  O324  1  0.25463250  0.01671161  0.24635910  1
  O  O325  1  0.24917394  0.00894377  0.58918824  1
  O  O326  1  0.24420854  0.02374012  0.91419325  1
  O  O327  1  0.24517128  0.51724202  0.24086096  1
  O  O328  1  0.25298250  0.51366404  0.58818440  1
  O  O329  1  0.23989416  0.52018118  0.91019656  1
  O  O330  1  0.57802009  0.00714252  0.23909209  1
  O  O331  1  0.58633731  0.01282973  0.58704390  1
  O  O332  1  0.57674062  0.01861804  0.91184555  1
  O  O333  1  0.57755358  0.52004034  0.24621392  1
  O  O334  1  0.58308889  0.52281147  0.57723821  1
  O  O335  1  0.57503825  0.50202495  0.91323325  1
  O  O336  1  0.91776493  0.02045702  0.24270450  1
  O  O337  1  0.91125843  0.01939950  0.57758124  1
  O  O338  1  0.91542233  0.02709124  0.91147110  1
  O  O339  1  0.91079169  0.53014470  0.24402003  1
  O  O340  1  0.91188007  0.52091719  0.57865802  1
  O  O341  1  0.91515752  0.52377354  0.91446863  1
  O  O342  1  0.08305376  0.23202869  0.25722864  1
  O  O343  1  0.07692073  0.23284113  0.59719947  1
  O  O344  1  0.08125527  0.22387488  0.92920395  1
  O  O345  1  0.07806175  0.73044682  0.25870036  1
  O  O346  1  0.07504422  0.73288094  0.59971846  1
  O  O347  1  0.07482349  0.73076057  0.93208720  1
  O  O348  1  0.41640009  0.22898306  0.24274180  1
  O  O349  1  0.40897098  0.23987712  0.58910411  1
  O  O350  1  0.40880533  0.22225087  0.91861145  1
  O  O351  1  0.41103788  0.72183979  0.24832901  1
  O  O352  1  0.41574445  0.72881672  0.57733927  1
  O  O353  1  0.39966064  0.73982278  0.92287829  1
  O  O354  1  0.75966808  0.24200777  0.24616539  1
  O  O355  1  0.75032805  0.22874561  0.58693529  1
  O  O356  1  0.75670581  0.23830566  0.91116371  1
  O  O357  1  0.74370450  0.72829426  0.25761583  1
  O  O358  1  0.74773248  0.72603072  0.58596739  1
  O  O359  1  0.74889248  0.74733925  0.92199646  1
