# generated using pymatgen
data_Ba17Sr5La8Pr42Mn72O216
_symmetry_space_group_name_H-M   'P 1'
_cell_length_a   16.67257458
_cell_length_b   15.70558880
_cell_length_c   16.82338026
_cell_angle_alpha   89.98742290
_cell_angle_beta   89.99954811
_cell_angle_gamma   90.05361316
_symmetry_Int_Tables_number   1
_chemical_formula_structural   Ba17Sr5La8Pr42Mn72O216
_chemical_formula_sum   'Ba17 Sr5 La8 Pr42 Mn72 O216'
_cell_volume   4405.24383766
_cell_formula_units_Z   1
loop_
 _symmetry_equiv_pos_site_id
 _symmetry_equiv_pos_as_xyz
  1  'x, y, z'
loop_
 _atom_site_type_symbol
 _atom_site_label
 _atom_site_symmetry_multiplicity
 _atom_site_fract_x
 _atom_site_fract_y
 _atom_site_fract_z
 _atom_site_occupancy
  Ba  Ba0  1  0.50230194  0.87335015  0.83072418  1
  Ba  Ba1  1  0.00254305  0.87617016  0.00033652  1
  Ba  Ba2  1  0.16803395  0.37596200  0.83427350  1
  Ba  Ba3  1  0.50122646  0.12417496  0.50029269  1
  Ba  Ba4  1  0.33279585  0.37452742  0.66637836  1
  Ba  Ba5  1  0.83431880  0.37513883  0.16478152  1
  Ba  Ba6  1  0.16191365  0.62573877  0.50027450  1
  Ba  Ba7  1  0.33631288  0.12426437  0.99941739  1
  Ba  Ba8  1  0.16662858  0.62417296  0.83529263  1
  Ba  Ba9  1  0.83481724  0.12658126  0.83365415  1
  Ba  Ba10  1  0.33108600  0.62514109  0.99981629  1
  Ba  Ba11  1  0.33365067  0.12551212  0.66425591  1
  Ba  Ba12  1  -0.00075013  0.12270079  1.00156021  1
  Ba  Ba13  1  0.83383751  0.37529639  0.83271421  1
  Ba  Ba14  1  0.66835107  0.37827487  0.00198842  1
  Ba  Ba15  1  0.49892341  0.12518211  0.16881856  1
  Ba  Ba16  1  0.66795268  0.87292675  0.66759379  1
  Sr  Sr17  1  0.50360074  0.87625430  0.50149748  1
  Sr  Sr18  1  0.66519245  0.62216553  1.00059246  1
  Sr  Sr19  1  0.83031404  0.12493047  0.16493671  1
  Sr  Sr20  1  0.15992485  0.62627388  0.16971662  1
  Sr  Sr21  1  0.83062985  0.12514389  0.50053736  1
  La  La22  1  0.66952814  0.87363495  0.00062852  1
  La  La23  1  0.83082567  0.62647939  0.83509360  1
  La  La24  1  0.66923978  0.12209141  0.66751957  1
  La  La25  1  0.83876555  0.87730905  0.83115616  1
  La  La26  1  0.83694867  0.87847516  0.49820541  1
  La  La27  1  0.66521377  0.37295608  0.33477824  1
  La  La28  1  0.17360742  0.87779427  0.83471749  1
  La  La29  1  0.82794775  0.62606003  0.16551823  1
  Pr  Pr30  1  0.49852718  0.37544284  0.16215017  1
  Pr  Pr31  1  0.49573476  0.62526525  0.50190898  1
  Pr  Pr32  1  0.16299593  0.12458007  0.50210648  1
  Pr  Pr33  1  0.33866016  0.87535181  0.66546086  1
  Pr  Pr34  1  -0.00578537  0.62165005  0.66501925  1
  Pr  Pr35  1  0.33782556  0.87163161  -0.00074484  1
  Pr  Pr36  1  0.50514190  0.12482517  0.83654450  1
  Pr  Pr37  1  0.00047962  0.37202181  -0.00093810  1
  Pr  Pr38  1  0.33516857  0.37631014  -0.00220275  1
  Pr  Pr39  1  0.82644672  0.62650486  0.50165070  1
  Pr  Pr40  1  0.16823324  0.37468236  0.16111945  1
  Pr  Pr41  1  -0.00335885  0.12784067  0.66703508  1
  Pr  Pr42  1  0.00564479  0.87389727  0.67007334  1
  Pr  Pr43  1  0.66818183  0.87894938  0.33972432  1
  Pr  Pr44  1  0.49926424  0.62500172  0.83603626  1
  Pr  Pr45  1  0.49785876  0.62180359  0.16812681  1
  Pr  Pr46  1  0.67041353  0.12914359  0.99858731  1
  Pr  Pr47  1  0.34250436  0.87292450  0.33461288  1
  Pr  Pr48  1  0.33002074  0.62529738  0.66641007  1
  Pr  Pr49  1  0.66457764  0.37390026  0.67205179  1
  Pr  Pr50  1  0.66950260  0.12239504  0.33179945  1
  Pr  Pr51  1  -0.01322421  0.12465045  0.32855056  1
  Pr  Pr52  1  0.83443824  0.37116318  0.49518516  1
  Pr  Pr53  1  0.00229215  0.37606923  0.66874842  1
  Pr  Pr54  1  0.32555114  0.62471514  0.32372271  1
  Pr  Pr55  1  0.32846674  0.12521086  0.32546128  1
  Pr  Pr56  1  0.83616234  0.87592498  0.16505564  1
  Pr  Pr57  1  -0.00201046  0.62354260  0.99846255  1
  Pr  Pr58  1  0.49905722  0.37631700  0.83407954  1
  Pr  Pr59  1  0.17631555  0.87426489  0.16406897  1
  Pr  Pr60  1  0.16923183  0.12870097  0.83578208  1
  Pr  Pr61  1  0.00504122  0.37370820  0.33515870  1
  Pr  Pr62  1  0.65948156  0.62779518  0.33062461  1
  Pr  Pr63  1  0.15764978  0.12295631  0.17004284  1
  Pr  Pr64  1  0.66049174  0.62450560  0.66828783  1
  Pr  Pr65  1  0.33841321  0.37586228  0.33415002  1
  Pr  Pr66  1  -0.01080682  0.62524301  0.32972658  1
  Pr  Pr67  1  0.50224953  0.87384240  0.16189684  1
  Pr  Pr68  1  0.17499599  0.37503820  0.49878140  1
  Pr  Pr69  1  0.00905632  0.87642015  0.33766484  1
  Pr  Pr70  1  0.17691991  0.87480684  0.49731523  1
  Pr  Pr71  1  0.49835129  0.37331088  0.50045260  1
  Mn  Mn72  1  -0.00126688  -0.00155748  0.17108060  1
  Mn  Mn73  1  0.00072831  0.00124154  0.50104037  1
  Mn  Mn74  1  0.00307063  -0.00089793  0.83175575  1
  Mn  Mn75  1  0.00058429  0.50195153  0.16749787  1
  Mn  Mn76  1  -0.00304805  0.49864804  0.49865770  1
  Mn  Mn77  1  -0.00066868  0.50119640  0.83206826  1
  Mn  Mn78  1  0.33234013  -0.00104858  0.16657536  1
  Mn  Mn79  1  0.33461060  -0.00131841  0.49648463  1
  Mn  Mn80  1  0.33587216  0.00105254  0.83115131  1
  Mn  Mn81  1  0.33133357  0.49908696  0.16641343  1
  Mn  Mn82  1  0.33242580  0.50103283  0.49679921  1
  Mn  Mn83  1  0.33496309  0.50027142  0.83231917  1
  Mn  Mn84  1  0.66683331  -0.00242392  0.16819131  1
  Mn  Mn85  1  0.66804778  -0.00002899  0.50049480  1
  Mn  Mn86  1  0.66878709  -0.00062649  0.83474491  1
  Mn  Mn87  1  0.66516654  0.50325588  0.16948691  1
  Mn  Mn88  1  0.66566523  0.50100017  0.50165824  1
  Mn  Mn89  1  0.66745262  0.50126405  0.83325408  1
  Mn  Mn90  1  -0.00004419  0.24962769  0.16963694  1
  Mn  Mn91  1  0.00008116  0.24952443  0.49959801  1
  Mn  Mn92  1  0.00133261  0.25070387  0.83296218  1
  Mn  Mn93  1  -0.00101046  0.75092152  0.16897293  1
  Mn  Mn94  1  -0.00179312  0.75135437  0.50037491  1
  Mn  Mn95  1  0.00137630  0.74982813  0.83221744  1
  Mn  Mn96  1  0.33011149  0.25066206  0.16659001  1
  Mn  Mn97  1  0.33332625  0.25014828  0.49577660  1
  Mn  Mn98  1  0.33618102  0.24960593  0.83288652  1
  Mn  Mn99  1  0.33388175  0.74929804  0.16680870  1
  Mn  Mn100  1  0.33459176  0.74840793  0.49777514  1
  Mn  Mn101  1  0.33359958  0.75122669  0.83160566  1
  Mn  Mn102  1  0.66633064  0.24840168  0.16839378  1
  Mn  Mn103  1  0.66749013  0.25187785  0.50247736  1
  Mn  Mn104  1  0.66684253  0.25216874  0.83314637  1
  Mn  Mn105  1  0.66542668  0.75050235  0.16915471  1
  Mn  Mn106  1  0.66670733  0.74911096  0.49925474  1
  Mn  Mn107  1  0.66914641  0.74740148  0.83579186  1
  Mn  Mn108  1  0.16852654  0.24943295  0.00162087  1
  Mn  Mn109  1  0.16487098  0.25088310  0.33339681  1
  Mn  Mn110  1  0.16424913  0.24795776  0.66564295  1
  Mn  Mn111  1  0.16611197  0.75037613  0.00203526  1
  Mn  Mn112  1  0.16523837  0.74988946  0.33287972  1
  Mn  Mn113  1  0.16566094  0.75071543  0.66660967  1
  Mn  Mn114  1  0.50167202  0.25007396  0.00062286  1
  Mn  Mn115  1  0.49952300  0.24997014  0.33404970  1
  Mn  Mn116  1  0.50210819  0.25081425  0.66795484  1
  Mn  Mn117  1  0.50228124  0.74900450  0.00005187  1
  Mn  Mn118  1  0.50011560  0.74997030  0.33344074  1
  Mn  Mn119  1  0.49876739  0.74742153  0.66550352  1
  Mn  Mn120  1  0.83459388  0.25030257  0.00120874  1
  Mn  Mn121  1  0.83103135  0.25124425  0.33270532  1
  Mn  Mn122  1  0.83317040  0.25051341  0.66176437  1
  Mn  Mn123  1  0.83336061  0.74989971  0.00047934  1
  Mn  Mn124  1  0.83250170  0.75050880  0.33360212  1
  Mn  Mn125  1  0.83488954  0.74872141  0.66591899  1
  Mn  Mn126  1  0.16982803  -0.00028349  0.00022109  1
  Mn  Mn127  1  0.16664349  -0.00073305  0.33503939  1
  Mn  Mn128  1  0.16589210  -0.00093296  0.66484138  1
  Mn  Mn129  1  0.16492216  0.49969361  0.00341593  1
  Mn  Mn130  1  0.16377713  0.49938612  0.33183459  1
  Mn  Mn131  1  0.16484998  0.50152118  0.66483285  1
  Mn  Mn132  1  0.50294733  -0.00096370  -0.00012270  1
  Mn  Mn133  1  0.49922964  -0.00042852  0.33347804  1
  Mn  Mn134  1  0.50136583  -0.00024526  0.66647116  1
  Mn  Mn135  1  0.49973875  0.50162737  0.00042951  1
  Mn  Mn136  1  0.49994162  0.50022279  0.33459423  1
  Mn  Mn137  1  0.49972942  0.50138590  0.66636115  1
  Mn  Mn138  1  0.83236501  -0.00158894  0.00041391  1
  Mn  Mn139  1  0.83302901  -0.00110126  0.33220875  1
  Mn  Mn140  1  0.83588129  0.00054890  0.66372914  1
  Mn  Mn141  1  0.83561516  0.50194037  0.00039544  1
  Mn  Mn142  1  0.83101906  0.49959523  0.33422132  1
  Mn  Mn143  1  0.83173218  0.50062462  0.66331826  1
  O  O144  1  0.17087366  0.12216806  0.02490453  1
  O  O145  1  0.17746540  0.12402630  0.35970296  1
  O  O146  1  0.16049653  0.12074234  0.69002710  1
  O  O147  1  0.16130660  0.62531140  0.01915089  1
  O  O148  1  0.17441299  0.62532342  0.34499019  1
  O  O149  1  0.16749524  0.62851808  0.67691059  1
  O  O150  1  0.50881357  0.12400081  0.01292345  1
  O  O151  1  0.49187188  0.12441566  0.34469807  1
  O  O152  1  0.50650598  0.12868696  0.68833229  1
  O  O153  1  0.50074144  0.62620344  0.02485591  1
  O  O154  1  0.50224203  0.62439872  0.35975121  1
  O  O155  1  0.49470535  0.62312443  0.69005404  1
  O  O156  1  0.82704408  0.12077341  0.01429474  1
  O  O157  1  0.83307968  0.12741643  0.35176953  1
  O  O158  1  0.83004601  0.12486662  0.67647726  1
  O  O159  1  0.84402889  0.62752123  0.02210130  1
  O  O160  1  0.83896406  0.62578741  0.35937775  1
  O  O161  1  0.84190744  0.62535473  0.68944633  1
  O  O162  1  0.15498676  0.37545113  0.30472251  1
  O  O163  1  0.15695974  0.37342127  0.64304994  1
  O  O164  1  0.15187837  0.37406636  0.99378410  1
  O  O165  1  0.15842080  0.87450039  0.30755221  1
  O  O166  1  0.16087522  0.87535274  0.63866299  1
  O  O167  1  0.17076372  0.87706183  0.98182302  1
  O  O168  1  0.50067018  0.37775255  0.30644261  1
  O  O169  1  0.51138289  0.37960937  0.64280153  1
  O  O170  1  0.49544709  0.37649858  0.98029245  1
  O  O171  1  0.49944785  0.87265507  0.30656795  1
  O  O172  1  0.49496603  0.86924473  0.65074565  1
  O  O173  1  0.49984042  0.87298385  0.98759374  1
  O  O174  1  0.82433298  0.37531757  0.31988673  1
  O  O175  1  0.83139214  0.37768461  0.63894591  1
  O  O176  1  0.84005491  0.37970409  0.99216326  1
  O  O177  1  0.82322984  0.87132254  0.30836049  1
  O  O178  1  0.84135011  0.87339500  0.64234228  1
  O  O179  1  0.82458185  0.87195745  0.97715238  1
  O  O180  1  0.00882817  0.37475331  0.19065655  1
  O  O181  1  -0.01086470  0.37459315  0.52574159  1
  O  O182  1  0.00050009  0.37885051  0.85293695  1
  O  O183  1  -0.00906160  0.87427256  0.19492569  1
  O  O184  1  -0.00822109  0.88013728  0.52626532  1
  O  O185  1  -0.00504615  0.87330600  0.84191072  1
  O  O186  1  0.33300482  0.37593754  0.19112447  1
  O  O187  1  0.33111357  0.37731260  0.50971774  1
  O  O188  1  0.34368509  0.37513666  0.85185891  1
  O  O189  1  0.33426348  0.87374177  0.19085692  1
  O  O190  1  0.32825697  0.87116940  0.52084853  1
  O  O191  1  0.33123677  0.87673338  0.85332938  1
  O  O192  1  0.65961644  0.38119046  0.19086548  1
  O  O193  1  0.66470291  0.38135231  0.52899034  1
  O  O194  1  0.66001966  0.37850722  0.84359960  1
  O  O195  1  0.66413714  0.87191146  0.19696388  1
  O  O196  1  0.67088225  0.87308245  0.50967105  1
  O  O197  1  0.67303874  0.87026072  0.85473468  1
  O  O198  1  0.00375586  0.12235896  0.16051725  1
  O  O199  1  0.01072999  0.12444480  0.46940253  1
  O  O200  1  0.00998028  0.12252462  0.81190470  1
  O  O201  1  -0.00198333  0.62871634  0.14434205  1
  O  O202  1  -0.00668602  0.62123581  0.47179485  1
  O  O203  1  -0.00347492  0.62599069  0.80932099  1
  O  O204  1  0.32462188  0.12437300  0.15724616  1
  O  O205  1  0.32681421  0.12556794  0.47134500  1
  O  O206  1  0.33313643  0.12477148  0.82175093  1
  O  O207  1  0.33863194  0.62390549  0.15613120  1
  O  O208  1  0.33924711  0.62432507  0.46873132  1
  O  O209  1  0.34097221  0.62603471  0.81190997  1
  O  O210  1  0.66676031  0.11654690  0.14326990  1
  O  O211  1  0.67004734  0.12495600  0.47627066  1
  O  O212  1  0.66164152  0.12928251  0.81365102  1
  O  O213  1  0.66285356  0.62857235  0.15040808  1
  O  O214  1  0.66722231  0.62331668  0.47224461  1
  O  O215  1  0.67205184  0.62388249  0.81224881  1
  O  O216  1  0.07502168  0.01911103  0.26761262  1
  O  O217  1  0.07737753  0.02360649  0.58793388  1
  O  O218  1  0.08815630  0.01167040  0.91164279  1
  O  O219  1  0.07066791  0.52009226  0.26261880  1
  O  O220  1  0.06902173  0.51293982  0.58852867  1
  O  O221  1  0.07376980  0.51259625  0.93057951  1
  O  O222  1  0.40289599  0.00981501  0.25822209  1
  O  O223  1  0.41183316  0.00380188  0.58128956  1
  O  O224  1  0.42252694  0.01174715  0.91231497  1
  O  O225  1  0.41567376  0.51895228  0.25334860  1
  O  O226  1  0.41495425  0.52158027  0.58358605  1
  O  O227  1  0.42084857  0.51483212  0.91297779  1
  O  O228  1  0.74521077  0.01733243  0.25360081  1
  O  O229  1  0.74902711  0.01250161  0.58337240  1
  O  O230  1  0.74113266  0.01261642  0.92738537  1
  O  O231  1  0.74352107  0.52334607  0.25788931  1
  O  O232  1  0.74508229  0.52839563  0.58502480  1
  O  O233  1  0.75235596  0.51737374  0.91619079  1
  O  O234  1  0.23898184  0.23262667  0.24428060  1
  O  O235  1  0.24060310  0.23806072  0.57079735  1
  O  O236  1  0.25329625  0.24388200  0.91827484  1
  O  O237  1  0.24922319  0.73831524  0.24576649  1
  O  O238  1  0.25423036  0.73659197  0.58567311  1
  O  O239  1  0.25149080  0.74728426  0.91374429  1
  O  O240  1  0.58993726  0.23499826  0.26319429  1
  O  O241  1  0.59649321  0.23611935  0.59599457  1
  O  O242  1  0.58730284  0.23228653  0.91947312  1
  O  O243  1  0.57550231  0.72666973  0.24554687  1
  O  O244  1  0.57892746  0.72616938  0.58006299  1
  O  O245  1  0.58355884  0.72987276  0.91617064  1
  O  O246  1  0.91667903  0.23867386  0.25317003  1
  O  O247  1  0.92038915  0.22948797  0.58007749  1
  O  O248  1  0.92325539  0.24671461  0.91845487  1
  O  O249  1  0.90832802  0.72821653  0.24666064  1
  O  O250  1  0.90868598  0.72780780  0.57396555  1
  O  O251  1  0.91395903  0.73233226  0.90911435  1
  O  O252  1  0.09171286  0.48738271  0.09788929  1
  O  O253  1  0.08515232  0.47393178  0.42352592  1
  O  O254  1  0.08027784  0.48893724  0.74770203  1
  O  O255  1  0.09267945  0.98608855  0.10238013  1
  O  O256  1  0.09253354  0.97588577  0.42723573  1
  O  O257  1  0.08925061  0.97571281  0.74996097  1
  O  O258  1  0.41494548  0.47801235  0.08532348  1
  O  O259  1  0.42089704  0.47776051  0.41736818  1
  O  O260  1  0.42679798  0.48396654  0.75425947  1
  O  O261  1  0.42011858  0.97943973  0.08668397  1
  O  O262  1  0.41842310  0.97701267  0.41654904  1
  O  O263  1  0.41399796  0.98699028  0.74537536  1
  O  O264  1  0.75423435  0.50152370  0.08876509  1
  O  O265  1  0.75139186  0.48017794  0.42624061  1
  O  O266  1  0.74761106  0.48925318  0.74243018  1
  O  O267  1  0.74945495  0.97234913  0.08894616  1
  O  O268  1  0.75440789  0.98177631  0.41675058  1
  O  O269  1  0.75821631  0.98510281  0.75863734  1
  O  O270  1  0.25329152  0.27608472  0.08104621  1
  O  O271  1  0.25153429  0.27614865  0.40496535  1
  O  O272  1  0.24467613  0.25361462  0.74939230  1
  O  O273  1  0.25611856  0.77214896  0.08153156  1
  O  O274  1  0.25415420  0.77071936  0.41179542  1
  O  O275  1  0.25096469  0.77242242  0.74672423  1
  O  O276  1  0.57704344  0.26699152  0.09239534  1
  O  O277  1  0.58172452  0.27379638  0.42618155  1
  O  O278  1  0.57879637  0.27228930  0.75532537  1
  O  O279  1  0.58669428  0.77183046  0.08572617  1
  O  O280  1  0.59066050  0.76565398  0.40460232  1
  O  O281  1  0.58644553  0.74811767  0.74854840  1
  O  O282  1  0.92613661  0.26244525  0.08206013  1
  O  O283  1  0.91854515  0.26942694  0.41472251  1
  O  O284  1  0.91780093  0.26206695  0.73922903  1
  O  O285  1  0.91452435  0.76745910  0.08722257  1
  O  O286  1  0.92124244  0.77503140  0.40769948  1
  O  O287  1  0.92530811  0.76585457  0.73867362  1
  O  O288  1  0.25246626  0.47629320  0.08120075  1
  O  O289  1  0.25071074  0.47873137  0.40848518  1
  O  O290  1  0.25639105  0.49777039  0.74621777  1
  O  O291  1  0.25892090  0.97356663  0.07913357  1
  O  O292  1  0.25674429  0.97368537  0.40586221  1
  O  O293  1  0.25252173  0.97686222  0.74065990  1
  O  O294  1  0.57507034  0.48919056  0.09324946  1
  O  O295  1  0.58468531  0.47693472  0.41717209  1
  O  O296  1  0.58672857  0.48883149  0.74390674  1
  O  O297  1  0.58694609  0.97383029  0.08563797  1
  O  O298  1  0.58930699  0.98600337  0.41301528  1
  O  O299  1  0.58815505  0.99598896  0.75149077  1
  O  O300  1  0.93302987  0.48819352  0.07274377  1
  O  O301  1  0.92106048  0.47537904  0.40994872  1
  O  O302  1  0.92149243  0.48502310  0.73678537  1
  O  O303  1  0.91128488  0.98491443  0.08675085  1
  O  O304  1  0.92355519  0.98039284  0.41115745  1
  O  O305  1  0.92573836  0.98720851  0.74070231  1
  O  O306  1  0.09056009  0.25977213  0.09458510  1
  O  O307  1  0.08764755  0.27586210  0.42316451  1
  O  O308  1  0.07622577  0.26350649  0.74210065  1
  O  O309  1  0.09039209  0.76841505  0.09983748  1
  O  O310  1  0.08632626  0.77419197  0.42632002  1
  O  O311  1  0.08936485  0.77160450  0.75561051  1
  O  O312  1  0.41532813  0.27081557  0.08310050  1
  O  O313  1  0.41834564  0.27375845  0.41458763  1
  O  O314  1  0.42245810  0.26461260  0.75167535  1
  O  O315  1  0.41918528  0.76966862  0.08724145  1
  O  O316  1  0.42097615  0.77021755  0.41646131  1
  O  O317  1  0.40807618  0.76157971  0.73939927  1
  O  O318  1  0.74720139  0.25299054  0.08362238  1
  O  O319  1  0.74605069  0.27165924  0.41611980  1
  O  O320  1  0.74148834  0.26219040  0.73904838  1
  O  O321  1  0.75144513  0.76872517  0.09298666  1
  O  O322  1  0.75971071  0.76596725  0.42276839  1
  O  O323  1  0.76362940  0.76151869  0.75900561  1
  O  O324  1  0.23766105  0.01461758  0.24227888  1
  O  O325  1  0.23897015  0.01241749  0.56912469  1
  O  O326  1  0.24608713  0.01338220  0.90455208  1
  O  O327  1  0.24825458  0.51256355  0.24720094  1
  O  O328  1  0.24885161  0.51131907  0.57897695  1
  O  O329  1  0.25145891  0.49983731  0.92035684  1
  O  O330  1  0.58655682  0.01289028  0.25430646  1
  O  O331  1  0.58746515  0.01224213  0.58604866  1
  O  O332  1  0.58603573  0.01820081  0.91697287  1
  O  O333  1  0.57992983  0.52502331  0.25374556  1
  O  O334  1  0.57981638  0.52823060  0.58046944  1
  O  O335  1  0.58026461  0.51815354  0.91208813  1
  O  O336  1  0.91206193  0.01435285  0.25021205  1
  O  O337  1  0.91778330  0.02286129  0.57647333  1
  O  O338  1  0.91312140  0.00206612  0.91117112  1
  O  O339  1  0.91097506  0.52161189  0.24189949  1
  O  O340  1  0.90789657  0.52257327  0.57409557  1
  O  O341  1  0.91409762  0.52344626  0.91170271  1
  O  O342  1  0.07731813  0.22509290  0.26163295  1
  O  O343  1  0.08106154  0.22599383  0.58332160  1
  O  O344  1  0.09252325  0.23294130  0.91544350  1
  O  O345  1  0.06987089  0.73379294  0.26323386  1
  O  O346  1  0.07034446  0.73714880  0.59581475  1
  O  O347  1  0.07551636  0.73586956  0.92463536  1
  O  O348  1  0.40392676  0.24039599  0.25519499  1
  O  O349  1  0.42431864  0.24747706  0.58040825  1
  O  O350  1  0.42823610  0.23836133  0.91088235  1
  O  O351  1  0.41370954  0.72912344  0.25538941  1
  O  O352  1  0.41493933  0.72481542  0.58006298  1
  O  O353  1  0.42066251  0.73609497  0.91018588  1
  O  O354  1  0.74630790  0.23117232  0.25361329  1
  O  O355  1  0.75582556  0.23955771  0.57541730  1
  O  O356  1  0.74737467  0.23973256  0.91740968  1
  O  O357  1  0.74406321  0.72662447  0.25759453  1
  O  O358  1  0.74635274  0.72514286  0.59119467  1
  O  O359  1  0.74895700  0.72852533  0.92149211  1
