# generated using pymatgen
data_Ba17Sr5La8Pr42Mn72O216
_symmetry_space_group_name_H-M   'P 1'
_cell_length_a   16.67803486
_cell_length_b   15.70478151
_cell_length_c   16.82348140
_cell_angle_alpha   90.00813534
_cell_angle_beta   89.97995151
_cell_angle_gamma   90.00545877
_symmetry_Int_Tables_number   1
_chemical_formula_structural   Ba17Sr5La8Pr42Mn72O216
_chemical_formula_sum   'Ba17 Sr5 La8 Pr42 Mn72 O216'
_cell_volume   4406.48823853
_cell_formula_units_Z   1
loop_
 _symmetry_equiv_pos_site_id
 _symmetry_equiv_pos_as_xyz
  1  'x, y, z'
loop_
 _atom_site_type_symbol
 _atom_site_label
 _atom_site_symmetry_multiplicity
 _atom_site_fract_x
 _atom_site_fract_y
 _atom_site_fract_z
 _atom_site_occupancy
  Ba  Ba0  1  0.16924067  0.87429350  0.82834011  1
  Ba  Ba1  1  0.33230315  0.87365690  -0.00191305  1
  Ba  Ba2  1  0.83198577  0.62268582  0.17028519  1
  Ba  Ba3  1  0.50037156  0.62725625  0.50051275  1
  Ba  Ba4  1  -0.00231057  0.12561517  1.00051620  1
  Ba  Ba5  1  0.83225754  0.12534797  0.83771385  1
  Ba  Ba6  1  0.16596395  0.37645395  0.49656806  1
  Ba  Ba7  1  0.33263456  0.12397881  0.33148408  1
  Ba  Ba8  1  0.33336018  0.62446239  1.00000609  1
  Ba  Ba9  1  0.83570223  0.12712014  0.16893760  1
  Ba  Ba10  1  0.49813850  0.37408472  0.16530208  1
  Ba  Ba11  1  0.66849804  0.62359352  0.66492196  1
  Ba  Ba12  1  0.49685340  0.12540847  0.16835293  1
  Ba  Ba13  1  0.83538904  0.87564802  0.50216194  1
  Ba  Ba14  1  0.66541526  0.62598769  0.33275385  1
  Ba  Ba15  1  0.00180649  0.37578952  0.66779867  1
  Ba  Ba16  1  0.49989982  0.12423081  0.50239230  1
  Sr  Sr17  1  0.83053028  0.37664945  0.17035322  1
  Sr  Sr18  1  0.33032981  0.12722873  0.99935446  1
  Sr  Sr19  1  0.33227541  0.37527109  0.00146375  1
  Sr  Sr20  1  0.50579728  0.87484419  0.50136942  1
  Sr  Sr21  1  0.17000729  0.37492761  0.82949743  1
  La  La22  1  0.66282882  0.12806349  0.99911463  1
  La  La23  1  0.00531473  0.12474039  0.66827366  1
  La  La24  1  0.33547548  0.37258427  0.33211414  1
  La  La25  1  0.66759448  0.37294250  0.00462105  1
  La  La26  1  0.16673771  0.37436094  0.16139762  1
  La  La27  1  0.50000359  0.87355142  0.83399546  1
  La  La28  1  -0.00252433  0.37299584  0.00106750  1
  La  La29  1  0.83826112  0.12431258  0.50331924  1
  Pr  Pr30  1  0.83722570  0.62578013  0.50480132  1
  Pr  Pr31  1  0.17013366  0.87391768  0.49520648  1
  Pr  Pr32  1  0.16306032  0.62644630  0.16292333  1
  Pr  Pr33  1  0.32571947  0.12338059  0.66239788  1
  Pr  Pr34  1  0.33826286  0.37318445  0.66794373  1
  Pr  Pr35  1  -0.00716568  0.37568255  0.33818202  1
  Pr  Pr36  1  0.66534629  0.87586539  0.33640259  1
  Pr  Pr37  1  0.16793422  0.12756091  0.49863550  1
  Pr  Pr38  1  0.33005506  0.62592692  0.66313805  1
  Pr  Pr39  1  0.00720369  0.12459287  0.32906651  1
  Pr  Pr40  1  0.49510165  0.12378789  0.83880267  1
  Pr  Pr41  1  0.66704406  0.87715464  0.00194554  1
  Pr  Pr42  1  0.82747633  0.87283831  0.16912944  1
  Pr  Pr43  1  0.66833751  0.12141480  0.33069792  1
  Pr  Pr44  1  0.83715956  0.62288900  0.83944145  1
  Pr  Pr45  1  -0.00120099  0.87432906  0.67142644  1
  Pr  Pr46  1  0.16664515  0.62296845  0.49824842  1
  Pr  Pr47  1  0.34608252  0.87576162  0.66972130  1
  Pr  Pr48  1  -0.00016023  0.62516515  0.33252541  1
  Pr  Pr49  1  0.83048698  0.37119514  0.83239082  1
  Pr  Pr50  1  0.16770762  0.62062858  0.83296420  1
  Pr  Pr51  1  -0.00179428  0.87439342  0.33569067  1
  Pr  Pr52  1  0.49801137  0.37663218  0.83636096  1
  Pr  Pr53  1  0.83209977  0.87872181  0.83090468  1
  Pr  Pr54  1  0.50378313  0.37795565  0.49665709  1
  Pr  Pr55  1  0.00551590  0.62513515  0.66645911  1
  Pr  Pr56  1  0.66316388  0.37514242  0.66853824  1
  Pr  Pr57  1  0.16913542  0.12364072  0.16425535  1
  Pr  Pr58  1  -0.00500943  0.87701286  0.00312291  1
  Pr  Pr59  1  0.50303467  0.87671383  0.16705179  1
  Pr  Pr60  1  0.66517861  0.37264672  0.33174267  1
  Pr  Pr61  1  0.49509079  0.62640003  0.17102246  1
  Pr  Pr62  1  0.66997778  0.12412533  0.66469155  1
  Pr  Pr63  1  0.32976527  0.62329767  0.32698959  1
  Pr  Pr64  1  0.00075412  0.62408181  0.99792605  1
  Pr  Pr65  1  0.34087250  0.87652255  0.33299241  1
  Pr  Pr66  1  0.16300292  0.12934248  0.83549572  1
  Pr  Pr67  1  0.66698676  0.62023561  0.99897796  1
  Pr  Pr68  1  0.83006493  0.37645591  0.49929097  1
  Pr  Pr69  1  0.50185409  0.62656364  0.83603098  1
  Pr  Pr70  1  0.66356655  0.87241674  0.66787418  1
  Pr  Pr71  1  0.16397599  0.87625959  0.15642398  1
  Mn  Mn72  1  -0.00062969  -0.00106592  0.16855986  1
  Mn  Mn73  1  0.00408536  -0.00007750  0.50025413  1
  Mn  Mn74  1  0.00090983  -0.00186307  0.83416340  1
  Mn  Mn75  1  -0.00016293  0.49887351  0.16765050  1
  Mn  Mn76  1  -0.00086747  0.50163994  0.50032870  1
  Mn  Mn77  1  -0.00077902  0.50048295  0.83359946  1
  Mn  Mn78  1  0.33071535  -0.00212718  0.16548896  1
  Mn  Mn79  1  0.33330599  -0.00196487  0.50027734  1
  Mn  Mn80  1  0.33401977  0.00189292  0.83127340  1
  Mn  Mn81  1  0.33071288  0.50037288  0.16556571  1
  Mn  Mn82  1  0.33393262  0.50070251  0.49807791  1
  Mn  Mn83  1  0.33478992  0.49883403  0.83090309  1
  Mn  Mn84  1  0.66705853  -0.00007527  0.16754759  1
  Mn  Mn85  1  0.66855673  0.00061276  0.50019720  1
  Mn  Mn86  1  0.66439446  -0.00089586  0.83369637  1
  Mn  Mn87  1  0.66453399  0.49956326  0.16628890  1
  Mn  Mn88  1  0.66940453  0.49919167  0.50080997  1
  Mn  Mn89  1  0.66657928  0.49969867  0.83370158  1
  Mn  Mn90  1  0.00115610  0.25192246  0.16923720  1
  Mn  Mn91  1  -0.00008457  0.24828993  0.49940436  1
  Mn  Mn92  1  -0.00008087  0.25220598  0.83379678  1
  Mn  Mn93  1  -0.00191111  0.75033330  0.16756622  1
  Mn  Mn94  1  0.00326632  0.75042345  0.50122207  1
  Mn  Mn95  1  -0.00045312  0.74924908  0.83360609  1
  Mn  Mn96  1  0.33064808  0.25030890  0.16427038  1
  Mn  Mn97  1  0.33413651  0.25035493  0.50128562  1
  Mn  Mn98  1  0.33388035  0.25077285  0.83253468  1
  Mn  Mn99  1  0.33074922  0.75110548  0.16830763  1
  Mn  Mn100  1  0.33317686  0.75189009  0.49771552  1
  Mn  Mn101  1  0.33494709  0.74884934  0.82991072  1
  Mn  Mn102  1  0.66783396  0.24958565  0.16783499  1
  Mn  Mn103  1  0.66873484  0.24941067  0.50111768  1
  Mn  Mn104  1  0.66264856  0.25121284  0.83301896  1
  Mn  Mn105  1  0.66399945  0.75120022  0.16607108  1
  Mn  Mn106  1  0.66950551  0.75088543  0.50086309  1
  Mn  Mn107  1  0.66839133  0.74848160  0.83532170  1
  Mn  Mn108  1  0.16627644  0.25203495  -0.00282503  1
  Mn  Mn109  1  0.16568136  0.25084987  0.32955877  1
  Mn  Mn110  1  0.16874759  0.25071992  0.66643899  1
  Mn  Mn111  1  0.16352400  0.74874862  -0.00321924  1
  Mn  Mn112  1  0.16611055  0.75116158  0.32962817  1
  Mn  Mn113  1  0.16830204  0.75009657  0.66124915  1
  Mn  Mn114  1  0.49726937  0.24920817  -0.00112585  1
  Mn  Mn115  1  0.50096579  0.25052522  0.33530269  1
  Mn  Mn116  1  0.50106471  0.24978329  0.66989961  1
  Mn  Mn117  1  0.50292414  0.75031149  0.00201768  1
  Mn  Mn118  1  0.49832948  0.75169021  0.33454522  1
  Mn  Mn119  1  0.50075522  0.74937943  0.66788476  1
  Mn  Mn120  1  0.83167182  0.25217397  0.00244227  1
  Mn  Mn121  1  0.83345548  0.24967560  0.33754318  1
  Mn  Mn122  1  0.83412272  0.24881404  0.66697901  1
  Mn  Mn123  1  0.83224608  0.74974310  0.00101591  1
  Mn  Mn124  1  0.83407901  0.75086445  0.33525280  1
  Mn  Mn125  1  0.83499831  0.75020847  0.67040087  1
  Mn  Mn126  1  0.16526871  0.00075124  -0.00362435  1
  Mn  Mn127  1  0.16642247  -0.00476033  0.33005158  1
  Mn  Mn128  1  0.16759348  -0.00133533  0.66218964  1
  Mn  Mn129  1  0.16467313  0.49896380  -0.00287886  1
  Mn  Mn130  1  0.16466155  0.50207196  0.32855123  1
  Mn  Mn131  1  0.16978033  0.50050339  0.66544624  1
  Mn  Mn132  1  0.49836014  -0.00014554  -0.00015262  1
  Mn  Mn133  1  0.50153414  -0.00063789  0.33498647  1
  Mn  Mn134  1  0.50252913  0.00146248  0.67004524  1
  Mn  Mn135  1  0.50051365  0.50110532  0.00025019  1
  Mn  Mn136  1  0.49828960  0.49970463  0.33356641  1
  Mn  Mn137  1  0.49884961  0.49821489  0.66726443  1
  Mn  Mn138  1  0.83022977  -0.00209791  0.00121408  1
  Mn  Mn139  1  0.83527781  -0.00016899  0.33521449  1
  Mn  Mn140  1  0.83471427  0.00053371  0.66803541  1
  Mn  Mn141  1  0.83327713  0.50003503  0.00182214  1
  Mn  Mn142  1  0.83205613  0.49874870  0.33637620  1
  Mn  Mn143  1  0.83469000  0.49915792  0.66909999  1
  O  O144  1  0.16673034  0.12758486  0.01932473  1
  O  O145  1  0.15987685  0.11805773  0.35644498  1
  O  O146  1  0.17235389  0.12284612  0.68905902  1
  O  O147  1  0.15689474  0.62411444  0.01914467  1
  O  O148  1  0.16540796  0.62818616  0.35735428  1
  O  O149  1  0.17308332  0.62633708  0.68784692  1
  O  O150  1  0.50485824  0.12260062  0.01082487  1
  O  O151  1  0.50458580  0.12465909  0.34488371  1
  O  O152  1  0.51217114  0.12715027  0.69519030  1
  O  O153  1  0.50938979  0.62853686  0.02660180  1
  O  O154  1  0.48520462  0.62575544  0.34134253  1
  O  O155  1  0.49565406  0.62318502  0.69134358  1
  O  O156  1  0.82498847  0.12166014  0.01211316  1
  O  O157  1  0.82661877  0.12515006  0.35747994  1
  O  O158  1  0.83113245  0.12423750  0.68228836  1
  O  O159  1  0.83466628  0.62623069  0.01580164  1
  O  O160  1  0.83725072  0.62593749  0.35791475  1
  O  O161  1  0.83924218  0.62825382  0.69542552  1
  O  O162  1  0.16266138  0.38137107  0.30695388  1
  O  O163  1  0.17323901  0.37703457  0.65447068  1
  O  O164  1  0.16260355  0.37700505  0.97924514  1
  O  O165  1  0.15701549  0.87127903  0.30023907  1
  O  O166  1  0.15726192  0.87358398  0.63912263  1
  O  O167  1  0.15742072  0.87183052  0.98670902  1
  O  O168  1  0.50752950  0.37584261  0.32416434  1
  O  O169  1  0.49715397  0.37218208  0.64078713  1
  O  O170  1  0.50292734  0.37480649  0.97933814  1
  O  O171  1  0.50857435  0.87515732  0.31349178  1
  O  O172  1  0.49783729  0.87589104  0.65187093  1
  O  O173  1  0.50756218  0.87451088  0.97693565  1
  O  O174  1  0.84417551  0.37336978  0.32179656  1
  O  O175  1  0.82999594  0.37004235  0.64304480  1
  O  O176  1  0.82885662  0.38038521  0.97654255  1
  O  O177  1  0.84223608  0.87522080  0.31413814  1
  O  O178  1  0.83735025  0.87633139  0.65670856  1
  O  O179  1  0.82852816  0.87058669  0.97495092  1
  O  O180  1  0.00968527  0.37569611  0.19542394  1
  O  O181  1  -0.00744919  0.37559702  0.51080136  1
  O  O182  1  0.00096825  0.38019056  0.85367934  1
  O  O183  1  0.00501007  0.87318781  0.19295263  1
  O  O184  1  0.01082255  0.87465800  0.52883830  1
  O  O185  1  0.00031045  0.87089241  0.85692499  1
  O  O186  1  0.32020025  0.37820597  0.18475521  1
  O  O187  1  0.33698613  0.37283181  0.52378416  1
  O  O188  1  0.33555923  0.37490643  0.85256935  1
  O  O189  1  0.31622016  0.87202940  0.18647061  1
  O  O190  1  0.32300529  0.87362420  0.52714606  1
  O  O191  1  0.33936794  0.87681737  0.84057825  1
  O  O192  1  0.66582825  0.37324015  0.18493141  1
  O  O193  1  0.67045864  0.37239175  0.52551778  1
  O  O194  1  0.66521443  0.37820311  0.86071728  1
  O  O195  1  0.66054736  0.87602758  0.19036350  1
  O  O196  1  0.66667480  0.87811043  0.52276768  1
  O  O197  1  0.66777551  0.87098866  0.85947621  1
  O  O198  1  0.00383774  0.12532721  0.15565147  1
  O  O199  1  0.00583679  0.12305542  0.47343989  1
  O  O200  1  0.00329140  0.12318833  0.81436453  1
  O  O201  1  0.00106273  0.62567570  0.14110679  1
  O  O202  1  0.00029911  0.62664591  0.47650436  1
  O  O203  1  -0.01124318  0.62629702  0.80985232  1
  O  O204  1  0.32653201  0.12325323  0.15173835  1
  O  O205  1  0.32860920  0.12501756  0.48782458  1
  O  O206  1  0.33983022  0.12617339  0.80564445  1
  O  O207  1  0.34586826  0.62676644  0.16006009  1
  O  O208  1  0.33002086  0.63000029  0.47137541  1
  O  O209  1  0.33896561  0.62262482  0.80719411  1
  O  O210  1  0.66888772  0.12292251  0.14549178  1
  O  O211  1  0.67336243  0.12670528  0.47493868  1
  O  O212  1  0.65847772  0.12626787  0.80763066  1
  O  O213  1  0.66096006  0.62873820  0.14496297  1
  O  O214  1  0.67811360  0.62280069  0.49013688  1
  O  O215  1  0.66728146  0.62386640  0.81802451  1
  O  O216  1  0.08524554  0.01968473  0.24772262  1
  O  O217  1  0.08675563  0.02765482  0.57938627  1
  O  O218  1  0.08749696  0.01675215  0.90894696  1
  O  O219  1  0.08391258  0.52809985  0.24595843  1
  O  O220  1  0.08565318  0.52145356  0.58035890  1
  O  O221  1  0.08044990  0.52424779  0.91445941  1
  O  O222  1  0.41523754  -0.00589770  0.25142475  1
  O  O223  1  0.41127338  0.01337655  0.59792061  1
  O  O224  1  0.41579241  0.01654146  0.91727434  1
  O  O225  1  0.40535022  0.50541315  0.25852123  1
  O  O226  1  0.41041558  0.51514972  0.59269451  1
  O  O227  1  0.42509393  0.51596591  0.90955521  1
  O  O228  1  0.75004133  0.00825447  0.25108801  1
  O  O229  1  0.75225336  0.02050386  0.58132059  1
  O  O230  1  0.73808256  0.01072614  0.92337250  1
  O  O231  1  0.74889763  0.50101592  0.25469125  1
  O  O232  1  0.76365442  0.51168305  0.57642441  1
  O  O233  1  0.75275317  0.52010166  0.91431403  1
  O  O234  1  0.24262185  0.23734851  0.23987339  1
  O  O235  1  0.24707168  0.22972785  0.58062790  1
  O  O236  1  0.24678680  0.23177961  0.90771924  1
  O  O237  1  0.24505091  0.72356174  0.24778874  1
  O  O238  1  0.24391817  0.72801711  0.57119562  1
  O  O239  1  0.24773314  0.73325746  0.90307021  1
  O  O240  1  0.59098631  0.23696065  0.25857227  1
  O  O241  1  0.59385278  0.23560035  0.59287432  1
  O  O242  1  0.57692212  0.23188480  0.90977993  1
  O  O243  1  0.56985671  0.73751903  0.23959883  1
  O  O244  1  0.58490190  0.74674598  0.58825796  1
  O  O245  1  0.58851648  0.72679041  0.91949829  1
  O  O246  1  0.92646249  0.23798167  0.26638693  1
  O  O247  1  0.92406599  0.22454701  0.58577245  1
  O  O248  1  0.91428431  0.25113269  0.92061030  1
  O  O249  1  0.92188613  0.73576913  0.25617081  1
  O  O250  1  0.92327917  0.73047340  0.59034099  1
  O  O251  1  0.91995728  0.73062232  0.92206882  1
  O  O252  1  0.07999017  0.48084989  0.08087531  1
  O  O253  1  0.07380965  0.49088692  0.40718083  1
  O  O254  1  0.08532777  0.50025760  0.75142201  1
  O  O255  1  0.07628102  0.97976773  0.08243217  1
  O  O256  1  0.08554808  0.97269443  0.41508272  1
  O  O257  1  0.07883392  0.98671303  0.73812942  1
  O  O258  1  0.41534778  0.49161559  0.08244103  1
  O  O259  1  0.41995001  0.47813146  0.42179454  1
  O  O260  1  0.41926643  0.47370217  0.75097082  1
  O  O261  1  0.41975145  0.98081243  0.08903335  1
  O  O262  1  0.41547819  0.97959736  0.41970265  1
  O  O263  1  0.42660532  0.98602087  0.75751084  1
  O  O264  1  0.74734217  0.48752683  0.07819392  1
  O  O265  1  0.74780913  0.47438483  0.41562081  1
  O  O266  1  0.74539506  0.47507751  0.74941241  1
  O  O267  1  0.74931585  0.97271470  0.08625671  1
  O  O268  1  0.74618429  0.98410661  0.41048112  1
  O  O269  1  0.74695290  0.98048065  0.75278425  1
  O  O270  1  0.24556154  0.26676085  0.08014833  1
  O  O271  1  0.25000399  0.26510569  0.40703858  1
  O  O272  1  0.25985207  0.26373965  0.74213787  1
  O  O273  1  0.24200464  0.75632988  0.08742546  1
  O  O274  1  0.25170543  0.77574653  0.40755010  1
  O  O275  1  0.25854251  0.76452261  0.73015044  1
  O  O276  1  0.58793817  0.25920021  0.07313234  1
  O  O277  1  0.58491609  0.27084562  0.42398129  1
  O  O278  1  0.58247743  0.28052934  0.75127258  1
  O  O279  1  0.58558763  0.77653361  0.08134529  1
  O  O280  1  0.58602053  0.76412507  0.41121495  1
  O  O281  1  0.58418923  0.76898121  0.75499734  1
  O  O282  1  0.91931140  0.27109977  0.08954330  1
  O  O283  1  0.90699960  0.26109939  0.42886009  1
  O  O284  1  0.91158058  0.26611667  0.75603345  1
  O  O285  1  0.91221756  0.77631135  0.08704700  1
  O  O286  1  0.92508761  0.76453752  0.41732927  1
  O  O287  1  0.91367559  0.77404429  0.75710151  1
  O  O288  1  0.24417087  0.49079785  0.08385849  1
  O  O289  1  0.25482988  0.48837698  0.40346520  1
  O  O290  1  0.25946741  0.48744988  0.74064513  1
  O  O291  1  0.24158393  0.98815161  0.08336177  1
  O  O292  1  0.24877791  0.97287618  0.40833693  1
  O  O293  1  0.26055678  0.98535294  0.73310561  1
  O  O294  1  0.58843065  0.48680270  0.07374271  1
  O  O295  1  0.58603108  0.48343096  0.41700150  1
  O  O296  1  0.58053874  0.47741067  0.75237223  1
  O  O297  1  0.58534754  0.98037706  0.08162012  1
  O  O298  1  0.58714018  0.98477981  0.41707452  1
  O  O299  1  0.58687243  0.97266473  0.75012930  1
  O  O300  1  0.91775192  0.47890447  0.08471485  1
  O  O301  1  0.90788105  0.48729205  0.42749749  1
  O  O302  1  0.90627038  0.48266637  0.76151545  1
  O  O303  1  0.91318203  0.97455654  0.08963328  1
  O  O304  1  0.92417264  0.98728660  0.41742528  1
  O  O305  1  0.91823422  0.97949217  0.75414249  1
  O  O306  1  0.08227654  0.27162364  0.08170462  1
  O  O307  1  0.07257224  0.26361508  0.40673325  1
  O  O308  1  0.08775984  0.25416081  0.74872060  1
  O  O309  1  0.07483517  0.76809703  0.08251064  1
  O  O310  1  0.08774559  0.77160137  0.41580989  1
  O  O311  1  0.07650656  0.75940724  0.74011792  1
  O  O312  1  0.41172806  0.25940815  0.07895258  1
  O  O313  1  0.41933707  0.27061585  0.42180028  1
  O  O314  1  0.42217644  0.27318012  0.75527062  1
  O  O315  1  0.42412268  0.76620154  0.09487639  1
  O  O316  1  0.41726946  0.77572061  0.41990231  1
  O  O317  1  0.42239184  0.76720710  0.75260273  1
  O  O318  1  0.74995005  0.26818419  0.08347393  1
  O  O319  1  0.74738284  0.27559398  0.41709894  1
  O  O320  1  0.74434938  0.27103038  0.75052615  1
  O  O321  1  0.74720450  0.77242313  0.08172207  1
  O  O322  1  0.74876250  0.76794696  0.41140541  1
  O  O323  1  0.74839409  0.77345039  0.75126788  1
  O  O324  1  0.24217900  0.01342307  0.24340500  1
  O  O325  1  0.24340676  0.01894039  0.57448257  1
  O  O326  1  0.24818556  0.02007207  0.90518396  1
  O  O327  1  0.24374975  0.52589077  0.24385992  1
  O  O328  1  0.24910143  0.52398641  0.57581677  1
  O  O329  1  0.24523911  0.51583463  0.90548546  1
  O  O330  1  0.59034850  0.01340438  0.25441662  1
  O  O331  1  0.59111705  0.01472843  0.59242648  1
  O  O332  1  0.57902977  0.01764780  0.91112865  1
  O  O333  1  0.57240050  0.51643789  0.24391842  1
  O  O334  1  0.58401213  0.50173648  0.58411900  1
  O  O335  1  0.58441426  0.52275183  0.91581124  1
  O  O336  1  0.92482585  0.01308667  0.25892798  1
  O  O337  1  0.92469033  0.01932123  0.58506186  1
  O  O338  1  0.91511658  -0.00095104  0.92086331  1
  O  O339  1  0.92408010  0.51231310  0.26291001  1
  O  O340  1  0.92332981  0.52497973  0.58871595  1
  O  O341  1  0.91917558  0.52006424  0.92200339  1
  O  O342  1  0.08775935  0.22718020  0.24599921  1
  O  O343  1  0.08591696  0.22945143  0.57913455  1
  O  O344  1  0.08571220  0.23721635  0.91280206  1
  O  O345  1  0.08244331  0.72417452  0.24913881  1
  O  O346  1  0.08602523  0.72167467  0.58045032  1
  O  O347  1  0.08243427  0.72216216  0.91026318  1
  O  O348  1  0.41097406  0.25155753  0.25372330  1
  O  O349  1  0.41249954  0.23251006  0.59787413  1
  O  O350  1  0.41610176  0.23260115  0.91364584  1
  O  O351  1  0.40637211  0.74712422  0.25990144  1
  O  O352  1  0.40728855  0.73687669  0.59164676  1
  O  O353  1  0.42723846  0.73520009  0.91445970  1
  O  O354  1  0.74900293  0.23941479  0.25966939  1
  O  O355  1  0.75471726  0.22703478  0.57912142  1
  O  O356  1  0.73755535  0.23907838  0.92049726  1
  O  O357  1  0.74817999  0.74994484  0.24695266  1
  O  O358  1  0.76097371  0.73673149  0.58207497  1
  O  O359  1  0.75282880  0.72637930  0.91567807  1
