# generated using pymatgen
data_Ba17Sr5La8Pr42Mn72O216
_symmetry_space_group_name_H-M   'P 1'
_cell_length_a   16.67276760
_cell_length_b   15.69892840
_cell_length_c   16.81755996
_cell_angle_alpha   89.99954236
_cell_angle_beta   89.98369074
_cell_angle_gamma   89.97219363
_symmetry_Int_Tables_number   1
_chemical_formula_structural   Ba17Sr5La8Pr42Mn72O216
_chemical_formula_sum   'Ba17 Sr5 La8 Pr42 Mn72 O216'
_cell_volume   4401.90455071
_cell_formula_units_Z   1
loop_
 _symmetry_equiv_pos_site_id
 _symmetry_equiv_pos_as_xyz
  1  'x, y, z'
loop_
 _atom_site_type_symbol
 _atom_site_label
 _atom_site_symmetry_multiplicity
 _atom_site_fract_x
 _atom_site_fract_y
 _atom_site_fract_z
 _atom_site_occupancy
  Ba  Ba0  1  0.83543132  0.62445084  0.50179605  1
  Ba  Ba1  1  0.66334150  0.87649491  0.66673940  1
  Ba  Ba2  1  0.83214428  0.37607816  0.16793742  1
  Ba  Ba3  1  0.16949464  0.12566084  0.16709573  1
  Ba  Ba4  1  0.00066238  0.37428937  0.66931633  1
  Ba  Ba5  1  0.66467405  0.37478769  0.33333057  1
  Ba  Ba6  1  0.50177916  0.62739468  0.16530119  1
  Ba  Ba7  1  0.33402124  0.62341927  0.99816365  1
  Ba  Ba8  1  0.49827225  0.37489057  0.49711406  1
  Ba  Ba9  1  0.00022134  0.87442101  0.33514266  1
  Ba  Ba10  1  0.66895932  0.12530161  0.99866891  1
  Ba  Ba11  1  0.16824596  0.37371462  0.16849518  1
  Ba  Ba12  1  0.66824373  0.62532091  0.66694725  1
  Ba  Ba13  1  0.66760673  0.12508161  0.66632942  1
  Ba  Ba14  1  0.83329143  0.87367592  0.16516106  1
  Ba  Ba15  1  0.50193625  0.62668598  0.83479034  1
  Ba  Ba16  1  0.16317503  0.87573842  0.83400184  1
  Sr  Sr17  1  0.49707626  0.87596729  0.83198215  1
  Sr  Sr18  1  0.16248060  0.12498980  0.83730868  1
  Sr  Sr19  1  0.00193706  0.62576362  0.33414268  1
  Sr  Sr20  1  -0.00069039  0.87502724  0.00517562  1
  Sr  Sr21  1  0.66482401  0.37591814  0.66358456  1
  La  La22  1  0.83506651  0.12604752  0.83514723  1
  La  La23  1  0.67245980  0.12704972  0.33160984  1
  La  La24  1  0.33077341  0.87218715  -0.00319795  1
  La  La25  1  0.49542549  0.87657741  0.50168864  1
  La  La26  1  0.16773363  0.37338824  0.83253736  1
  La  La27  1  0.82571964  0.87411609  0.49827475  1
  La  La28  1  -0.00379100  0.87321669  0.67378089  1
  La  La29  1  0.65962647  0.37422497  0.00283676  1
  Pr  Pr30  1  0.16390209  0.87393696  0.15881019  1
  Pr  Pr31  1  -0.00040571  0.37210649  0.00561715  1
  Pr  Pr32  1  0.33403011  0.37408580  0.66640629  1
  Pr  Pr33  1  0.33859577  0.12655979  0.32673561  1
  Pr  Pr34  1  0.49896033  0.37519964  0.82785647  1
  Pr  Pr35  1  0.83919353  0.62553161  0.17133022  1
  Pr  Pr36  1  0.32885208  0.87454186  0.32995716  1
  Pr  Pr37  1  0.16535319  0.37606283  0.49536400  1
  Pr  Pr38  1  0.83950387  0.12407638  0.16853742  1
  Pr  Pr39  1  0.49817129  0.37504452  0.16573759  1
  Pr  Pr40  1  0.67402122  0.62218741  0.33196764  1
  Pr  Pr41  1  0.00198905  0.62379506  1.00482617  1
  Pr  Pr42  1  0.50478013  0.62429542  0.50341925  1
  Pr  Pr43  1  0.65913698  0.87591931  0.00129314  1
  Pr  Pr44  1  0.33575190  0.62267318  0.32609945  1
  Pr  Pr45  1  0.33243520  0.37637527  0.33407925  1
  Pr  Pr46  1  0.33002834  0.12738099  0.99386706  1
  Pr  Pr47  1  0.00097762  0.12346644  0.33195648  1
  Pr  Pr48  1  0.33158788  0.12137572  0.66345282  1
  Pr  Pr49  1  0.49580435  0.87794516  0.16165076  1
  Pr  Pr50  1  0.00065124  0.37388400  0.34320664  1
  Pr  Pr51  1  0.33599672  0.37714575  -0.00176281  1
  Pr  Pr52  1  0.83724605  0.62357547  0.83169119  1
  Pr  Pr53  1  0.16649969  0.62696006  0.50004512  1
  Pr  Pr54  1  0.67417629  0.62536124  0.99359033  1
  Pr  Pr55  1  0.16480581  0.62266798  0.83564020  1
  Pr  Pr56  1  0.82841512  0.87597975  0.83415130  1
  Pr  Pr57  1  0.33487249  0.62948385  0.66363686  1
  Pr  Pr58  1  0.16758061  0.62740903  0.17107964  1
  Pr  Pr59  1  0.84061749  0.12538360  0.50355263  1
  Pr  Pr60  1  0.82539843  0.37353878  0.83150399  1
  Pr  Pr61  1  0.33157705  0.87556657  0.67198036  1
  Pr  Pr62  1  0.50226534  0.12269546  0.83350876  1
  Pr  Pr63  1  0.16680118  0.12469482  0.50012951  1
  Pr  Pr64  1  0.00390105  0.12461597  0.67038254  1
  Pr  Pr65  1  0.50351359  0.12662011  0.50233950  1
  Pr  Pr66  1  0.66036322  0.87305497  0.33618260  1
  Pr  Pr67  1  0.50788707  0.12455925  0.16681818  1
  Pr  Pr68  1  0.00381202  0.62495467  0.66418987  1
  Pr  Pr69  1  -0.00200816  0.12403455  1.00294869  1
  Pr  Pr70  1  0.16522955  0.87522690  0.50092017  1
  Pr  Pr71  1  0.82439553  0.37539682  0.49702946  1
  Mn  Mn72  1  0.00206126  0.00015666  0.16801483  1
  Mn  Mn73  1  0.00090127  0.00014547  0.50397860  1
  Mn  Mn74  1  -0.00200514  -0.00036367  0.83667878  1
  Mn  Mn75  1  0.00151119  0.49887276  0.16997892  1
  Mn  Mn76  1  0.00119683  0.50022977  0.50271605  1
  Mn  Mn77  1  -0.00061564  0.50001381  0.83679914  1
  Mn  Mn78  1  0.33534462  0.00049650  0.16355301  1
  Mn  Mn79  1  0.33114405  -0.00066436  0.49660287  1
  Mn  Mn80  1  0.33218443  0.00227412  0.83154304  1
  Mn  Mn81  1  0.33394850  0.49837696  0.16553382  1
  Mn  Mn82  1  0.33138103  0.50300134  0.49822744  1
  Mn  Mn83  1  0.33222091  0.49822918  0.83054686  1
  Mn  Mn84  1  0.66788549  0.00047062  0.16836215  1
  Mn  Mn85  1  0.66525189  0.00068519  0.49724057  1
  Mn  Mn86  1  0.66644936  0.00068988  0.83381615  1
  Mn  Mn87  1  0.66587443  0.50114419  0.16356761  1
  Mn  Mn88  1  0.66588156  0.50017519  0.49946351  1
  Mn  Mn89  1  0.66789332  0.49850051  0.83341748  1
  Mn  Mn90  1  0.00081554  0.25089622  0.17021739  1
  Mn  Mn91  1  0.00158228  0.24844608  0.50316972  1
  Mn  Mn92  1  -0.00044678  0.25033891  0.83754789  1
  Mn  Mn93  1  0.00165037  0.74848392  0.16817079  1
  Mn  Mn94  1  0.00112835  0.75057065  0.50390642  1
  Mn  Mn95  1  -0.00251462  0.74821929  0.83624430  1
  Mn  Mn96  1  0.33689840  0.24993405  0.16340512  1
  Mn  Mn97  1  0.33127277  0.24817257  0.49761260  1
  Mn  Mn98  1  0.33225717  0.24907771  0.83068725  1
  Mn  Mn99  1  0.33344654  0.75063931  0.16656683  1
  Mn  Mn100  1  0.33238843  0.75129490  0.49686366  1
  Mn  Mn101  1  0.33177632  0.75045500  0.83189942  1
  Mn  Mn102  1  0.66728298  0.24980378  0.16571096  1
  Mn  Mn103  1  0.66674425  0.24737912  0.49931562  1
  Mn  Mn104  1  0.66577908  0.25028000  0.83212022  1
  Mn  Mn105  1  0.66642328  0.74994617  0.16552551  1
  Mn  Mn106  1  0.66436859  0.75212456  0.49841525  1
  Mn  Mn107  1  0.66826241  0.75088906  0.83393041  1
  Mn  Mn108  1  0.16605688  0.24934458  -0.00161379  1
  Mn  Mn109  1  0.16840243  0.24901835  0.33576941  1
  Mn  Mn110  1  0.16816478  0.24871654  0.66684226  1
  Mn  Mn111  1  0.16589710  0.74772439  0.00005119  1
  Mn  Mn112  1  0.16800019  0.75144681  0.33387025  1
  Mn  Mn113  1  0.16628453  0.74933491  0.66655245  1
  Mn  Mn114  1  0.49729558  0.24904771  -0.00207115  1
  Mn  Mn115  1  0.49901863  0.24714486  0.33213192  1
  Mn  Mn116  1  0.49833058  0.25037523  0.66625996  1
  Mn  Mn117  1  0.50132868  0.75191730  -0.00050054  1
  Mn  Mn118  1  0.49887267  0.75216001  0.33457178  1
  Mn  Mn119  1  0.49775310  0.75047710  0.66636726  1
  Mn  Mn120  1  0.83425910  0.25151001  0.00013143  1
  Mn  Mn121  1  0.83606047  0.24858875  0.33561813  1
  Mn  Mn122  1  0.83392423  0.25041930  0.66749809  1
  Mn  Mn123  1  0.83428153  0.74863539  -0.00087897  1
  Mn  Mn124  1  0.83264623  0.75029655  0.33312443  1
  Mn  Mn125  1  0.83438755  0.75125237  0.66806951  1
  Mn  Mn126  1  0.16639484  0.00066708  -0.00001002  1
  Mn  Mn127  1  0.16924337  -0.00083208  0.33368309  1
  Mn  Mn128  1  0.16535473  0.00259261  0.66656082  1
  Mn  Mn129  1  0.16508919  0.49846499  -0.00008280  1
  Mn  Mn130  1  0.16648217  0.50125873  0.33441944  1
  Mn  Mn131  1  0.16915812  0.49930942  0.66665009  1
  Mn  Mn132  1  0.49745450  0.00125308  -0.00121290  1
  Mn  Mn133  1  0.49914171  -0.00097315  0.33223463  1
  Mn  Mn134  1  0.49646096  0.00166929  0.66640433  1
  Mn  Mn135  1  0.50127756  0.49910361  -0.00183583  1
  Mn  Mn136  1  0.49924945  0.50294876  0.33298353  1
  Mn  Mn137  1  0.49870906  0.49975285  0.66561250  1
  Mn  Mn138  1  0.83408029  -0.00073152  0.00041366  1
  Mn  Mn139  1  0.83280714  -0.00037771  0.33502962  1
  Mn  Mn140  1  0.83552158  0.00094571  0.66751093  1
  Mn  Mn141  1  0.83439313  0.50032666  -0.00071869  1
  Mn  Mn142  1  0.83595323  0.50028781  0.33381497  1
  Mn  Mn143  1  0.83410054  0.49663411  0.66747734  1
  O  O144  1  0.17368189  0.12577906  0.01094362  1
  O  O145  1  0.17727109  0.12539725  0.35640714  1
  O  O146  1  0.17040190  0.12586228  0.68869738  1
  O  O147  1  0.16335487  0.62125707  0.02580165  1
  O  O148  1  0.17739945  0.62742319  0.35660021  1
  O  O149  1  0.16851023  0.62122902  0.69258404  1
  O  O150  1  0.48845847  0.12562196  0.02419365  1
  O  O151  1  0.48807445  0.11991907  0.35872569  1
  O  O152  1  0.48961240  0.12654205  0.68792096  1
  O  O153  1  0.50715754  0.62781841  0.00852972  1
  O  O154  1  0.48756703  0.63333575  0.35960984  1
  O  O155  1  0.49260607  0.62470730  0.67626504  1
  O  O156  1  0.83692399  0.12736650  0.02378861  1
  O  O157  1  0.84232069  0.12318943  0.35860810  1
  O  O158  1  0.84100605  0.12581116  0.69040262  1
  O  O159  1  0.82245877  0.62313204  0.02586255  1
  O  O160  1  0.82983673  0.62637719  0.34308107  1
  O  O161  1  0.84010798  0.62315103  0.68672058  1
  O  O162  1  0.15945938  0.37386675  0.32529794  1
  O  O163  1  0.17333069  0.37453692  0.63848464  1
  O  O164  1  0.15887959  0.37474342  0.97634393  1
  O  O165  1  0.17234581  0.87431304  0.30459986  1
  O  O166  1  0.16498953  0.87848122  0.64374647  1
  O  O167  1  0.16779055  0.87471478  0.99126004  1
  O  O168  1  0.49303315  0.37097803  0.31124720  1
  O  O169  1  0.49141685  0.37387893  0.65272818  1
  O  O170  1  0.50034756  0.37091123  0.97333841  1
  O  O171  1  0.50484106  0.87663911  0.30413255  1
  O  O172  1  0.48641096  0.87711218  0.64625381  1
  O  O173  1  0.50535159  0.87772004  0.98295357  1
  O  O174  1  0.84067247  0.37355626  0.32584192  1
  O  O175  1  0.83488299  0.37117256  0.64224974  1
  O  O176  1  0.84659039  0.37696518  0.97526554  1
  O  O177  1  0.82397151  0.87616633  0.32437394  1
  O  O178  1  0.84396072  0.87893491  0.64381877  1
  O  O179  1  0.84141003  0.87181550  0.97746138  1
  O  O180  1  0.00045523  0.37452820  0.19592595  1
  O  O181  1  0.01196494  0.37353565  0.51264438  1
  O  O182  1  0.00410652  0.37744249  0.86275931  1
  O  O183  1  0.00990895  0.87398887  0.17638876  1
  O  O184  1  0.01071804  0.87711853  0.52892108  1
  O  O185  1  -0.00698894  0.87301846  0.85500011  1
  O  O186  1  0.34202398  0.37293597  0.18993216  1
  O  O187  1  0.32682630  0.37655475  0.52402295  1
  O  O188  1  0.33417438  0.37194029  0.85410136  1
  O  O189  1  0.33611649  0.87631630  0.18698937  1
  O  O190  1  0.33219989  0.87632304  0.52913911  1
  O  O191  1  0.33415564  0.87956852  0.85030976  1
  O  O192  1  0.65897230  0.37391629  0.17779485  1
  O  O193  1  0.67381880  0.36968079  0.50927470  1
  O  O194  1  0.66777574  0.37330313  0.85700617  1
  O  O195  1  0.66103674  0.87856234  0.19245210  1
  O  O196  1  0.67284082  0.87820766  0.50681364  1
  O  O197  1  0.67395018  0.87558893  0.85570545  1
  O  O198  1  -0.00551029  0.12704148  0.14981078  1
  O  O199  1  -0.00483620  0.12380858  0.47584839  1
  O  O200  1  -0.00576114  0.12496809  0.81277618  1
  O  O201  1  0.00408281  0.62268648  0.14969202  1
  O  O202  1  0.00598724  0.62629059  0.48527592  1
  O  O203  1  -0.00125680  0.62215268  0.80660912  1
  O  O204  1  0.34139492  0.12450811  0.13869444  1
  O  O205  1  0.32496131  0.12043114  0.46807274  1
  O  O206  1  0.33620478  0.12695367  0.80766868  1
  O  O207  1  0.32554738  0.62479397  0.15588352  1
  O  O208  1  0.32601103  0.63018441  0.46821866  1
  O  O209  1  0.32408591  0.62044734  0.80990389  1
  O  O210  1  0.66604433  0.12520975  0.15409167  1
  O  O211  1  0.65784833  0.12184258  0.47991400  1
  O  O212  1  0.66686042  0.12726972  0.82293484  1
  O  O213  1  0.66954402  0.62323880  0.13797402  1
  O  O214  1  0.65713619  0.63074597  0.48059456  1
  O  O215  1  0.67332102  0.62333907  0.82499938  1
  O  O216  1  0.08303615  0.01765593  0.25814672  1
  O  O217  1  0.08565307  0.02809842  0.58367325  1
  O  O218  1  0.07905093  0.01692502  0.92016152  1
  O  O219  1  0.09123275  0.52170494  0.24931594  1
  O  O220  1  0.08895524  0.52131474  0.58334316  1
  O  O221  1  0.08208124  0.52567222  0.91836567  1
  O  O222  1  0.42713927  0.01821448  0.23879502  1
  O  O223  1  0.41388382  0.02471258  0.57613544  1
  O  O224  1  0.41683879  0.02372311  0.91208942  1
  O  O225  1  0.41748374  0.51318541  0.25072349  1
  O  O226  1  0.41294836  0.52397197  0.57607490  1
  O  O227  1  0.41686269  0.50191300  0.91309198  1
  O  O228  1  0.75790878  0.02368324  0.24516227  1
  O  O229  1  0.76236237  0.01428600  0.57229859  1
  O  O230  1  0.75975350  0.01083048  0.91021032  1
  O  O231  1  0.75264048  0.51933036  0.24174808  1
  O  O232  1  0.75264321  0.50213488  0.57999721  1
  O  O233  1  0.76062308  0.51417239  0.90889273  1
  O  O234  1  0.26066907  0.23934220  0.25671344  1
  O  O235  1  0.25146618  0.22406137  0.57983168  1
  O  O236  1  0.24892514  0.23711604  0.90968546  1
  O  O237  1  0.25056444  0.73241199  0.25057060  1
  O  O238  1  0.25035165  0.72903429  0.57837067  1
  O  O239  1  0.24430606  0.73510762  0.91185415  1
  O  O240  1  0.58339926  0.22799528  0.25306056  1
  O  O241  1  0.57894130  0.23581348  0.58057415  1
  O  O242  1  0.57516840  0.23501695  0.91255205  1
  O  O243  1  0.59141881  0.73231018  0.26498906  1
  O  O244  1  0.57673005  0.74369156  0.57796864  1
  O  O245  1  0.59817635  0.74286590  0.92903764  1
  O  O246  1  0.91853994  0.22672588  0.25433857  1
  O  O247  1  0.92155421  0.22720530  0.58699910  1
  O  O248  1  0.91954561  0.22729532  0.92181957  1
  O  O249  1  0.91893875  0.73514525  0.24949641  1
  O  O250  1  0.92938686  0.73846797  0.59750834  1
  O  O251  1  0.91914958  0.71946294  0.92020773  1
  O  O252  1  0.07681825  0.48239066  0.07884160  1
  O  O253  1  0.08149484  0.48656332  0.41617376  1
  O  O254  1  0.08993365  0.48512710  0.75791470  1
  O  O255  1  0.08658058  0.98976123  0.08701602  1
  O  O256  1  0.08656041  0.98880481  0.42656025  1
  O  O257  1  0.07399890  0.98990655  0.74439790  1
  O  O258  1  0.41698125  0.47833813  0.08011615  1
  O  O259  1  0.40501988  0.48686377  0.40896193  1
  O  O260  1  0.41234747  0.48021133  0.74674429  1
  O  O261  1  0.41076843  0.97505614  0.07577294  1
  O  O262  1  0.41033387  0.97513736  0.40823378  1
  O  O263  1  0.40941163  0.98627177  0.74297019  1
  O  O264  1  0.74032169  0.48153318  0.06871508  1
  O  O265  1  0.75058887  0.49240581  0.41509089  1
  O  O266  1  0.74859821  0.47888107  0.74964975  1
  O  O267  1  0.74397496  0.98194107  0.07405206  1
  O  O268  1  0.73894911  0.99212856  0.40364280  1
  O  O269  1  0.75343031  0.98759531  0.74925190  1
  O  O270  1  0.25734941  0.26447265  0.07247663  1
  O  O271  1  0.24774125  0.27445152  0.41978022  1
  O  O272  1  0.25396748  0.27213183  0.74491042  1
  O  O273  1  0.25113698  0.76893889  0.08554628  1
  O  O274  1  0.24991822  0.77866960  0.41669298  1
  O  O275  1  0.25155844  0.76502367  0.74138498  1
  O  O276  1  0.57531052  0.26502803  0.08371716  1
  O  O277  1  0.57962334  0.24996658  0.41519533  1
  O  O278  1  0.57873352  0.26549836  0.75332584  1
  O  O279  1  0.57908762  0.77486149  0.09083507  1
  O  O280  1  0.57478852  0.77514470  0.42050037  1
  O  O281  1  0.58066138  0.76193867  0.75713576  1
  O  O282  1  0.91959296  0.26434293  0.08186254  1
  O  O283  1  0.91902268  0.26891038  0.42193624  1
  O  O284  1  0.91040089  0.26659019  0.76217490  1
  O  O285  1  0.91743718  0.75002669  0.08248905  1
  O  O286  1  0.91223399  0.76730491  0.43049345  1
  O  O287  1  0.91041587  0.76789655  0.75993334  1
  O  O288  1  0.25354542  0.48029468  0.07497351  1
  O  O289  1  0.24524572  0.47912211  0.42016113  1
  O  O290  1  0.25235915  0.47306825  0.74538983  1
  O  O291  1  0.24998070  0.97989332  0.08705126  1
  O  O292  1  0.24760313  0.97135765  0.41881949  1
  O  O293  1  0.25211265  0.98696308  0.74224470  1
  O  O294  1  0.57674925  0.47822622  0.08738599  1
  O  O295  1  0.57854792  0.50003741  0.41657559  1
  O  O296  1  0.57992234  0.48211965  0.75819743  1
  O  O297  1  0.57572766  0.98619314  0.09111093  1
  O  O298  1  0.57368336  0.97846318  0.41754679  1
  O  O299  1  0.57477944  0.99480168  0.75463185  1
  O  O300  1  0.91705623  0.49099182  0.08143767  1
  O  O301  1  0.91766020  0.47958424  0.42365061  1
  O  O302  1  0.90944936  0.48252177  0.76363253  1
  O  O303  1  0.91689898  0.99470390  0.08378757  1
  O  O304  1  0.90701275  0.98425159  0.43095856  1
  O  O305  1  0.91259342  0.97949803  0.75664160  1
  O  O306  1  0.07950666  0.26218254  0.08302027  1
  O  O307  1  0.08580652  0.25922416  0.42243775  1
  O  O308  1  0.08683472  0.26269066  0.75951989  1
  O  O309  1  0.08840674  0.75836228  0.08853716  1
  O  O310  1  0.08990872  0.76442029  0.42461525  1
  O  O311  1  0.07326392  0.76107212  0.74590346  1
  O  O312  1  0.41660742  0.27773583  0.07905080  1
  O  O313  1  0.40597609  0.26270214  0.40526863  1
  O  O314  1  0.41502462  0.27081283  0.75056837  1
  O  O315  1  0.41617785  0.77041275  0.08319446  1
  O  O316  1  0.41312446  0.78064862  0.41536173  1
  O  O317  1  0.40920101  0.76252497  0.74242633  1
  O  O318  1  0.74647798  0.26719378  0.07413331  1
  O  O319  1  0.75503854  0.25333053  0.41806421  1
  O  O320  1  0.74874646  0.26835954  0.74722986  1
  O  O321  1  0.74066615  0.76819725  0.06782671  1
  O  O322  1  0.73799327  0.76121415  0.40670934  1
  O  O323  1  0.75219642  0.76568012  0.75170387  1
  O  O324  1  0.26532769  0.01451877  0.25535508  1
  O  O325  1  0.24879699  0.02152463  0.57943429  1
  O  O326  1  0.25561503  0.01486825  0.91977066  1
  O  O327  1  0.25306404  0.51274343  0.25436231  1
  O  O328  1  0.25248122  0.52792191  0.58251514  1
  O  O329  1  0.24152278  0.50850466  0.90655330  1
  O  O330  1  0.58770122  0.02436084  0.25993797  1
  O  O331  1  0.57521221  0.01120790  0.57944429  1
  O  O332  1  0.57931579  0.01378439  0.91753261  1
  O  O333  1  0.59004712  0.51887281  0.25484666  1
  O  O334  1  0.58041122  0.51101292  0.58113479  1
  O  O335  1  0.59646875  0.50875183  0.92743679  1
  O  O336  1  0.91975228  0.01822168  0.25561213  1
  O  O337  1  0.92534280  0.02336185  0.59218414  1
  O  O338  1  0.91780811  0.02415560  0.92010375  1
  O  O339  1  0.91958242  0.51802598  0.25197910  1
  O  O340  1  0.92636963  0.51311936  0.59227587  1
  O  O341  1  0.91987111  0.52868482  0.92280799  1
  O  O342  1  0.08036279  0.23296669  0.26147158  1
  O  O343  1  0.08421917  0.22505415  0.58524976  1
  O  O344  1  0.07737611  0.23096079  0.92334720  1
  O  O345  1  0.08882990  0.73096507  0.25082489  1
  O  O346  1  0.08810495  0.72728952  0.58374854  1
  O  O347  1  0.08134521  0.72480318  0.91603328  1
  O  O348  1  0.42424776  0.22543772  0.24232926  1
  O  O349  1  0.41309866  0.22591666  0.57809292  1
  O  O350  1  0.41256423  0.22839151  0.91591005  1
  O  O351  1  0.41202717  0.74044945  0.25522379  1
  O  O352  1  0.41338030  0.72851770  0.57505335  1
  O  O353  1  0.41638804  0.74873453  0.91741162  1
  O  O354  1  0.75627750  0.22927478  0.25052036  1
  O  O355  1  0.75791901  0.23350564  0.57523169  1
  O  O356  1  0.75900447  0.24146789  0.90848396  1
  O  O357  1  0.75201929  0.72806948  0.23926450  1
  O  O358  1  0.75405082  0.74781664  0.57745623  1
  O  O359  1  0.76036179  0.73195314  0.90969749  1
