# generated using pymatgen
data_Ba17Sr5La8Pr42Mn72O216
_symmetry_space_group_name_H-M   'P 1'
_cell_length_a   16.67442210
_cell_length_b   15.70704212
_cell_length_c   16.82044574
_cell_angle_alpha   90.00632827
_cell_angle_beta   90.00098094
_cell_angle_gamma   90.00999208
_symmetry_Int_Tables_number   1
_chemical_formula_structural   Ba17Sr5La8Pr42Mn72O216
_chemical_formula_sum   'Ba17 Sr5 La8 Pr42 Mn72 O216'
_cell_volume   4405.37305025
_cell_formula_units_Z   1
loop_
 _symmetry_equiv_pos_site_id
 _symmetry_equiv_pos_as_xyz
  1  'x, y, z'
loop_
 _atom_site_type_symbol
 _atom_site_label
 _atom_site_symmetry_multiplicity
 _atom_site_fract_x
 _atom_site_fract_y
 _atom_site_fract_z
 _atom_site_occupancy
  Ba  Ba0  1  0.16181957  0.37436750  0.83219437  1
  Ba  Ba1  1  0.83277937  0.62634034  0.83481010  1
  Ba  Ba2  1  0.83412227  0.62499522  0.50236997  1
  Ba  Ba3  1  0.16949821  0.62502036  0.50252626  1
  Ba  Ba4  1  0.50143634  0.62439133  0.82972402  1
  Ba  Ba5  1  0.49831433  0.87676396  0.16491797  1
  Ba  Ba6  1  0.00369566  0.12533710  0.33007196  1
  Ba  Ba7  1  0.33327619  0.62478249  0.66690795  1
  Ba  Ba8  1  0.16837968  0.62471619  0.83418020  1
  Ba  Ba9  1  0.66933296  0.62354980  0.33429020  1
  Ba  Ba10  1  0.83481853  0.37367080  0.50218419  1
  Ba  Ba11  1  0.33349707  0.87629186  0.33371633  1
  Ba  Ba12  1  0.49919273  0.87726721  0.49744936  1
  Ba  Ba13  1  0.66719473  0.62534282  0.66598663  1
  Ba  Ba14  1  0.50185871  0.62477143  0.50241491  1
  Ba  Ba15  1  -0.00141011  0.12349113  1.00000307  1
  Ba  Ba16  1  0.16673885  0.12581865  0.83629165  1
  Sr  Sr17  1  -0.00197161  0.37617004  0.66784648  1
  Sr  Sr18  1  0.49835188  0.37492128  0.49995358  1
  Sr  Sr19  1  0.33362973  0.12794608  0.66684189  1
  Sr  Sr20  1  0.83618521  0.12426523  0.16808120  1
  Sr  Sr21  1  0.83220521  0.87446844  0.49820955  1
  La  La22  1  0.66529966  0.87109810  0.66368667  1
  La  La23  1  0.66821454  0.12501397  0.66269149  1
  La  La24  1  0.66638225  0.37939447  0.66614491  1
  La  La25  1  0.83048905  0.87979444  0.16866650  1
  La  La26  1  0.15739183  0.37434470  0.16497014  1
  La  La27  1  0.66713725  0.87680321  0.33818551  1
  La  La28  1  0.83177438  0.37040328  0.16759931  1
  La  La29  1  0.66724169  0.62760830  0.99567059  1
  Pr  Pr30  1  0.33075432  0.37611356  0.33886125  1
  Pr  Pr31  1  0.34358271  0.62503844  0.99499960  1
  Pr  Pr32  1  0.49939092  0.12633656  0.83338659  1
  Pr  Pr33  1  0.33724658  0.12463626  0.99543171  1
  Pr  Pr34  1  0.33099815  0.37824563  0.66759109  1
  Pr  Pr35  1  0.49570191  0.87571439  0.82881838  1
  Pr  Pr36  1  0.15781660  0.87639504  0.83420641  1
  Pr  Pr37  1  -0.00194328  0.87555522  0.33850858  1
  Pr  Pr38  1  0.17870094  0.62366069  0.17251819  1
  Pr  Pr39  1  0.50642974  0.12596820  0.16731231  1
  Pr  Pr40  1  0.33047968  0.87242572  0.66642933  1
  Pr  Pr41  1  0.83017065  0.87854645  0.83084453  1
  Pr  Pr42  1  0.16486040  0.37608222  0.50303201  1
  Pr  Pr43  1  0.49691706  0.37362541  0.82616857  1
  Pr  Pr44  1  0.83336482  0.12596337  0.83605615  1
  Pr  Pr45  1  -0.00782823  0.87396793  0.00048142  1
  Pr  Pr46  1  -0.00284674  0.87110501  0.66567945  1
  Pr  Pr47  1  0.17231487  0.12326468  0.50437266  1
  Pr  Pr48  1  0.00253641  0.62105861  0.66335814  1
  Pr  Pr49  1  0.34619855  0.62552258  0.33665320  1
  Pr  Pr50  1  0.00528522  0.62441295  0.99573003  1
  Pr  Pr51  1  0.66549900  0.37350875  0.33806203  1
  Pr  Pr52  1  0.50280098  0.12386695  0.50004103  1
  Pr  Pr53  1  0.32270859  0.87331517  0.00736526  1
  Pr  Pr54  1  0.49761160  0.37588024  0.16351861  1
  Pr  Pr55  1  0.83957947  0.12412463  0.50183145  1
  Pr  Pr56  1  0.32416889  0.37666186  0.00070445  1
  Pr  Pr57  1  0.83249631  0.37191160  0.82603403  1
  Pr  Pr58  1  0.83952617  0.62545700  0.17297310  1
  Pr  Pr59  1  0.15895880  0.87537855  0.16646861  1
  Pr  Pr60  1  0.67078216  0.12617837  0.33117785  1
  Pr  Pr61  1  -0.00344151  0.37318411  0.33844617  1
  Pr  Pr62  1  0.66754279  0.12206897  0.99705211  1
  Pr  Pr63  1  0.00410420  0.62229673  0.33372439  1
  Pr  Pr64  1  0.50697378  0.62568317  0.16980269  1
  Pr  Pr65  1  0.16639815  0.87311532  0.49813465  1
  Pr  Pr66  1  0.34156108  0.12541636  0.33250277  1
  Pr  Pr67  1  -0.00728217  0.37406473  -0.00398701  1
  Pr  Pr68  1  0.17328831  0.12562910  0.17039498  1
  Pr  Pr69  1  0.66236908  0.87322231  0.00094241  1
  Pr  Pr70  1  0.00515470  0.12757625  0.66338821  1
  Pr  Pr71  1  0.66393374  0.37587232  -0.00174888  1
  Mn  Mn72  1  0.00118745  -0.00083938  0.16700883  1
  Mn  Mn73  1  0.00134035  0.00048119  0.49976351  1
  Mn  Mn74  1  -0.00304674  -0.00194933  0.83157470  1
  Mn  Mn75  1  -0.00048940  0.49992297  0.16517941  1
  Mn  Mn76  1  0.00191109  0.49820439  0.50000003  1
  Mn  Mn77  1  -0.00282318  0.50126454  0.83347379  1
  Mn  Mn78  1  0.33226650  0.00230036  0.16513294  1
  Mn  Mn79  1  0.33255774  0.00385294  0.50103495  1
  Mn  Mn80  1  0.33236640  -0.00124523  0.83530902  1
  Mn  Mn81  1  0.33467782  0.49837097  0.16842751  1
  Mn  Mn82  1  0.33375304  0.49614332  0.50080551  1
  Mn  Mn83  1  0.33354114  0.49914993  0.83542438  1
  Mn  Mn84  1  0.66794674  0.00213775  0.16600116  1
  Mn  Mn85  1  0.66989029  0.00350059  0.49837752  1
  Mn  Mn86  1  0.66457504  0.00069580  0.83133518  1
  Mn  Mn87  1  0.66823356  0.49636372  0.16459280  1
  Mn  Mn88  1  0.66652282  0.49652545  0.50034145  1
  Mn  Mn89  1  0.66619495  0.49883227  0.83600112  1
  Mn  Mn90  1  -0.00015970  0.25043021  0.16613448  1
  Mn  Mn91  1  0.00274940  0.24893840  0.49887840  1
  Mn  Mn92  1  -0.00294929  0.24869985  0.83205424  1
  Mn  Mn93  1  0.00055001  0.74964557  0.16655771  1
  Mn  Mn94  1  0.00039602  0.75132353  0.50041889  1
  Mn  Mn95  1  -0.00237704  0.75101118  0.83445728  1
  Mn  Mn96  1  0.33467958  0.25164798  0.16721793  1
  Mn  Mn97  1  0.33318211  0.24946444  0.49969177  1
  Mn  Mn98  1  0.33353163  0.24921766  0.83314627  1
  Mn  Mn99  1  0.33283008  0.74833862  0.16666406  1
  Mn  Mn100  1  0.33280836  0.75174947  0.50042783  1
  Mn  Mn101  1  0.33300180  0.75283549  0.83772362  1
  Mn  Mn102  1  0.66729817  0.25064981  0.16565936  1
  Mn  Mn103  1  0.66704528  0.24882460  0.49828645  1
  Mn  Mn104  1  0.66486365  0.24778347  0.83252621  1
  Mn  Mn105  1  0.66862873  0.75125260  0.16556912  1
  Mn  Mn106  1  0.66869403  0.75231043  0.49997286  1
  Mn  Mn107  1  0.66577857  0.75282155  0.83505359  1
  Mn  Mn108  1  0.16533439  0.25131542  0.00302909  1
  Mn  Mn109  1  0.17082479  0.25150772  0.33372293  1
  Mn  Mn110  1  0.16656289  0.24855615  0.66651693  1
  Mn  Mn111  1  0.16478839  0.74901048  0.00331306  1
  Mn  Mn112  1  0.16768834  0.74810892  0.33272345  1
  Mn  Mn113  1  0.16511591  0.75359642  0.66743574  1
  Mn  Mn114  1  0.49935718  0.25091982  -0.00129405  1
  Mn  Mn115  1  0.50036293  0.25085339  0.33130377  1
  Mn  Mn116  1  0.49948995  0.24761978  0.66465731  1
  Mn  Mn117  1  0.49921496  0.75173595  -0.00076070  1
  Mn  Mn118  1  0.50302302  0.75007715  0.33185389  1
  Mn  Mn119  1  0.49865230  0.75421176  0.66519842  1
  Mn  Mn120  1  0.83025300  0.24971027  -0.00146424  1
  Mn  Mn121  1  0.83402438  0.24914115  0.33171171  1
  Mn  Mn122  1  0.83374882  0.24651858  0.66760899  1
  Mn  Mn123  1  0.83161034  0.75130616  0.00452720  1
  Mn  Mn124  1  0.83615027  0.74993271  0.33318611  1
  Mn  Mn125  1  0.83402967  0.75290395  0.66655142  1
  Mn  Mn126  1  0.16492158  -0.00093205  0.00207286  1
  Mn  Mn127  1  0.16921617  0.00083195  0.33405384  1
  Mn  Mn128  1  0.16652204  -0.00025721  0.66729452  1
  Mn  Mn129  1  0.16454572  0.49933482  0.00420560  1
  Mn  Mn130  1  0.16935425  0.49952144  0.33285444  1
  Mn  Mn131  1  0.16505311  0.49868669  0.66720811  1
  Mn  Mn132  1  0.49876881  0.00201797  -0.00271558  1
  Mn  Mn133  1  0.50277304  0.00363821  0.33197608  1
  Mn  Mn134  1  0.49800779  0.00201961  0.66649932  1
  Mn  Mn135  1  0.49991967  0.49571177  -0.00026095  1
  Mn  Mn136  1  0.50101986  0.49735237  0.33030510  1
  Mn  Mn137  1  0.49958595  0.49605673  0.66428097  1
  Mn  Mn138  1  0.83072533  0.00007832  -0.00071194  1
  Mn  Mn139  1  0.83473528  0.00076972  0.33369430  1
  Mn  Mn140  1  0.83414754  -0.00005485  0.66607950  1
  Mn  Mn141  1  0.83126280  0.49817128  0.00287904  1
  Mn  Mn142  1  0.83534269  0.50012720  0.33180379  1
  Mn  Mn143  1  0.83405253  0.49885986  0.66807260  1
  O  O144  1  0.16927085  0.12706297  0.02496806  1
  O  O145  1  0.17363867  0.13134914  0.35949263  1
  O  O146  1  0.16215396  0.12251434  0.68066164  1
  O  O147  1  0.15450762  0.62367617  0.02800053  1
  O  O148  1  0.15658158  0.62386590  0.34713797  1
  O  O149  1  0.15994475  0.62988481  0.67727052  1
  O  O150  1  0.49430409  0.12779650  0.02516075  1
  O  O151  1  0.50361731  0.12937382  0.35427922  1
  O  O152  1  0.50344723  0.12435937  0.69145331  1
  O  O153  1  0.49639252  0.61837093  0.02512849  1
  O  O154  1  0.49792253  0.62156919  0.34154323  1
  O  O155  1  0.50033218  0.62665910  0.67289577  1
  O  O156  1  0.82254425  0.12484235  0.01936402  1
  O  O157  1  0.82924331  0.12455034  0.35607731  1
  O  O158  1  0.83362447  0.12150269  0.69364628  1
  O  O159  1  0.82303523  0.62629124  0.03001473  1
  O  O160  1  0.84040101  0.62584142  0.34370551  1
  O  O161  1  0.84120222  0.62771400  0.67764610  1
  O  O162  1  0.17670459  0.37649950  0.30560292  1
  O  O163  1  0.16645152  0.36977817  0.64914921  1
  O  O164  1  0.17364831  0.37621530  0.99028065  1
  O  O165  1  0.16390678  0.86944412  0.30852647  1
  O  O166  1  0.16459551  0.87944167  0.64305267  1
  O  O167  1  0.17489863  0.87247166  0.98052417  1
  O  O168  1  0.49565946  0.37218435  0.30566971  1
  O  O169  1  0.49819715  0.36705774  0.64976135  1
  O  O170  1  0.50759067  0.37110793  0.97053941  1
  O  O171  1  0.50767216  0.87926814  0.32185754  1
  O  O172  1  0.49617519  0.88191923  0.65478474  1
  O  O173  1  0.50571868  0.88237757  0.97523538  1
  O  O174  1  0.83697374  0.37488837  0.31264644  1
  O  O175  1  0.83115459  0.36892041  0.66015790  1
  O  O176  1  0.83436060  0.37173829  0.97180551  1
  O  O177  1  0.83555658  0.87498745  0.31247460  1
  O  O178  1  0.83477065  0.88036039  0.64639945  1
  O  O179  1  0.83523239  0.87660415  0.97596396  1
  O  O180  1  0.00143654  0.37908901  0.19418467  1
  O  O181  1  0.00857703  0.37185732  0.51609791  1
  O  O182  1  -0.01310149  0.37583386  0.85147064  1
  O  O183  1  0.00552989  0.87300544  0.19432744  1
  O  O184  1  0.00644656  0.87867257  0.52174316  1
  O  O185  1  -0.00493599  0.87354131  0.85716944  1
  O  O186  1  0.34193138  0.37433919  0.19670486  1
  O  O187  1  0.33768625  0.36878624  0.52156771  1
  O  O188  1  0.34058796  0.37207464  0.85605332  1
  O  O189  1  0.32645982  0.87627374  0.17690733  1
  O  O190  1  0.32926428  0.88347975  0.51898510  1
  O  O191  1  0.34044923  0.87700847  0.86420334  1
  O  O192  1  0.66647510  0.37196676  0.19411059  1
  O  O193  1  0.66608632  0.36810072  0.51996518  1
  O  O194  1  0.66545952  0.36937550  0.85612571  1
  O  O195  1  0.67101775  0.88151028  0.19244001  1
  O  O196  1  0.67086973  0.88473404  0.51739435  1
  O  O197  1  0.66572510  0.87963941  0.85871847  1
  O  O198  1  0.00674555  0.12217117  0.15520130  1
  O  O199  1  -0.00098747  0.12411617  0.48500917  1
  O  O200  1  -0.00861452  0.11921645  0.81027915  1
  O  O201  1  -0.01007700  0.62438603  0.13665606  1
  O  O202  1  0.00179260  0.62458445  0.47949528  1
  O  O203  1  -0.00204713  0.63074649  0.81075764  1
  O  O204  1  0.32768975  0.12875251  0.13812180  1
  O  O205  1  0.32165847  0.12839372  0.47531664  1
  O  O206  1  0.33632797  0.12386295  0.81679762  1
  O  O207  1  0.33133880  0.62114321  0.13905633  1
  O  O208  1  0.33238306  0.61977180  0.48250160  1
  O  O209  1  0.33282365  0.62700295  0.82730444  1
  O  O210  1  0.66373498  0.12783818  0.13947002  1
  O  O211  1  0.66754314  0.12733937  0.47491030  1
  O  O212  1  0.66695702  0.12336410  0.80563420  1
  O  O213  1  0.66589194  0.61866112  0.14067210  1
  O  O214  1  0.66723113  0.61921335  0.49384423  1
  O  O215  1  0.66738438  0.62899969  0.82556432  1
  O  O216  1  0.09832751  0.01268368  0.24172917  1
  O  O217  1  0.08561759  0.02042132  0.57966729  1
  O  O218  1  0.08436383  0.00091587  0.91430256  1
  O  O219  1  0.08856603  0.51984591  0.23812670  1
  O  O220  1  0.08280908  0.50954519  0.58294509  1
  O  O221  1  0.07868532  0.51086921  0.91783850  1
  O  O222  1  0.42123983  0.02462772  0.24171545  1
  O  O223  1  0.41904119  0.02497187  0.57737373  1
  O  O224  1  0.42179159  0.02411140  0.91080615  1
  O  O225  1  0.42181785  0.52194255  0.24116000  1
  O  O226  1  0.41601061  0.50055917  0.58313282  1
  O  O227  1  0.41703383  0.50979341  0.92072033  1
  O  O228  1  0.74968754  0.02004169  0.25194948  1
  O  O229  1  0.75352680  0.02640813  0.58102946  1
  O  O230  1  0.74590313  0.02045279  0.91388217  1
  O  O231  1  0.76092411  0.51095264  0.23761382  1
  O  O232  1  0.75158629  0.49946757  0.58883570  1
  O  O233  1  0.74748433  0.51074841  0.92438854  1
  O  O234  1  0.26040958  0.22858557  0.25693655  1
  O  O235  1  0.24889149  0.23498830  0.58086184  1
  O  O236  1  0.25875549  0.23892811  0.92840696  1
  O  O237  1  0.25789472  0.72280714  0.25712378  1
  O  O238  1  0.25076223  0.75248305  0.58819656  1
  O  O239  1  0.25786572  0.73558079  0.93488141  1
  O  O240  1  0.58752330  0.22879654  0.25018112  1
  O  O241  1  0.58547066  0.22562519  0.58469368  1
  O  O242  1  0.58549617  0.22284863  0.91674596  1
  O  O243  1  0.58499405  0.73546586  0.24302989  1
  O  O244  1  0.58691108  0.75440426  0.58748432  1
  O  O245  1  0.58817302  0.74043646  0.92146211  1
  O  O246  1  0.91595511  0.24250277  0.24553509  1
  O  O247  1  0.91911650  0.22738504  0.58671476  1
  O  O248  1  0.90794637  0.23286575  0.91193075  1
  O  O249  1  0.92816216  0.72956438  0.25531921  1
  O  O250  1  0.92524792  0.74184285  0.59266565  1
  O  O251  1  0.92216754  0.73437270  0.93375019  1
  O  O252  1  0.07282688  0.47616126  0.07725084  1
  O  O253  1  0.08408786  0.47649552  0.40908865  1
  O  O254  1  0.07468070  0.49322808  0.74539191  1
  O  O255  1  0.07820037  0.97394694  0.07918985  1
  O  O256  1  0.08094407  0.97834795  0.41359393  1
  O  O257  1  0.07801086  0.97715171  0.74789604  1
  O  O258  1  0.41319115  0.47273657  0.07948466  1
  O  O259  1  0.40932537  0.48497064  0.40667893  1
  O  O260  1  0.41720172  0.47765545  0.74794538  1
  O  O261  1  0.40393131  0.98797304  0.07130574  1
  O  O262  1  0.41408286  1.00448002  0.41379881  1
  O  O263  1  0.41011973  0.97998219  0.75115868  1
  O  O264  1  0.74606099  0.46950624  0.08083761  1
  O  O265  1  0.74494044  0.48247254  0.40958212  1
  O  O266  1  0.74742061  0.47955931  0.75284579  1
  O  O267  1  0.74762820  0.97838686  0.08141146  1
  O  O268  1  0.75148118  0.98529235  0.41462106  1
  O  O269  1  0.74708725  0.97906263  0.74954367  1
  O  O270  1  0.24693051  0.27324743  0.09611303  1
  O  O271  1  0.24681365  0.27764861  0.41992841  1
  O  O272  1  0.25435726  0.26397752  0.74659106  1
  O  O273  1  0.23644188  0.76299701  0.09653362  1
  O  O274  1  0.24306315  0.76520259  0.42217527  1
  O  O275  1  0.24636357  0.77637796  0.75778371  1
  O  O276  1  0.57945077  0.27172343  0.08611682  1
  O  O277  1  0.57991218  0.26889913  0.41250135  1
  O  O278  1  0.58141917  0.26793803  0.75289952  1
  O  O279  1  0.58455346  0.76258394  0.07856504  1
  O  O280  1  0.58960076  0.76293216  0.41153690  1
  O  O281  1  0.57981415  0.77383130  0.75266556  1
  O  O282  1  0.91267311  0.27071883  0.07912666  1
  O  O283  1  0.92101717  0.26194626  0.41408213  1
  O  O284  1  0.90966347  0.26033677  0.75467883  1
  O  O285  1  0.90929925  0.77505556  0.09374171  1
  O  O286  1  0.91859539  0.76968724  0.41559716  1
  O  O287  1  0.91126726  0.77535854  0.75413097  1
  O  O288  1  0.24349817  0.48120901  0.09901035  1
  O  O289  1  0.24848480  0.47545630  0.42199410  1
  O  O290  1  0.25234430  0.48495033  0.74923847  1
  O  O291  1  0.23874068  0.98378090  0.09382797  1
  O  O292  1  0.23972214  0.98574369  0.42641166  1
  O  O293  1  0.24608340  0.97410990  0.75852064  1
  O  O294  1  0.58052735  0.47299485  0.08397924  1
  O  O295  1  0.58204518  0.47722113  0.41023818  1
  O  O296  1  0.58070939  0.47705224  0.75211055  1
  O  O297  1  0.58644200  0.99010802  0.07549429  1
  O  O298  1  0.59248227  0.99453672  0.41059180  1
  O  O299  1  0.58199456  0.97984487  0.75297421  1
  O  O300  1  0.90977082  0.47460642  0.09007542  1
  O  O301  1  0.92382700  0.48628701  0.41129516  1
  O  O302  1  0.90929713  0.48482176  0.75768823  1
  O  O303  1  0.91538971  0.97932840  0.08220122  1
  O  O304  1  0.91790372  0.98301785  0.41692458  1
  O  O305  1  0.91516422  0.97501816  0.74926211  1
  O  O306  1  0.07685355  0.27323720  0.08105975  1
  O  O307  1  0.08631116  0.27354548  0.41021436  1
  O  O308  1  0.07446377  0.25483098  0.74282950  1
  O  O309  1  0.07382335  0.77420924  0.07796129  1
  O  O310  1  0.08060203  0.77049693  0.41139510  1
  O  O311  1  0.08112584  0.77648238  0.74820894  1
  O  O312  1  0.41110102  0.27547444  0.07905116  1
  O  O313  1  0.40868409  0.26154440  0.40505882  1
  O  O314  1  0.41640662  0.26739037  0.74876788  1
  O  O315  1  0.40460699  0.76262945  0.07434329  1
  O  O316  1  0.41301912  0.75241504  0.41114606  1
  O  O317  1  0.41317788  0.77338197  0.74988251  1
  O  O318  1  0.74532835  0.27431618  0.07932579  1
  O  O319  1  0.74458303  0.26344533  0.40707395  1
  O  O320  1  0.74545714  0.26491515  0.75033863  1
  O  O321  1  0.74628343  0.77730403  0.08103288  1
  O  O322  1  0.75010202  0.76697300  0.41013922  1
  O  O323  1  0.74775237  0.77463401  0.75124447  1
  O  O324  1  0.25865724  0.02558008  0.25483059  1
  O  O325  1  0.25289494  0.01864869  0.58700435  1
  O  O326  1  0.25890788  0.01294662  0.92956176  1
  O  O327  1  0.25957512  0.52341126  0.26008972  1
  O  O328  1  0.25102929  0.49562222  0.58469090  1
  O  O329  1  0.25622198  0.51252083  0.93468239  1
  O  O330  1  0.58650026  0.02579607  0.24651788  1
  O  O331  1  0.58740824  0.02333825  0.58093560  1
  O  O332  1  0.58316003  0.02750776  0.91361878  1
  O  O333  1  0.58260685  0.51006039  0.24160766  1
  O  O334  1  0.58521445  0.49642875  0.58627186  1
  O  O335  1  0.58830153  0.51288547  0.92571949  1
  O  O336  1  0.91614019  0.00616718  0.24746109  1
  O  O337  1  0.92008913  0.02196908  0.58512671  1
  O  O338  1  0.90735015  0.01267993  0.90885556  1
  O  O339  1  0.92558785  0.52186710  0.25084548  1
  O  O340  1  0.92384965  0.50990223  0.59109233  1
  O  O341  1  0.92175001  0.51745033  0.93064608  1
  O  O342  1  0.09880103  0.23900633  0.24323673  1
  O  O343  1  0.08743671  0.22893547  0.57793467  1
  O  O344  1  0.07636827  0.24678820  0.91607305  1
  O  O345  1  0.09009088  0.72697642  0.23904884  1
  O  O346  1  0.08029807  0.74145816  0.58656786  1
  O  O347  1  0.08467432  0.74031051  0.91849908  1
  O  O348  1  0.42376809  0.22404613  0.24100319  1
  O  O349  1  0.42119951  0.22595968  0.57436366  1
  O  O350  1  0.42095196  0.22863006  0.91269378  1
  O  O351  1  0.42041117  0.72957350  0.24205087  1
  O  O352  1  0.41395540  0.75050511  0.58561140  1
  O  O353  1  0.41944130  0.73759513  0.91721264  1
  O  O354  1  0.74999217  0.23197283  0.24611757  1
  O  O355  1  0.75557958  0.22453193  0.58287058  1
  O  O356  1  0.74653700  0.22698789  0.91495215  1
  O  O357  1  0.76357399  0.73801223  0.23981785  1
  O  O358  1  0.75206675  0.75010381  0.58539312  1
  O  O359  1  0.74862658  0.74263929  0.92342168  1
