# generated using pymatgen
data_Ba17Sr5La8Pr42Mn72O216
_symmetry_space_group_name_H-M   'P 1'
_cell_length_a   16.67119938
_cell_length_b   15.70371700
_cell_length_c   16.81370345
_cell_angle_alpha   90.01455796
_cell_angle_beta   89.97116917
_cell_angle_gamma   90.02367319
_symmetry_Int_Tables_number   1
_chemical_formula_structural   Ba17Sr5La8Pr42Mn72O216
_chemical_formula_sum   'Ba17 Sr5 La8 Pr42 Mn72 O216'
_cell_volume   4401.82307688
_cell_formula_units_Z   1
loop_
 _symmetry_equiv_pos_site_id
 _symmetry_equiv_pos_as_xyz
  1  'x, y, z'
loop_
 _atom_site_type_symbol
 _atom_site_label
 _atom_site_symmetry_multiplicity
 _atom_site_fract_x
 _atom_site_fract_y
 _atom_site_fract_z
 _atom_site_occupancy
  Ba  Ba0  1  0.17068883  0.62535686  0.16634735  1
  Ba  Ba1  1  0.00072322  0.37429868  0.00000430  1
  Ba  Ba2  1  0.16398226  0.87400788  0.83104867  1
  Ba  Ba3  1  0.82965795  0.87427731  0.49918217  1
  Ba  Ba4  1  -0.00354149  0.12472404  0.66489649  1
  Ba  Ba5  1  0.33623969  0.37392690  0.00111647  1
  Ba  Ba6  1  0.50331040  0.62615538  0.83581587  1
  Ba  Ba7  1  0.33765403  0.62500620  1.00134544  1
  Ba  Ba8  1  0.16730604  0.37349127  0.16459558  1
  Ba  Ba9  1  0.50349961  0.37285760  0.16483371  1
  Ba  Ba10  1  0.66866051  0.37268154  0.00068746  1
  Ba  Ba11  1  0.83564226  0.62527957  0.16626274  1
  Ba  Ba12  1  0.66070773  0.12711112  0.66516787  1
  Ba  Ba13  1  0.16627170  0.12399082  0.16457309  1
  Ba  Ba14  1  0.16725255  0.37560468  0.49958479  1
  Ba  Ba15  1  0.66550504  0.12210661  0.33174558  1
  Ba  Ba16  1  0.33033592  0.87521424  0.66839754  1
  Sr  Sr17  1  0.33390383  0.12784670  1.00233595  1
  Sr  Sr18  1  0.66821100  0.37366517  0.66924393  1
  Sr  Sr19  1  0.66475083  0.87478511  0.33505087  1
  Sr  Sr20  1  0.49918805  0.12832157  0.16523669  1
  Sr  Sr21  1  0.66350405  0.12526543  0.99792737  1
  La  La22  1  -0.00627647  0.87643373  0.66972554  1
  La  La23  1  0.17230534  0.62464090  0.49929025  1
  La  La24  1  0.67142649  0.37317427  0.33144667  1
  La  La25  1  -0.00201612  0.12529509  0.33273885  1
  La  La26  1  0.49711057  0.87709357  0.83337723  1
  La  La27  1  0.33275922  0.87600515  0.00170489  1
  La  La28  1  0.66890674  0.62054381  1.00021974  1
  La  La29  1  0.33016333  0.87810433  0.33796987  1
  Pr  Pr30  1  0.33820110  0.37455109  0.33144913  1
  Pr  Pr31  1  0.00418491  0.37934590  0.33128700  1
  Pr  Pr32  1  0.01124606  0.62188499  0.99818942  1
  Pr  Pr33  1  0.17262544  0.37563178  0.83061346  1
  Pr  Pr34  1  0.33628055  0.37702380  0.67174646  1
  Pr  Pr35  1  0.00077759  0.12786078  0.99527389  1
  Pr  Pr36  1  0.50749406  0.37584833  0.83515975  1
  Pr  Pr37  1  0.16110545  0.87563240  0.16239699  1
  Pr  Pr38  1  0.83406393  0.37399953  0.83059696  1
  Pr  Pr39  1  0.33795054  0.62193916  0.32826999  1
  Pr  Pr40  1  0.33138969  0.12880224  0.32932071  1
  Pr  Pr41  1  0.67004284  0.62260273  0.66462872  1
  Pr  Pr42  1  0.82722413  0.87670254  0.16691686  1
  Pr  Pr43  1  0.50252692  0.62103862  0.16669410  1
  Pr  Pr44  1  -0.00117946  0.87122408  0.33418314  1
  Pr  Pr45  1  0.83556873  0.62614727  0.50190744  1
  Pr  Pr46  1  0.33838305  0.62830245  0.66857432  1
  Pr  Pr47  1  0.67085903  0.62861895  0.33107204  1
  Pr  Pr48  1  0.65908777  0.87807778  0.66605535  1
  Pr  Pr49  1  0.49873587  0.87775707  0.49704788  1
  Pr  Pr50  1  0.32341181  0.12396015  0.66676528  1
  Pr  Pr51  1  0.50080829  0.88112357  0.16837727  1
  Pr  Pr52  1  0.82241812  0.12097468  0.50403398  1
  Pr  Pr53  1  0.00596512  0.62549120  0.33036030  1
  Pr  Pr54  1  0.83387858  0.37242294  0.16139561  1
  Pr  Pr55  1  0.50511311  0.37439432  0.49667743  1
  Pr  Pr56  1  -0.00595047  0.87518859  0.00132922  1
  Pr  Pr57  1  0.83607229  0.36882309  0.49953277  1
  Pr  Pr58  1  0.15972408  0.12410163  0.50149568  1
  Pr  Pr59  1  0.66165552  0.87471826  0.00151556  1
  Pr  Pr60  1  0.82747417  0.12606977  0.83471468  1
  Pr  Pr61  1  0.17637609  0.62704000  0.83879736  1
  Pr  Pr62  1  0.48915771  0.12646467  0.50384876  1
  Pr  Pr63  1  0.00507285  0.62563586  0.66579562  1
  Pr  Pr64  1  0.16161135  0.87558048  0.50124876  1
  Pr  Pr65  1  0.83129665  0.12792477  0.16566413  1
  Pr  Pr66  1  0.50282405  0.62691109  0.50489778  1
  Pr  Pr67  1  0.16161868  0.11985736  0.83733251  1
  Pr  Pr68  1  0.49481300  0.12511007  0.83857316  1
  Pr  Pr69  1  0.83852643  0.62421166  0.83979836  1
  Pr  Pr70  1  0.00088983  0.37430933  0.67194547  1
  Pr  Pr71  1  0.82577440  0.87596373  0.82854310  1
  Mn  Mn72  1  -0.00356571  -0.00045595  0.16679321  1
  Mn  Mn73  1  -0.00181666  -0.00180508  0.49779725  1
  Mn  Mn74  1  -0.00456953  -0.00030142  0.83405179  1
  Mn  Mn75  1  0.00013240  0.50119848  0.16688677  1
  Mn  Mn76  1  -0.00181911  0.50109005  0.50102239  1
  Mn  Mn77  1  0.00130603  0.50004243  0.83206920  1
  Mn  Mn78  1  0.33479206  -0.00033608  0.17025351  1
  Mn  Mn79  1  0.32994074  0.00062129  0.50029062  1
  Mn  Mn80  1  0.33271748  0.00250445  0.83455721  1
  Mn  Mn81  1  0.33636435  0.50095000  0.16724543  1
  Mn  Mn82  1  0.33553369  0.50104245  0.50071993  1
  Mn  Mn83  1  0.33598698  0.49822751  0.83309775  1
  Mn  Mn84  1  0.66676380  -0.00040670  0.16530884  1
  Mn  Mn85  1  0.66208364  -0.00050885  0.49896086  1
  Mn  Mn86  1  0.66492118  0.00033090  0.83298907  1
  Mn  Mn87  1  0.66913955  0.50183628  0.16858264  1
  Mn  Mn88  1  0.66849652  0.49788441  0.49897009  1
  Mn  Mn89  1  0.67007806  0.49928840  0.83080421  1
  Mn  Mn90  1  -0.00130396  0.24727554  0.16606373  1
  Mn  Mn91  1  -0.00140481  0.25123334  0.49832019  1
  Mn  Mn92  1  0.00031376  0.25006234  0.83197180  1
  Mn  Mn93  1  -0.00112735  0.75156774  0.16697248  1
  Mn  Mn94  1  -0.00021676  0.74783310  0.50013187  1
  Mn  Mn95  1  -0.00379611  0.74859256  0.83354200  1
  Mn  Mn96  1  0.33444238  0.24767707  0.16626065  1
  Mn  Mn97  1  0.33243350  0.25091392  0.50170527  1
  Mn  Mn98  1  0.33385499  0.24955803  0.83117892  1
  Mn  Mn99  1  0.33735620  0.75324377  0.17119026  1
  Mn  Mn100  1  0.33341018  0.74969612  0.49887640  1
  Mn  Mn101  1  0.33475757  0.75140597  0.83408537  1
  Mn  Mn102  1  0.66715281  0.24686010  0.16606769  1
  Mn  Mn103  1  0.66497287  0.25188627  0.50016485  1
  Mn  Mn104  1  0.66638366  0.24963069  0.83170496  1
  Mn  Mn105  1  0.66640290  0.75278450  0.16765358  1
  Mn  Mn106  1  0.66541145  0.74789137  0.49942138  1
  Mn  Mn107  1  0.66877138  0.75133828  0.83240040  1
  Mn  Mn108  1  0.16665698  0.24758458  -0.00298599  1
  Mn  Mn109  1  0.16672977  0.25026240  0.33429113  1
  Mn  Mn110  1  0.16650679  0.25083927  0.66546751  1
  Mn  Mn111  1  0.16767291  0.75307155  -0.00048488  1
  Mn  Mn112  1  0.16834994  0.75239558  0.33422757  1
  Mn  Mn113  1  0.16440833  0.74662712  0.66643099  1
  Mn  Mn114  1  0.50063422  0.24702868  0.00015487  1
  Mn  Mn115  1  0.50103541  0.25009747  0.33544791  1
  Mn  Mn116  1  0.49622403  0.25201143  0.66746946  1
  Mn  Mn117  1  0.50251865  0.75358122  0.00204265  1
  Mn  Mn118  1  0.49968063  0.74937267  0.33509187  1
  Mn  Mn119  1  0.50109683  0.74958405  0.66679279  1
  Mn  Mn120  1  0.83277306  0.24742879  -0.00065615  1
  Mn  Mn121  1  0.83584982  0.25090390  0.33241153  1
  Mn  Mn122  1  0.83297109  0.25050910  0.66446911  1
  Mn  Mn123  1  0.83438247  0.75199791  -0.00224897  1
  Mn  Mn124  1  0.83380725  0.74959569  0.33404632  1
  Mn  Mn125  1  0.83101358  0.74753829  0.66939006  1
  Mn  Mn126  1  0.16617283  -0.00127699  0.00005985  1
  Mn  Mn127  1  0.16528045  -0.00122920  0.33417414  1
  Mn  Mn128  1  0.16273065  0.00058144  0.66641148  1
  Mn  Mn129  1  0.16873616  0.49955026  -0.00147498  1
  Mn  Mn130  1  0.16856942  0.49955722  0.33457722  1
  Mn  Mn131  1  0.16784232  0.50197270  0.66719895  1
  Mn  Mn132  1  0.49973991  0.00094316  0.00003322  1
  Mn  Mn133  1  0.49867556  0.00029210  0.33346103  1
  Mn  Mn134  1  0.49583930  0.00209239  0.66721371  1
  Mn  Mn135  1  0.50386932  0.50005990  0.00060412  1
  Mn  Mn136  1  0.50242143  0.49995206  0.33586687  1
  Mn  Mn137  1  0.50108329  0.49968359  0.66536722  1
  Mn  Mn138  1  0.83253444  -0.00111281  -0.00152219  1
  Mn  Mn139  1  0.83441486  0.00063562  0.33229395  1
  Mn  Mn140  1  0.82953578  -0.00113130  0.66642557  1
  Mn  Mn141  1  0.83531375  0.50049825  0.00007941  1
  Mn  Mn142  1  0.83484568  0.49812842  0.33567592  1
  Mn  Mn143  1  0.83418906  0.50110381  0.66661747  1
  O  O144  1  0.15764544  0.12020286  0.00582754  1
  O  O145  1  0.16787632  0.12260446  0.35804870  1
  O  O146  1  0.16591462  0.12897526  0.68967440  1
  O  O147  1  0.16143939  0.63064540  0.00653934  1
  O  O148  1  0.16650221  0.62798518  0.35404901  1
  O  O149  1  0.15529331  0.62292465  0.69424945  1
  O  O150  1  0.50044438  0.12067139  0.01298266  1
  O  O151  1  0.49398815  0.12644830  0.35992663  1
  O  O152  1  0.49099536  0.13124062  0.69356431  1
  O  O153  1  0.50718721  0.63259512  0.01968408  1
  O  O154  1  0.49801812  0.62356452  0.36255800  1
  O  O155  1  0.49988179  0.62426267  0.68005285  1
  O  O156  1  0.83598954  0.12024237  0.02281317  1
  O  O157  1  0.84214337  0.12838111  0.36170051  1
  O  O158  1  0.82891642  0.12431954  0.68632469  1
  O  O159  1  0.82305437  0.62885380  0.00881236  1
  O  O160  1  0.83104816  0.61987124  0.35905615  1
  O  O161  1  0.82366170  0.62391386  0.69498711  1
  O  O162  1  0.16093555  0.37458139  0.32355205  1
  O  O163  1  0.17465590  0.37766442  0.65467504  1
  O  O164  1  0.16731979  0.37224246  0.97563570  1
  O  O165  1  0.16772223  0.87560087  0.30750157  1
  O  O166  1  0.16175437  0.87035096  0.64508228  1
  O  O167  1  0.17205821  0.87630673  0.98832359  1
  O  O168  1  0.49536465  0.37614352  0.32143659  1
  O  O169  1  0.49175894  0.37718076  0.63913718  1
  O  O170  1  0.50353323  0.37102916  0.98284260  1
  O  O171  1  0.49558566  0.87246184  0.31280287  1
  O  O172  1  0.50577538  0.87098360  0.64187328  1
  O  O173  1  0.50804562  0.87737902  0.97768686  1
  O  O174  1  0.83504974  0.37531791  0.30483678  1
  O  O175  1  0.84377921  0.37885034  0.64272953  1
  O  O176  1  0.83547995  0.37365011  0.97609376  1
  O  O177  1  0.84182855  0.87748163  0.31161477  1
  O  O178  1  0.84134732  0.87089745  0.65624063  1
  O  O179  1  0.84316226  0.87595387  0.97050429  1
  O  O180  1  -0.00870791  0.37231748  0.18776207  1
  O  O181  1  -0.00787226  0.38149234  0.52883142  1
  O  O182  1  -0.00718609  0.37565687  0.84428155  1
  O  O183  1  -0.00127567  0.87585003  0.19157841  1
  O  O184  1  0.00508855  0.87114702  0.52562059  1
  O  O185  1  -0.01259035  0.87360605  0.85547109  1
  O  O186  1  0.33649567  0.37526587  0.18548084  1
  O  O187  1  0.33780730  0.37355782  0.52854097  1
  O  O188  1  0.32023444  0.37250451  0.84233652  1
  O  O189  1  0.34524752  0.87582899  0.19621765  1
  O  O190  1  0.33292608  0.87459544  0.51472822  1
  O  O191  1  0.33636521  0.87934168  0.85145150  1
  O  O192  1  0.67520275  0.37563552  0.18647513  1
  O  O193  1  0.66369727  0.37718109  0.52141311  1
  O  O194  1  0.66568338  0.37451348  0.84372818  1
  O  O195  1  0.66987921  0.87459748  0.18574453  1
  O  O196  1  0.65599427  0.87241319  0.52150000  1
  O  O197  1  0.66830724  0.87595735  0.85751729  1
  O  O198  1  -0.00872668  0.11938132  0.13959502  1
  O  O199  1  0.00635311  0.12045237  0.47702484  1
  O  O200  1  0.00541597  0.12503675  0.82069313  1
  O  O201  1  0.00007814  0.63121019  0.14361519  1
  O  O202  1  -0.00708698  0.62395147  0.47412100  1
  O  O203  1  -0.00700114  0.62338750  0.80824688  1
  O  O204  1  0.33668876  0.12033374  0.15528312  1
  O  O205  1  0.33633150  0.12428510  0.47336833  1
  O  O206  1  0.34484521  0.12752234  0.80932793  1
  O  O207  1  0.34003548  0.62981025  0.15954391  1
  O  O208  1  0.33704053  0.62908121  0.47172973  1
  O  O209  1  0.33205556  0.62258260  0.81566140  1
  O  O210  1  0.67625542  0.11934962  0.14892658  1
  O  O211  1  0.66996106  0.12764747  0.48954024  1
  O  O212  1  0.67086941  0.12383169  0.82022883  1
  O  O213  1  0.66299621  0.63188205  0.14576382  1
  O  O214  1  0.66570876  0.62014207  0.47404638  1
  O  O215  1  0.67612122  0.62610475  0.80854929  1
  O  O216  1  0.07685408  0.01278924  0.25661419  1
  O  O217  1  0.08518636  0.01192899  0.57552908  1
  O  O218  1  0.07726333  0.01078151  0.91552882  1
  O  O219  1  0.08121361  0.51336345  0.25289901  1
  O  O220  1  0.08332749  0.52218954  0.58244672  1
  O  O221  1  0.08595531  0.51954985  0.90858570  1
  O  O222  1  0.41427278  0.01844756  0.25688575  1
  O  O223  1  0.40767097  0.02266873  0.58613398  1
  O  O224  1  0.41565679  0.01362240  0.91789181  1
  O  O225  1  0.42079311  0.51979553  0.25431638  1
  O  O226  1  0.41583717  0.52574217  0.58364668  1
  O  O227  1  0.42215067  0.49987397  0.91088590  1
  O  O228  1  0.75827276  0.01063609  0.24147801  1
  O  O229  1  0.74417636  0.00607557  0.58332089  1
  O  O230  1  0.75470164  0.01448015  0.91157167  1
  O  O231  1  0.74502414  0.51580406  0.26010276  1
  O  O232  1  0.75149517  0.52306500  0.58197393  1
  O  O233  1  0.75631981  0.51448892  0.91080126  1
  O  O234  1  0.25059512  0.23796594  0.25331116  1
  O  O235  1  0.24295694  0.22366311  0.57508659  1
  O  O236  1  0.24162735  0.23144815  0.89958581  1
  O  O237  1  0.26356517  0.74024272  0.26610443  1
  O  O238  1  0.25623596  0.72300846  0.58432376  1
  O  O239  1  0.25296982  0.74109762  0.91739007  1
  O  O240  1  0.58299654  0.24065801  0.24847400  1
  O  O241  1  0.56473707  0.23778217  0.57407512  1
  O  O242  1  0.57551376  0.23647337  0.90669045  1
  O  O243  1  0.58546430  0.72879577  0.26007037  1
  O  O244  1  0.59077769  0.72610871  0.58945566  1
  O  O245  1  0.60242980  0.73711126  0.92888759  1
  O  O246  1  0.91450155  0.22547402  0.24819034  1
  O  O247  1  0.90623395  0.23276854  0.56865283  1
  O  O248  1  0.91290906  0.22770137  0.91390541  1
  O  O249  1  0.92582435  0.73510664  0.25879308  1
  O  O250  1  0.91981031  0.72701804  0.59386065  1
  O  O251  1  0.92749184  0.72677044  0.92778999  1
  O  O252  1  0.08147081  0.49624912  0.07821647  1
  O  O253  1  0.07585700  0.49131410  0.41378402  1
  O  O254  1  0.08308032  0.47787233  0.74733282  1
  O  O255  1  0.07871994  0.97667336  0.08568184  1
  O  O256  1  0.08440889  0.97368405  0.41732985  1
  O  O257  1  0.07349209  0.98372290  0.74577571  1
  O  O258  1  0.42281077  0.49975992  0.08886539  1
  O  O259  1  0.42026750  0.47867870  0.41875066  1
  O  O260  1  0.41644863  0.48004418  0.74782398  1
  O  O261  1  0.41841101  0.97708399  0.08436785  1
  O  O262  1  0.41618452  0.98134118  0.42134887  1
  O  O263  1  0.42321478  0.98525014  0.75701945  1
  O  O264  1  0.75495180  0.48727700  0.08803821  1
  O  O265  1  0.75281875  0.47307296  0.41915054  1
  O  O266  1  0.75477303  0.47727585  0.74864200  1
  O  O267  1  0.75000073  0.97343941  0.07746764  1
  O  O268  1  0.75165604  0.99212222  0.41367335  1
  O  O269  1  0.74498091  0.97735326  0.74974042  1
  O  O270  1  0.24975868  0.25151375  0.07501160  1
  O  O271  1  0.26371547  0.26570237  0.40939016  1
  O  O272  1  0.26073612  0.26123059  0.73651817  1
  O  O273  1  0.25046781  0.77410483  0.09609048  1
  O  O274  1  0.24161962  0.77035778  0.42583528  1
  O  O275  1  0.24492259  0.75002571  0.75148073  1
  O  O276  1  0.58866834  0.24981305  0.08097517  1
  O  O277  1  0.58834381  0.27220375  0.41254785  1
  O  O278  1  0.58160604  0.26940940  0.74436065  1
  O  O279  1  0.57766338  0.77576547  0.09079013  1
  O  O280  1  0.57064077  0.76364636  0.42715745  1
  O  O281  1  0.58031440  0.77307689  0.75702940  1
  O  O282  1  0.91215160  0.26107042  0.08675822  1
  O  O283  1  0.92145586  0.27732028  0.40887091  1
  O  O284  1  0.92022632  0.26804017  0.74445484  1
  O  O285  1  0.91089453  0.77533365  0.08748210  1
  O  O286  1  0.91786551  0.76188758  0.41857018  1
  O  O287  1  0.90042665  0.76048073  0.76517114  1
  O  O288  1  0.25244764  0.49461984  0.08344513  1
  O  O289  1  0.25661234  0.48898208  0.41620213  1
  O  O290  1  0.25208022  0.48838097  0.74787943  1
  O  O291  1  0.25133146  0.97797491  0.09051938  1
  O  O292  1  0.24523232  0.97892627  0.42076745  1
  O  O293  1  0.24851422  1.00022010  0.75058792  1
  O  O294  1  0.58844983  0.49918658  0.08466776  1
  O  O295  1  0.58742855  0.47784295  0.41476810  1
  O  O296  1  0.58267859  0.48386560  0.74849203  1
  O  O297  1  0.58468991  0.97984723  0.08090441  1
  O  O298  1  0.57906018  0.98089295  0.41575603  1
  O  O299  1  0.58411848  0.98018202  0.74790601  1
  O  O300  1  0.91343985  0.48663351  0.08941906  1
  O  O301  1  0.91324128  0.47527421  0.42136004  1
  O  O302  1  0.91707858  0.48174050  0.74958681  1
  O  O303  1  0.91307145  0.97308978  0.08425985  1
  O  O304  1  0.92608804  0.98388284  0.40723659  1
  O  O305  1  0.91030148  0.98582401  0.75546627  1
  O  O306  1  0.07896933  0.25249482  0.08224143  1
  O  O307  1  0.08146008  0.26014358  0.41701129  1
  O  O308  1  0.08988333  0.27321564  0.75243008  1
  O  O309  1  0.07726190  0.77311658  0.07885203  1
  O  O310  1  0.08256937  0.77061265  0.41283980  1
  O  O311  1  0.06145838  0.76391276  0.73813293  1
  O  O312  1  0.41988728  0.25197126  0.08533257  1
  O  O313  1  0.42486104  0.26733501  0.43090914  1
  O  O314  1  0.42222406  0.28021747  0.75500437  1
  O  O315  1  0.41467552  0.77570564  0.08350316  1
  O  O316  1  0.41040792  0.77158096  0.41113208  1
  O  O317  1  0.41597278  0.75978799  0.74744938  1
  O  O318  1  0.75728544  0.26095022  0.08889637  1
  O  O319  1  0.75624704  0.27121958  0.41571775  1
  O  O320  1  0.75875977  0.26571273  0.75573945  1
  O  O321  1  0.74668259  0.77322691  0.07188341  1
  O  O322  1  0.74118061  0.75764615  0.41188070  1
  O  O323  1  0.73783847  0.77368384  0.73830622  1
  O  O324  1  0.25368301  0.01193783  0.26006408  1
  O  O325  1  0.24519604  0.02228699  0.57953561  1
  O  O326  1  0.25028103  0.01933960  0.91319724  1
  O  O327  1  0.26031545  0.50898228  0.25803411  1
  O  O328  1  0.25096162  0.52822597  0.58700310  1
  O  O329  1  0.24693535  0.51200192  0.90877796  1
  O  O330  1  0.57754983  0.00628453  0.24310629  1
  O  O331  1  0.56775427  0.01463140  0.57622848  1
  O  O332  1  0.57877992  0.01438921  0.90987862  1
  O  O333  1  0.58448312  0.52316284  0.25236293  1
  O  O334  1  0.58395939  0.52054551  0.58022043  1
  O  O335  1  0.59202797  0.51405155  0.91892421  1
  O  O336  1  0.91434524  0.02423347  0.24714563  1
  O  O337  1  0.91013801  0.01417156  0.57356201  1
  O  O338  1  0.91640736  0.02472451  0.91887972  1
  O  O339  1  0.92435931  0.51585058  0.26281176  1
  O  O340  1  0.91629916  0.52983333  0.58601277  1
  O  O341  1  0.92202870  0.52230111  0.91938118  1
  O  O342  1  0.07448747  0.23611102  0.25556857  1
  O  O343  1  0.08141243  0.24103093  0.58481141  1
  O  O344  1  0.08076317  0.23249268  0.91559263  1
  O  O345  1  0.08560584  0.73930312  0.25180354  1
  O  O346  1  0.08839823  0.72358716  0.57539676  1
  O  O347  1  0.08433549  0.73050248  0.90436870  1
  O  O348  1  0.41099279  0.23844047  0.26433213  1
  O  O349  1  0.40440565  0.22693097  0.59288059  1
  O  O350  1  0.41501661  0.23481016  0.91396347  1
  O  O351  1  0.42607108  0.72699170  0.24802276  1
  O  O352  1  0.42087900  0.73108168  0.57666266  1
  O  O353  1  0.42366378  0.75144721  0.91642387  1
  O  O354  1  0.75529224  0.23603145  0.24871112  1
  O  O355  1  0.74958790  0.24225115  0.58109786  1
  O  O356  1  0.75228074  0.23149356  0.91723718  1
  O  O357  1  0.75177623  0.73898522  0.24991931  1
  O  O358  1  0.75395166  0.72574455  0.57976912  1
  O  O359  1  0.76451457  0.74106478  0.89926450  1
