# generated using pymatgen
data_Ba17Sr5La8Pr42Mn72O216
_symmetry_space_group_name_H-M   'P 1'
_cell_length_a   16.67423391
_cell_length_b   15.70373566
_cell_length_c   16.82507321
_cell_angle_alpha   89.99921713
_cell_angle_beta   89.99627490
_cell_angle_gamma   89.99225361
_symmetry_Int_Tables_number   1
_chemical_formula_structural   Ba17Sr5La8Pr42Mn72O216
_chemical_formula_sum   'Ba17 Sr5 La8 Pr42 Mn72 O216'
_cell_volume   4405.60770998
_cell_formula_units_Z   1
loop_
 _symmetry_equiv_pos_site_id
 _symmetry_equiv_pos_as_xyz
  1  'x, y, z'
loop_
 _atom_site_type_symbol
 _atom_site_label
 _atom_site_symmetry_multiplicity
 _atom_site_fract_x
 _atom_site_fract_y
 _atom_site_fract_z
 _atom_site_occupancy
  Ba  Ba0  1  0.50027044  0.62195412  0.83404862  1
  Ba  Ba1  1  0.16820200  0.12599168  0.16807473  1
  Ba  Ba2  1  0.00187131  0.12684130  0.33015657  1
  Ba  Ba3  1  0.00278051  0.87467914  0.33407765  1
  Ba  Ba4  1  0.50021734  0.62310251  0.16848195  1
  Ba  Ba5  1  0.49853596  0.87471694  0.83297783  1
  Ba  Ba6  1  0.66714942  0.12565274  1.00203469  1
  Ba  Ba7  1  0.16657912  0.12769016  0.50028372  1
  Ba  Ba8  1  0.83294272  0.62340285  0.50103003  1
  Ba  Ba9  1  0.66482558  0.87541010  0.33697708  1
  Ba  Ba10  1  -0.00267673  0.62366532  0.66592797  1
  Ba  Ba11  1  0.00057179  0.87504432  0.66774897  1
  Ba  Ba12  1  0.83408259  0.37265355  0.83304553  1
  Ba  Ba13  1  0.33449603  0.62417587  0.66508488  1
  Ba  Ba14  1  0.33209065  0.87684097  -0.00086178  1
  Ba  Ba15  1  0.66648820  0.87615658  0.66881054  1
  Ba  Ba16  1  0.33356884  0.87550137  0.66715847  1
  Sr  Sr17  1  0.00207152  0.37503978  0.33115713  1
  Sr  Sr18  1  -0.00040722  0.62258819  0.99663433  1
  Sr  Sr19  1  0.33623025  0.62328752  0.33202682  1
  Sr  Sr20  1  0.49779293  0.37019702  0.83230083  1
  Sr  Sr21  1  0.33118543  0.12583126  0.99787350  1
  La  La22  1  0.16449108  0.37792682  0.83357347  1
  La  La23  1  0.33593298  0.12796276  0.32804504  1
  La  La24  1  0.83362870  0.87596696  0.83173019  1
  La  La25  1  0.66666370  0.12751637  0.67009670  1
  La  La26  1  0.50341964  0.62476491  0.50386807  1
  La  La27  1  0.32989232  0.37387279  0.66748718  1
  La  La28  1  0.66209696  0.87481733  0.00416185  1
  La  La29  1  0.50137732  0.12222026  0.16709342  1
  Pr  Pr30  1  0.16437675  0.62595212  0.50295550  1
  Pr  Pr31  1  0.66982478  0.62448640  0.99745778  1
  Pr  Pr32  1  0.00255931  0.62405035  0.33162270  1
  Pr  Pr33  1  0.17029125  0.87415087  0.83116578  1
  Pr  Pr34  1  0.16499403  0.37329142  0.16283975  1
  Pr  Pr35  1  0.49797752  0.87301854  0.16293831  1
  Pr  Pr36  1  0.17137362  0.87133112  0.49871327  1
  Pr  Pr37  1  0.33143258  0.37670892  0.00084296  1
  Pr  Pr38  1  -0.00228187  0.37935742  0.00417868  1
  Pr  Pr39  1  0.50501936  0.12479821  0.49988876  1
  Pr  Pr40  1  0.66636673  0.62322654  0.66834680  1
  Pr  Pr41  1  0.66440539  0.37636459  0.33676761  1
  Pr  Pr42  1  -0.00155569  0.12852764  0.99844816  1
  Pr  Pr43  1  0.34057552  0.12559161  0.66409857  1
  Pr  Pr44  1  0.67114445  0.12488770  0.32897444  1
  Pr  Pr45  1  0.33064166  0.37702840  0.33097607  1
  Pr  Pr46  1  0.33371174  0.87456068  0.33350809  1
  Pr  Pr47  1  0.00260542  0.37694639  0.66477714  1
  Pr  Pr48  1  0.83573449  0.87593513  0.16449124  1
  Pr  Pr49  1  0.83325923  0.12501222  0.17150743  1
  Pr  Pr50  1  0.83393026  0.62706519  0.83353632  1
  Pr  Pr51  1  0.83085059  0.12237054  0.83423691  1
  Pr  Pr52  1  0.49517129  0.37370843  0.49854681  1
  Pr  Pr53  1  0.33277068  0.62498722  0.99210496  1
  Pr  Pr54  1  0.83575823  0.62435426  0.16994298  1
  Pr  Pr55  1  0.67128601  0.62592079  0.33191755  1
  Pr  Pr56  1  0.83566567  0.37635478  0.49764962  1
  Pr  Pr57  1  0.83473515  0.12158617  0.49860202  1
  Pr  Pr58  1  -0.00339454  0.13004228  0.66121285  1
  Pr  Pr59  1  0.16455005  0.63032701  0.83466976  1
  Pr  Pr60  1  0.49549453  0.37287949  0.16305303  1
  Pr  Pr61  1  0.16855640  0.62736409  0.16805196  1
  Pr  Pr62  1  0.66561584  0.37646331  0.67117646  1
  Pr  Pr63  1  0.16621945  0.38012472  0.49626149  1
  Pr  Pr64  1  0.16417366  0.11995723  0.83669037  1
  Pr  Pr65  1  0.50041762  0.12050976  0.83617221  1
  Pr  Pr66  1  0.83704073  0.87078322  0.49767039  1
  Pr  Pr67  1  0.83465254  0.37349846  0.16063768  1
  Pr  Pr68  1  0.00074189  0.87121917  0.00439129  1
  Pr  Pr69  1  0.16680500  0.87768754  0.16564158  1
  Pr  Pr70  1  0.49567844  0.87482278  0.49918716  1
  Pr  Pr71  1  0.65992763  0.37533549  0.00404526  1
  Mn  Mn72  1  -0.00030013  -0.00208321  0.16490764  1
  Mn  Mn73  1  0.00101555  0.00089899  0.50110095  1
  Mn  Mn74  1  -0.00068928  0.00106958  0.83501731  1
  Mn  Mn75  1  0.00081051  0.50241354  0.16645206  1
  Mn  Mn76  1  0.00055110  0.49781589  0.49704464  1
  Mn  Mn77  1  -0.00049552  0.49916689  0.83416354  1
  Mn  Mn78  1  0.33432657  0.00102422  0.16787790  1
  Mn  Mn79  1  0.33406429  0.00236193  0.49833454  1
  Mn  Mn80  1  0.33058117  0.00324886  0.83157039  1
  Mn  Mn81  1  0.33203097  0.50005035  0.16529977  1
  Mn  Mn82  1  0.33481661  0.49908743  0.49758540  1
  Mn  Mn83  1  0.33146271  0.49698652  0.83347944  1
  Mn  Mn84  1  0.66765388  -0.00061001  0.16897299  1
  Mn  Mn85  1  0.66669461  0.00213531  0.50124192  1
  Mn  Mn86  1  0.66694724  0.00112269  0.83541123  1
  Mn  Mn87  1  0.66767136  0.49875714  0.16811408  1
  Mn  Mn88  1  0.66587508  0.49674028  0.50151924  1
  Mn  Mn89  1  0.66708991  0.49745877  0.83524401  1
  Mn  Mn90  1  -0.00051739  0.25287545  0.16485128  1
  Mn  Mn91  1  -0.00047785  0.25199639  0.49799745  1
  Mn  Mn92  1  0.00106701  0.25025409  0.83066618  1
  Mn  Mn93  1  0.00065984  0.74726333  0.16645117  1
  Mn  Mn94  1  0.00110999  0.75051050  0.49929858  1
  Mn  Mn95  1  -0.00092354  0.74907180  0.83746214  1
  Mn  Mn96  1  0.33430048  0.25096858  0.16446622  1
  Mn  Mn97  1  0.33371947  0.25040782  0.49838134  1
  Mn  Mn98  1  0.32987190  0.25008753  0.83230759  1
  Mn  Mn99  1  0.33299668  0.74847576  0.16737201  1
  Mn  Mn100  1  0.33534456  0.74890447  0.49653414  1
  Mn  Mn101  1  0.33242130  0.74855626  0.83277395  1
  Mn  Mn102  1  0.66684700  0.25126145  0.16939910  1
  Mn  Mn103  1  0.66764004  0.24988265  0.50036072  1
  Mn  Mn104  1  0.66513379  0.25102943  0.83443723  1
  Mn  Mn105  1  0.66770226  0.74966188  0.16725192  1
  Mn  Mn106  1  0.66549791  0.74991897  0.50246542  1
  Mn  Mn107  1  0.66846989  0.74842712  0.83531613  1
  Mn  Mn108  1  0.16512142  0.24970169  -0.00256868  1
  Mn  Mn109  1  0.16856064  0.25345032  0.33247625  1
  Mn  Mn110  1  0.16617032  0.25081861  0.66885199  1
  Mn  Mn111  1  0.16543880  0.74956462  0.00206114  1
  Mn  Mn112  1  0.17024900  0.74751602  0.33324450  1
  Mn  Mn113  1  0.16620994  0.74945912  0.66642019  1
  Mn  Mn114  1  0.49714843  0.24949799  -0.00220324  1
  Mn  Mn115  1  0.50170140  0.25190287  0.33219692  1
  Mn  Mn116  1  0.50037513  0.25106827  0.66594655  1
  Mn  Mn117  1  0.49959112  0.74861997  0.00224608  1
  Mn  Mn118  1  0.49971551  0.74895376  0.33469405  1
  Mn  Mn119  1  0.50141739  0.74809788  0.66710629  1
  Mn  Mn120  1  0.83350829  0.24992567  -0.00123545  1
  Mn  Mn121  1  0.83292573  0.25445557  0.33246489  1
  Mn  Mn122  1  0.83217156  0.25000661  0.66389219  1
  Mn  Mn123  1  0.83308654  0.74956429  0.00003482  1
  Mn  Mn124  1  0.83428464  0.74823236  0.33275696  1
  Mn  Mn125  1  0.83206636  0.75055388  0.66761637  1
  Mn  Mn126  1  0.16404932  0.00067186  0.00026790  1
  Mn  Mn127  1  0.16933954  -0.00067820  0.33393217  1
  Mn  Mn128  1  0.16588490  0.00279102  0.66770941  1
  Mn  Mn129  1  0.16583952  0.50032278  -0.00023333  1
  Mn  Mn130  1  0.16813765  0.50127809  0.33153941  1
  Mn  Mn131  1  0.16648382  0.49903671  0.66508180  1
  Mn  Mn132  1  0.49846757  0.00177370  0.00154432  1
  Mn  Mn133  1  0.49947486  0.00136623  0.33404750  1
  Mn  Mn134  1  0.50127780  0.00380098  0.66607458  1
  Mn  Mn135  1  0.49904986  0.49789029  0.00096301  1
  Mn  Mn136  1  0.50123631  0.49782062  0.33435852  1
  Mn  Mn137  1  0.50047521  0.49639964  0.66627547  1
  Mn  Mn138  1  0.83512820  0.00001177  -0.00026666  1
  Mn  Mn139  1  0.83366782  -0.00087214  0.33440964  1
  Mn  Mn140  1  0.83319406  0.00250547  0.66688664  1
  Mn  Mn141  1  0.83223487  0.50056969  0.00034176  1
  Mn  Mn142  1  0.83416422  0.49865786  0.33106247  1
  Mn  Mn143  1  0.83152712  0.49693623  0.66658946  1
  O  O144  1  0.15898307  0.12617833  0.01402635  1
  O  O145  1  0.17467600  0.13080352  0.34219721  1
  O  O146  1  0.15868788  0.12987279  0.69282714  1
  O  O147  1  0.17190651  0.62252449  0.02548919  1
  O  O148  1  0.16415884  0.62319650  0.35940998  1
  O  O149  1  0.16567615  0.62018754  0.68848991  1
  O  O150  1  0.49484226  0.12794970  0.02311274  1
  O  O151  1  0.49486939  0.12931429  0.35733086  1
  O  O152  1  0.49658023  0.13086264  0.68974703  1
  O  O153  1  0.49504408  0.62101940  0.01151043  1
  O  O154  1  0.50094031  0.61804719  0.35885528  1
  O  O155  1  0.50470710  0.61626430  0.67528460  1
  O  O156  1  0.84028775  0.12372983  0.02893795  1
  O  O157  1  0.82731307  0.13121247  0.35373089  1
  O  O158  1  0.84084867  0.12789149  0.69050771  1
  O  O159  1  0.82369292  0.62396313  0.02810627  1
  O  O160  1  0.82872294  0.62237914  0.34525202  1
  O  O161  1  0.82654776  0.62022024  0.68818500  1
  O  O162  1  0.17489383  0.37948730  0.30667985  1
  O  O163  1  0.16658887  0.37460399  0.64024557  1
  O  O164  1  0.16557216  0.37483719  0.97649650  1
  O  O165  1  0.17669075  0.86865949  0.30929314  1
  O  O166  1  0.16783064  0.87722554  0.64390101  1
  O  O167  1  0.15778392  0.87583988  0.97539009  1
  O  O168  1  0.51081685  0.37388700  0.30529816  1
  O  O169  1  0.50546008  0.37190525  0.64138375  1
  O  O170  1  0.50543198  0.37335436  0.98242379  1
  O  O171  1  0.49593246  0.88053762  0.30741178  1
  O  O172  1  0.50177121  0.88224484  0.64407862  1
  O  O173  1  0.50770271  0.87612611  0.99333912  1
  O  O174  1  0.82702947  0.37740287  0.30445706  1
  O  O175  1  0.82211952  0.37068225  0.64188294  1
  O  O176  1  0.83753548  0.37697398  0.98835985  1
  O  O177  1  0.83368939  0.86964353  0.31016485  1
  O  O178  1  0.83094903  0.88217936  0.64311160  1
  O  O179  1  0.84036244  0.87504112  0.97373754  1
  O  O180  1  -0.00493720  0.38089127  0.18169271  1
  O  O181  1  0.00354965  0.37433753  0.51960936  1
  O  O182  1  0.00392642  0.37355829  0.86165124  1
  O  O183  1  -0.00529769  0.87047496  0.17880706  1
  O  O184  1  -0.00264935  0.87706296  0.50983755  1
  O  O185  1  -0.00775812  0.87482294  0.86181368  1
  O  O186  1  0.33092689  0.37590518  0.18683969  1
  O  O187  1  0.33427130  0.37296475  0.52304304  1
  O  O188  1  0.32730053  0.37219571  0.85791547  1
  O  O189  1  0.33340898  0.87594672  0.18844666  1
  O  O190  1  0.33467215  0.87825813  0.51198926  1
  O  O191  1  0.32462639  0.87502113  0.84168260  1
  O  O192  1  0.66690778  0.37477612  0.19374533  1
  O  O193  1  0.66966877  0.37078574  0.52842052  1
  O  O194  1  0.66493100  0.37310774  0.85953478  1
  O  O195  1  0.66514802  0.87548558  0.18042528  1
  O  O196  1  0.66464208  0.87860213  0.51352682  1
  O  O197  1  0.67440566  0.87284935  0.85701863  1
  O  O198  1  -0.00578149  0.12449029  0.14405187  1
  O  O199  1  -0.00691286  0.12863650  0.48652887  1
  O  O200  1  0.00675433  0.12824885  0.80409492  1
  O  O201  1  0.00559010  0.62505235  0.14407518  1
  O  O202  1  0.00745266  0.62138163  0.47693183  1
  O  O203  1  0.00163302  0.62299008  0.82148182  1
  O  O204  1  0.33988035  0.12796385  0.14993334  1
  O  O205  1  0.34059206  0.12759998  0.47109030  1
  O  O206  1  0.32244419  0.12996591  0.80724175  1
  O  O207  1  0.32711590  0.62054214  0.13758805  1
  O  O208  1  0.33774962  0.62158811  0.48042590  1
  O  O209  1  0.32560295  0.62214224  0.82484189  1
  O  O210  1  0.67184365  0.12615561  0.15655351  1
  O  O211  1  0.66451251  0.12862153  0.47075318  1
  O  O212  1  0.66669681  0.12918934  0.81654916  1
  O  O213  1  0.67470363  0.62297612  0.14116379  1
  O  O214  1  0.65910618  0.61993869  0.47462928  1
  O  O215  1  0.67440389  0.62174608  0.81445548  1
  O  O216  1  0.08716200  0.00164161  0.24572329  1
  O  O217  1  0.07827444  0.01808995  0.59306778  1
  O  O218  1  0.07617240  0.02259725  0.92112446  1
  O  O219  1  0.08495126  0.52281648  0.24975169  1
  O  O220  1  0.08782698  0.51169818  0.57655256  1
  O  O221  1  0.08792368  0.51639466  0.91535233  1
  O  O222  1  0.42146927  0.02361107  0.24959586  1
  O  O223  1  0.42331722  0.02404913  0.57608080  1
  O  O224  1  0.41407804  0.01966230  0.91216299  1
  O  O225  1  0.41522081  0.50465764  0.25151187  1
  O  O226  1  0.42400390  0.50601920  0.57371337  1
  O  O227  1  0.40873817  0.50574284  0.92427248  1
  O  O228  1  0.75099355  0.01847294  0.25159492  1
  O  O229  1  0.75039266  0.02818869  0.58546242  1
  O  O230  1  0.75670853  0.01439545  0.91512799  1
  O  O231  1  0.75471919  0.52007072  0.24395858  1
  O  O232  1  0.74381874  0.51369123  0.58738593  1
  O  O233  1  0.75238310  0.52164726  0.91750766  1
  O  O234  1  0.26270718  0.24215891  0.25688526  1
  O  O235  1  0.25662664  0.23476622  0.59499902  1
  O  O236  1  0.24521256  0.23216162  0.91420216  1
  O  O237  1  0.24816291  0.72593583  0.24763331  1
  O  O238  1  0.24674424  0.73650801  0.57115973  1
  O  O239  1  0.24565213  0.73115906  0.91932803  1
  O  O240  1  0.58755778  0.22739778  0.25591806  1
  O  O241  1  0.58627258  0.22639571  0.58259334  1
  O  O242  1  0.57758764  0.23370942  0.91284908  1
  O  O243  1  0.58955379  0.73136402  0.26173684  1
  O  O244  1  0.58581722  0.72760880  0.58570489  1
  O  O245  1  0.59302489  0.73692823  0.92651057  1
  O  O246  1  0.90847553  0.23927173  0.24028073  1
  O  O247  1  0.91034889  0.23667700  0.57627886  1
  O  O248  1  0.91855683  0.22484737  0.90975264  1
  O  O249  1  0.91995804  0.72430573  0.24854136  1
  O  O250  1  0.91208770  0.74633883  0.58083228  1
  O  O251  1  0.91342347  0.72763892  0.91823334  1
  O  O252  1  0.08381869  0.47761033  0.08279724  1
  O  O253  1  0.08719736  0.48061505  0.41446722  1
  O  O254  1  0.08305617  0.47683828  0.74734548  1
  O  O255  1  0.08120964  0.97649361  0.08214396  1
  O  O256  1  0.08984318  0.98700484  0.42371810  1
  O  O257  1  0.08736882  0.98138072  0.76534410  1
  O  O258  1  0.41524514  0.47557238  0.08351149  1
  O  O259  1  0.41661227  0.47214771  0.41342388  1
  O  O260  1  0.41398881  0.47786839  0.74518982  1
  O  O261  1  0.42144107  0.98604534  0.09204333  1
  O  O262  1  0.41331149  0.97966991  0.41106828  1
  O  O263  1  0.41440801  1.00226163  0.74647554  1
  O  O264  1  0.74460769  0.47464782  0.08142751  1
  O  O265  1  0.74623771  0.47717007  0.41626232  1
  O  O266  1  0.74449265  0.48210099  0.74628476  1
  O  O267  1  0.75537005  0.97841564  0.08344596  1
  O  O268  1  0.75309574  0.98962912  0.42467698  1
  O  O269  1  0.75405640  0.99444480  0.75368864  1
  O  O270  1  0.24672141  0.27133308  0.08332706  1
  O  O271  1  0.24893961  0.27566807  0.41872153  1
  O  O272  1  0.24582730  0.27595517  0.75200895  1
  O  O273  1  0.24296732  0.76642962  0.08979962  1
  O  O274  1  0.25469792  0.76913047  0.41193933  1
  O  O275  1  0.24332679  0.75868371  0.75537545  1
  O  O276  1  0.58207835  0.26966456  0.09032711  1
  O  O277  1  0.58188922  0.27276673  0.42028715  1
  O  O278  1  0.58405846  0.26715594  0.74704943  1
  O  O279  1  0.58317896  0.76501066  0.08981636  1
  O  O280  1  0.57398090  0.76379765  0.42842613  1
  O  O281  1  0.58845872  0.75273348  0.75195274  1
  O  O282  1  0.91937965  0.27075162  0.07803693  1
  O  O283  1  0.91293309  0.27371291  0.41432120  1
  O  O284  1  0.92606536  0.26755474  0.73835086  1
  O  O285  1  0.91258081  0.76692862  0.08364925  1
  O  O286  1  0.91588939  0.75901942  0.41562058  1
  O  O287  1  0.91270898  0.76055313  0.75783142  1
  O  O288  1  0.24876126  0.47418852  0.08074878  1
  O  O289  1  0.25226029  0.47865739  0.41345511  1
  O  O290  1  0.24809999  0.47724271  0.74905346  1
  O  O291  1  0.24399508  0.98558105  0.09033902  1
  O  O292  1  0.24963900  0.97893289  0.42002421  1
  O  O293  1  0.24302961  0.99048902  0.75504352  1
  O  O294  1  0.58064595  0.47700843  0.09117217  1
  O  O295  1  0.58073921  0.47168775  0.42334171  1
  O  O296  1  0.58400431  0.48023571  0.75001743  1
  O  O297  1  0.58327493  0.98747082  0.09064195  1
  O  O298  1  0.57195902  0.98984732  0.42571923  1
  O  O299  1  0.58201027  1.00059809  0.75058188  1
  O  O300  1  0.91295377  0.48568507  0.08616164  1
  O  O301  1  0.91512756  0.48063649  0.41498573  1
  O  O302  1  0.91873637  0.48193470  0.74409060  1
  O  O303  1  0.91831820  0.97571754  0.07845992  1
  O  O304  1  0.91042811  0.98834962  0.42123994  1
  O  O305  1  0.91267660  0.98817749  0.75709919  1
  O  O306  1  0.08074336  0.27389159  0.07858169  1
  O  O307  1  0.08695485  0.27021744  0.41880025  1
  O  O308  1  0.08488781  0.27870063  0.75226613  1
  O  O309  1  0.08430607  0.77105084  0.08582011  1
  O  O310  1  0.09496062  0.76248930  0.42243203  1
  O  O311  1  0.08659415  0.76375244  0.76303473  1
  O  O312  1  0.41227021  0.27509207  0.07841094  1
  O  O313  1  0.41597951  0.27682215  0.40701309  1
  O  O314  1  0.40764032  0.26670649  0.74111078  1
  O  O315  1  0.41840395  0.76385708  0.08978441  1
  O  O316  1  0.41619333  0.77233576  0.41345523  1
  O  O317  1  0.41800865  0.75405186  0.74751951  1
  O  O318  1  0.74814694  0.27178999  0.08739015  1
  O  O319  1  0.74866827  0.27570914  0.41657636  1
  O  O320  1  0.74370537  0.26047127  0.74272941  1
  O  O321  1  0.75043633  0.77564384  0.07832407  1
  O  O322  1  0.75172083  0.76221685  0.42269137  1
  O  O323  1  0.75658544  0.76261709  0.75970021  1
  O  O324  1  0.26202051  0.01135299  0.25860388  1
  O  O325  1  0.25967973  0.02182615  0.58732321  1
  O  O326  1  0.24322128  0.01561274  0.91511910  1
  O  O327  1  0.24688652  0.52075711  0.24449404  1
  O  O328  1  0.24647393  0.51120123  0.57537403  1
  O  O329  1  0.24645005  0.51830729  0.91886722  1
  O  O330  1  0.58413667  0.02335965  0.25715071  1
  O  O331  1  0.58641370  0.02781602  0.58511013  1
  O  O332  1  0.57969318  0.01420641  0.91576841  1
  O  O333  1  0.59606937  0.51651219  0.26265525  1
  O  O334  1  0.58700708  0.51489552  0.58446778  1
  O  O335  1  0.59245400  0.51107147  0.92945542  1
  O  O336  1  0.91049195  0.01228501  0.23978933  1
  O  O337  1  0.91472335  0.02221170  0.58398288  1
  O  O338  1  0.91646658  0.02921804  0.91646572  1
  O  O339  1  0.92126927  0.52381091  0.24968438  1
  O  O340  1  0.91431998  0.49745001  0.58133860  1
  O  O341  1  0.91364002  0.51735217  0.91816263  1
  O  O342  1  0.08625699  0.25114919  0.24585381  1
  O  O343  1  0.07575445  0.23987151  0.59349691  1
  O  O344  1  0.08111610  0.22895490  0.91437451  1
  O  O345  1  0.08540308  0.72726504  0.25300795  1
  O  O346  1  0.08741172  0.73560911  0.58135778  1
  O  O347  1  0.08311883  0.73108432  0.92112807  1
  O  O348  1  0.42660297  0.23707227  0.24175581  1
  O  O349  1  0.42243634  0.23095269  0.57591283  1
  O  O350  1  0.41467850  0.23007289  0.90748986  1
  O  O351  1  0.41398827  0.73984344  0.25255239  1
  O  O352  1  0.42439086  0.74051972  0.57182480  1
  O  O353  1  0.41009684  0.73773313  0.92043348  1
  O  O354  1  0.74922456  0.23177306  0.25155671  1
  O  O355  1  0.75008260  0.22177192  0.57905645  1
  O  O356  1  0.75522026  0.23340827  0.91368124  1
  O  O357  1  0.75395866  0.72941393  0.24519565  1
  O  O358  1  0.74276839  0.73353905  0.59033560  1
  O  O359  1  0.75264459  0.72602195  0.91805041  1
