# generated using pymatgen
data_Ba17Sr5La8Pr42Mn72O216
_symmetry_space_group_name_H-M   'P 1'
_cell_length_a   16.67294771
_cell_length_b   15.70058365
_cell_length_c   16.81447092
_cell_angle_alpha   89.99966062
_cell_angle_beta   89.99546634
_cell_angle_gamma   90.02806095
_symmetry_Int_Tables_number   1
_chemical_formula_structural   Ba17Sr5La8Pr42Mn72O216
_chemical_formula_sum   'Ba17 Sr5 La8 Pr42 Mn72 O216'
_cell_volume   4401.60775532
_cell_formula_units_Z   1
loop_
 _symmetry_equiv_pos_site_id
 _symmetry_equiv_pos_as_xyz
  1  'x, y, z'
loop_
 _atom_site_type_symbol
 _atom_site_label
 _atom_site_symmetry_multiplicity
 _atom_site_fract_x
 _atom_site_fract_y
 _atom_site_fract_z
 _atom_site_occupancy
  Ba  Ba0  1  0.66546847  0.12669434  0.99743952  1
  Ba  Ba1  1  0.33223135  0.12238199  0.66726178  1
  Ba  Ba2  1  0.16225973  0.62465310  0.49887396  1
  Ba  Ba3  1  0.66795989  0.87568130  0.33484151  1
  Ba  Ba4  1  0.67186241  0.87605740  0.66350195  1
  Ba  Ba5  1  -0.00095628  0.87567395  0.33535288  1
  Ba  Ba6  1  0.00392483  0.37549537  -0.00033078  1
  Ba  Ba7  1  0.33485249  0.37487583  0.33493362  1
  Ba  Ba8  1  0.16415589  0.12539985  0.50162850  1
  Ba  Ba9  1  0.49883765  0.62479556  0.16764134  1
  Ba  Ba10  1  0.16840685  0.37504562  0.50008549  1
  Ba  Ba11  1  0.33486383  0.87413303  0.66683924  1
  Ba  Ba12  1  0.33359430  0.37500438  0.66985836  1
  Ba  Ba13  1  0.83633295  0.87603737  0.16703121  1
  Ba  Ba14  1  0.17054360  0.37362902  0.16478381  1
  Ba  Ba15  1  -0.00013182  0.62539960  0.99909313  1
  Ba  Ba16  1  0.16796020  0.37494716  0.83430363  1
  Sr  Sr17  1  0.83331595  0.87559233  0.49320162  1
  Sr  Sr18  1  0.66348590  0.62621598  0.99901676  1
  Sr  Sr19  1  0.00670257  0.87297059  0.00674966  1
  Sr  Sr20  1  0.33039489  0.62594249  1.00295471  1
  Sr  Sr21  1  0.33767109  0.87342426  0.33704263  1
  La  La22  1  0.82715114  0.62586682  0.83681826  1
  La  La23  1  0.66572003  0.62708484  0.32882012  1
  La  La24  1  0.50827245  0.87475347  0.83341262  1
  La  La25  1  0.50873371  0.87311821  0.16810495  1
  La  La26  1  0.16480691  0.62471039  0.83487941  1
  La  La27  1  -0.00294058  0.62466105  0.33146317  1
  La  La28  1  0.32876995  0.12355432  0.99904216  1
  La  La29  1  0.83744740  0.87586387  0.83277149  1
  Pr  Pr30  1  0.17496992  0.87398813  0.16363053  1
  Pr  Pr31  1  0.83450321  0.62572658  0.16572001  1
  Pr  Pr32  1  0.66106773  0.62507723  0.66482851  1
  Pr  Pr33  1  0.66590897  0.37744179  0.33229313  1
  Pr  Pr34  1  0.49773833  0.12339331  0.50131413  1
  Pr  Pr35  1  0.49482457  0.62647318  0.50064586  1
  Pr  Pr36  1  0.83518732  0.37547427  0.16010024  1
  Pr  Pr37  1  0.16096475  0.62407729  0.16852051  1
  Pr  Pr38  1  0.16279520  0.12406994  0.83133002  1
  Pr  Pr39  1  0.34350495  0.87326380  0.00358154  1
  Pr  Pr40  1  0.49154995  0.62712083  0.84169131  1
  Pr  Pr41  1  0.15741995  0.12463329  0.17012989  1
  Pr  Pr42  1  0.83327765  0.37551977  0.49524853  1
  Pr  Pr43  1  0.83457947  0.12553596  0.16719227  1
  Pr  Pr44  1  0.67335016  0.87379214  0.00421064  1
  Pr  Pr45  1  -0.00600630  0.62088755  0.66473893  1
  Pr  Pr46  1  0.83839308  0.37325570  0.83002312  1
  Pr  Pr47  1  0.66488926  0.12635456  0.66310298  1
  Pr  Pr48  1  -0.00266066  0.12885767  0.66278629  1
  Pr  Pr49  1  0.50449615  0.37676213  0.16322001  1
  Pr  Pr50  1  0.00234891  0.87553050  0.66618356  1
  Pr  Pr51  1  0.49658226  0.12567614  0.17149637  1
  Pr  Pr52  1  0.66908047  0.37603668  0.66793706  1
  Pr  Pr53  1  0.32257773  0.12404516  0.33333110  1
  Pr  Pr54  1  0.17616138  0.87637083  0.49452815  1
  Pr  Pr55  1  0.49301544  0.12296978  0.83443332  1
  Pr  Pr56  1  0.17061082  0.87118053  0.83483890  1
  Pr  Pr57  1  0.50470234  0.37489278  0.83280883  1
  Pr  Pr58  1  0.82794628  0.62979025  0.50009007  1
  Pr  Pr59  1  0.67106196  0.37793980  0.00026942  1
  Pr  Pr60  1  0.82995590  0.12396735  0.83303038  1
  Pr  Pr61  1  0.83102282  0.12100161  0.49876306  1
  Pr  Pr62  1  0.50228706  0.87830254  0.49771449  1
  Pr  Pr63  1  0.50026096  0.37166167  0.50014381  1
  Pr  Pr64  1  0.00406671  0.37564912  0.33412747  1
  Pr  Pr65  1  0.33885113  0.37601405  0.00523689  1
  Pr  Pr66  1  -0.00268577  0.12471477  0.99811917  1
  Pr  Pr67  1  0.32064603  0.62521727  0.32832308  1
  Pr  Pr68  1  0.00736751  0.37401751  0.66937814  1
  Pr  Pr69  1  0.66557433  0.12430502  0.32662806  1
  Pr  Pr70  1  -0.00363833  0.12600601  0.33374657  1
  Pr  Pr71  1  0.32408475  0.62525336  0.66733189  1
  Mn  Mn72  1  0.00131519  -0.00060909  0.16516572  1
  Mn  Mn73  1  -0.00192610  -0.00047110  0.50194638  1
  Mn  Mn74  1  0.00021088  -0.00159562  0.83414333  1
  Mn  Mn75  1  -0.00044647  0.50034927  0.16713971  1
  Mn  Mn76  1  -0.00531085  0.49920999  0.49947906  1
  Mn  Mn77  1  -0.00172664  0.50065180  0.83071907  1
  Mn  Mn78  1  0.33578659  -0.00054188  0.16716452  1
  Mn  Mn79  1  0.33459239  -0.00114806  0.49858418  1
  Mn  Mn80  1  0.33215951  -0.00149949  0.83669578  1
  Mn  Mn81  1  0.33469885  0.50098856  0.16711039  1
  Mn  Mn82  1  0.33572966  0.50184840  0.50076976  1
  Mn  Mn83  1  0.33432688  0.50147414  0.83649632  1
  Mn  Mn84  1  0.66750142  0.00188668  0.16430344  1
  Mn  Mn85  1  0.66652968  0.00336825  0.49820705  1
  Mn  Mn86  1  0.66739860  0.00100524  0.83275543  1
  Mn  Mn87  1  0.66854568  0.50008267  0.16588992  1
  Mn  Mn88  1  0.66468918  0.49878703  0.49950417  1
  Mn  Mn89  1  0.66582959  0.49950389  0.83224138  1
  Mn  Mn90  1  -0.00118706  0.24905297  0.16630291  1
  Mn  Mn91  1  -0.00423443  0.25158404  0.49920592  1
  Mn  Mn92  1  -0.00086807  0.24700647  0.83122160  1
  Mn  Mn93  1  0.00117144  0.75069794  0.16665730  1
  Mn  Mn94  1  -0.00328336  0.74971239  0.50183519  1
  Mn  Mn95  1  -0.00062693  0.75303335  0.83275945  1
  Mn  Mn96  1  0.33680001  0.24720020  0.16641298  1
  Mn  Mn97  1  0.33527468  0.24952344  0.50069034  1
  Mn  Mn98  1  0.33362257  0.24806083  0.83735259  1
  Mn  Mn99  1  0.33403101  0.75165306  0.16885523  1
  Mn  Mn100  1  0.33446668  0.74823153  0.49984896  1
  Mn  Mn101  1  0.33358382  0.75087727  0.83561386  1
  Mn  Mn102  1  0.66697369  0.25061286  0.16481906  1
  Mn  Mn103  1  0.66680780  0.25116271  0.49737361  1
  Mn  Mn104  1  0.66612426  0.25055696  0.83076796  1
  Mn  Mn105  1  0.66861667  0.74877960  0.16520896  1
  Mn  Mn106  1  0.66464000  0.74781616  0.49925972  1
  Mn  Mn107  1  0.66739811  0.74976531  0.83333154  1
  Mn  Mn108  1  0.16936908  0.24690678  0.00043794  1
  Mn  Mn109  1  0.16489693  0.24852650  0.33310861  1
  Mn  Mn110  1  0.16604250  0.24869993  0.66776143  1
  Mn  Mn111  1  0.17027152  0.75026489  0.00041746  1
  Mn  Mn112  1  0.16500333  0.75228655  0.33263091  1
  Mn  Mn113  1  0.16262520  0.75117551  0.66640042  1
  Mn  Mn114  1  0.50032942  0.24953263  0.00063505  1
  Mn  Mn115  1  0.50070142  0.24973021  0.33411368  1
  Mn  Mn116  1  0.50174432  0.25089979  0.66751645  1
  Mn  Mn117  1  0.50158416  0.74988842  0.00038306  1
  Mn  Mn118  1  0.49887104  0.74937160  0.33595072  1
  Mn  Mn119  1  0.50092753  0.74799126  0.66930578  1
  Mn  Mn120  1  0.83398459  0.25005737  -0.00238306  1
  Mn  Mn121  1  0.83202542  0.25244989  0.33112908  1
  Mn  Mn122  1  0.83132997  0.25045446  0.66315106  1
  Mn  Mn123  1  0.83302973  0.74918539  -0.00120315  1
  Mn  Mn124  1  0.83303414  0.74785756  0.33488236  1
  Mn  Mn125  1  0.83373129  0.75001149  0.66721841  1
  Mn  Mn126  1  0.16893135  -0.00006760  0.00066669  1
  Mn  Mn127  1  0.16553117  -0.00074775  0.33217695  1
  Mn  Mn128  1  0.16357039  -0.00288740  0.66721942  1
  Mn  Mn129  1  0.17047370  0.50163237  0.00032503  1
  Mn  Mn130  1  0.16493815  0.49978438  0.33324665  1
  Mn  Mn131  1  0.16474105  0.50181728  0.66793156  1
  Mn  Mn132  1  0.50080287  -0.00017895  0.00199263  1
  Mn  Mn133  1  0.49855697  0.00212748  0.33421832  1
  Mn  Mn134  1  0.50276925  -0.00125997  0.66783798  1
  Mn  Mn135  1  0.50021065  0.50084424  -0.00142322  1
  Mn  Mn136  1  0.50065461  0.49950661  0.33579861  1
  Mn  Mn137  1  0.50031646  0.50308800  0.66929281  1
  Mn  Mn138  1  0.83531403  0.00113844  -0.00206230  1
  Mn  Mn139  1  0.83297046  0.00286054  0.33397672  1
  Mn  Mn140  1  0.83513231  0.00021829  0.66546894  1
  Mn  Mn141  1  0.83153447  0.50016902  -0.00203577  1
  Mn  Mn142  1  0.83282095  0.49795111  0.33155709  1
  Mn  Mn143  1  0.83096931  0.49874601  0.66517133  1
  O  O144  1  0.17192021  0.12192205  0.02639363  1
  O  O145  1  0.16442034  0.12329706  0.34346176  1
  O  O146  1  0.15453083  0.12125290  0.68472672  1
  O  O147  1  0.17188137  0.62924853  0.02340763  1
  O  O148  1  0.16479845  0.62678038  0.34039144  1
  O  O149  1  0.16055410  0.62868917  0.68674030  1
  O  O150  1  0.49537276  0.12321278  0.02664574  1
  O  O151  1  0.51193967  0.12798175  0.35719615  1
  O  O152  1  0.50930875  0.12784201  0.69144326  1
  O  O153  1  0.50235427  0.62520406  0.00963383  1
  O  O154  1  0.51077368  0.62060060  0.35539961  1
  O  O155  1  0.51004363  0.62460335  0.69851941  1
  O  O156  1  0.83932387  0.12775099  0.02133468  1
  O  O157  1  0.83234830  0.13221426  0.35591614  1
  O  O158  1  0.83362864  0.12744644  0.69078662  1
  O  O159  1  0.82869565  0.62284555  0.01860636  1
  O  O160  1  0.83325399  0.61790207  0.35710192  1
  O  O161  1  0.83468877  0.61962008  0.69444952  1
  O  O162  1  0.15884945  0.37241605  0.32280696  1
  O  O163  1  0.15946479  0.37622192  0.66012713  1
  O  O164  1  0.17733142  0.37078901  0.99031229  1
  O  O165  1  0.16895104  0.87727621  0.30918019  1
  O  O166  1  0.15806990  0.87217186  0.63953246  1
  O  O167  1  0.17010169  0.87689193  0.97801351  1
  O  O168  1  0.50267731  0.37311243  0.30743429  1
  O  O169  1  0.50580105  0.37807121  0.64367988  1
  O  O170  1  0.49584935  0.37528572  0.97671872  1
  O  O171  1  0.49584587  0.87981464  0.31241530  1
  O  O172  1  0.50248995  0.86947330  0.64198299  1
  O  O173  1  0.50153548  0.87559059  0.97862052  1
  O  O174  1  0.82991529  0.37449262  0.30176261  1
  O  O175  1  0.82482135  0.37438986  0.63632312  1
  O  O176  1  0.82998730  0.37388391  0.97591962  1
  O  O177  1  0.83253567  0.87582814  0.32626590  1
  O  O178  1  0.84120854  0.87920856  0.64319019  1
  O  O179  1  0.82746546  0.87634384  0.97815217  1
  O  O180  1  -0.00894487  0.37365737  0.18923406  1
  O  O181  1  -0.01363793  0.37555206  0.52512080  1
  O  O182  1  -0.00848428  0.37103879  0.84293645  1
  O  O183  1  0.00717897  0.87651387  0.17708811  1
  O  O184  1  -0.00963216  0.87471959  0.52215503  1
  O  O185  1  -0.00948062  0.87804353  0.85855480  1
  O  O186  1  0.34225352  0.37303409  0.17829017  1
  O  O187  1  0.34242427  0.37806537  0.51118982  1
  O  O188  1  0.33713327  0.37302566  0.85834756  1
  O  O189  1  0.32828879  0.87732207  0.18915338  1
  O  O190  1  0.33165810  0.87252049  0.50838507  1
  O  O191  1  0.32288636  0.87499625  0.85845112  1
  O  O192  1  0.66922879  0.37407351  0.18905305  1
  O  O193  1  0.66787654  0.37498111  0.52662964  1
  O  O194  1  0.66016459  0.37344116  0.85708504  1
  O  O195  1  0.66431014  0.87693017  0.17635815  1
  O  O196  1  0.66145867  0.87668536  0.50927855  1
  O  O197  1  0.66564277  0.87642161  0.85868892  1
  O  O198  1  -0.00112181  0.12441968  0.14380883  1
  O  O199  1  -0.00614964  0.12912806  0.47820488  1
  O  O200  1  0.00043309  0.12150982  0.80634152  1
  O  O201  1  0.00186922  0.62502708  0.15747204  1
  O  O202  1  -0.00855110  0.62063875  0.47728442  1
  O  O203  1  -0.00095087  0.62918228  0.80957624  1
  O  O204  1  0.34596884  0.12167903  0.14077756  1
  O  O205  1  0.34339669  0.12237665  0.48130629  1
  O  O206  1  0.34579427  0.12215272  0.82562809  1
  O  O207  1  0.32860406  0.62822593  0.15277580  1
  O  O208  1  0.34280913  0.62603915  0.47499966  1
  O  O209  1  0.34400006  0.62940102  0.81226906  1
  O  O210  1  0.66374962  0.12807591  0.15254776  1
  O  O211  1  0.66658844  0.13164526  0.47022949  1
  O  O212  1  0.67089834  0.12820396  0.80785759  1
  O  O213  1  0.67349594  0.62146212  0.14945863  1
  O  O214  1  0.66585164  0.61825767  0.47281123  1
  O  O215  1  0.67269680  0.62231608  0.80806707  1
  O  O216  1  0.07596324  0.02224868  0.25449058  1
  O  O217  1  0.06803177  0.01156450  0.59664740  1
  O  O218  1  0.07832613  0.02284431  0.92221939  1
  O  O219  1  0.07793170  0.51290690  0.25353606  1
  O  O220  1  0.06945126  0.51076548  0.58893596  1
  O  O221  1  0.08663659  0.51328513  0.91376413  1
  O  O222  1  0.41391997  0.02693842  0.25672582  1
  O  O223  1  0.42545549  0.00951186  0.58046076  1
  O  O224  1  0.40804663  0.00934073  0.93149455  1
  O  O225  1  0.40978151  0.51804123  0.26204056  1
  O  O226  1  0.41443248  0.52779341  0.59595104  1
  O  O227  1  0.41121425  0.51678363  0.92346645  1
  O  O228  1  0.74970695  0.02337401  0.25023819  1
  O  O229  1  0.74800728  0.02501150  0.58416374  1
  O  O230  1  0.75266720  0.01650110  0.91189224  1
  O  O231  1  0.75288619  0.52018420  0.24943977  1
  O  O232  1  0.74329930  0.52316174  0.58711264  1
  O  O233  1  0.74151367  0.51251013  0.91780691  1
  O  O234  1  0.24889330  0.22615423  0.24101954  1
  O  O235  1  0.24761322  0.24378462  0.58563638  1
  O  O236  1  0.24581019  0.22371557  0.91338912  1
  O  O237  1  0.24116385  0.73456017  0.24088055  1
  O  O238  1  0.25026016  0.73532930  0.58384968  1
  O  O239  1  0.24604770  0.73081309  0.91163672  1
  O  O240  1  0.57959274  0.23263658  0.24712365  1
  O  O241  1  0.58436886  0.22935664  0.57817228  1
  O  O242  1  0.57133510  0.23452470  0.90660718  1
  O  O243  1  0.58353268  0.73960255  0.25166235  1
  O  O244  1  0.58038584  0.72417536  0.58196099  1
  O  O245  1  0.57738550  0.73543356  0.90769366  1
  O  O246  1  0.91485905  0.22577170  0.25079085  1
  O  O247  1  0.90969884  0.22872639  0.57824957  1
  O  O248  1  0.91713630  0.22678217  0.91294480  1
  O  O249  1  0.91245973  0.72899113  0.24987241  1
  O  O250  1  0.90950067  0.72339694  0.58229270  1
  O  O251  1  0.90633750  0.73629336  0.90594983  1
  O  O252  1  0.08897744  0.49572981  0.08751148  1
  O  O253  1  0.07467535  0.48703662  0.41360290  1
  O  O254  1  0.07778868  0.49224017  0.74728652  1
  O  O255  1  0.09923398  0.98713127  0.09263422  1
  O  O256  1  0.08877819  0.98221652  0.43034373  1
  O  O257  1  0.08627620  0.97344582  0.76071532  1
  O  O258  1  0.42513952  0.48075177  0.08817119  1
  O  O259  1  0.43159876  0.48808577  0.43036884  1
  O  O260  1  0.42880280  0.48605089  0.76305270  1
  O  O261  1  0.42642262  0.97438001  0.09368012  1
  O  O262  1  0.42158500  0.98546791  0.42016116  1
  O  O263  1  0.42366481  0.98502178  0.76425596  1
  O  O264  1  0.75130573  0.47617469  0.08413341  1
  O  O265  1  0.75159279  0.47522267  0.41429530  1
  O  O266  1  0.75466168  0.47380208  0.75322060  1
  O  O267  1  0.75288140  0.99037736  0.07804997  1
  O  O268  1  0.75143888  0.99897623  0.41909636  1
  O  O269  1  0.76180030  0.98784303  0.75379497  1
  O  O270  1  0.26722461  0.25777448  0.07333742  1
  O  O271  1  0.25450318  0.24940535  0.41186707  1
  O  O272  1  0.24854858  0.24710430  0.75461019  1
  O  O273  1  0.25908983  0.77405832  0.07896187  1
  O  O274  1  0.25224991  0.76135328  0.40956865  1
  O  O275  1  0.24660576  0.75970426  0.75223594  1
  O  O276  1  0.58716362  0.27573269  0.07674456  1
  O  O277  1  0.58795308  0.27701491  0.41299113  1
  O  O278  1  0.58881119  0.27383762  0.74366619  1
  O  O279  1  0.58728189  0.76822863  0.07673234  1
  O  O280  1  0.58003899  0.76145955  0.42105465  1
  O  O281  1  0.58820928  0.76543619  0.74913366  1
  O  O282  1  0.91212922  0.26327394  0.08921657  1
  O  O283  1  0.91365497  0.27519956  0.41218423  1
  O  O284  1  0.91382089  0.26899669  0.74325223  1
  O  O285  1  0.91985771  0.75739806  0.08002141  1
  O  O286  1  0.91598598  0.75354997  0.41797170  1
  O  O287  1  0.92314181  0.77070262  0.74432137  1
  O  O288  1  0.26279411  0.48777063  0.07517232  1
  O  O289  1  0.25171491  0.49905804  0.40971455  1
  O  O290  1  0.25428539  0.50310420  0.75099667  1
  O  O291  1  0.26220603  0.98024964  0.07438588  1
  O  O292  1  0.25413194  0.98922918  0.40938145  1
  O  O293  1  0.24554325  0.98828837  0.75372836  1
  O  O294  1  0.58785815  0.47768976  0.07840118  1
  O  O295  1  0.58660695  0.47168622  0.41552906  1
  O  O296  1  0.59204849  0.47873331  0.74264912  1
  O  O297  1  0.58721185  0.97986818  0.07739150  1
  O  O298  1  0.57758477  0.98957896  0.42138808  1
  O  O299  1  0.58508358  0.98555678  0.75099202  1
  O  O300  1  0.91224803  0.48834265  0.08915925  1
  O  O301  1  0.91497154  0.47281116  0.41166937  1
  O  O302  1  0.91705414  0.47595065  0.73811399  1
  O  O303  1  0.92679192  0.99205250  0.07401860  1
  O  O304  1  0.91698150  0.99901537  0.41618303  1
  O  O305  1  0.92339087  0.98196161  0.74473281  1
  O  O306  1  0.08554381  0.25190665  0.08377331  1
  O  O307  1  0.07235647  0.26287600  0.41332146  1
  O  O308  1  0.07730244  0.25864258  0.74706007  1
  O  O309  1  0.09693808  0.76411643  0.09100715  1
  O  O310  1  0.08975078  0.76736337  0.42688951  1
  O  O311  1  0.08438725  0.77658308  0.75480755  1
  O  O312  1  0.42962848  0.26779049  0.09359178  1
  O  O313  1  0.42902421  0.26057101  0.42369434  1
  O  O314  1  0.42646138  0.26197489  0.76429732  1
  O  O315  1  0.42311948  0.77270893  0.09129539  1
  O  O316  1  0.42619296  0.76515458  0.42843177  1
  O  O317  1  0.42603066  0.76680201  0.76203593  1
  O  O318  1  0.75087401  0.27145773  0.08103420  1
  O  O319  1  0.75045569  0.27647984  0.41486694  1
  O  O320  1  0.75083037  0.27328578  0.74564633  1
  O  O321  1  0.75060662  0.76345540  0.07945818  1
  O  O322  1  0.75146449  0.75141393  0.42019168  1
  O  O323  1  0.76046060  0.76541051  0.75865271  1
  O  O324  1  0.24664551  0.02285380  0.23831782  1
  O  O325  1  0.24656557  0.00234812  0.57695911  1
  O  O326  1  0.24212047  0.02275710  0.91162839  1
  O  O327  1  0.24424227  0.51759918  0.24396169  1
  O  O328  1  0.25043265  0.51613573  0.58719284  1
  O  O329  1  0.24758767  0.52195969  0.91160666  1
  O  O330  1  0.57855896  0.01934897  0.24839040  1
  O  O331  1  0.58704568  0.02562388  0.58135620  1
  O  O332  1  0.57093919  0.01670296  0.91044133  1
  O  O333  1  0.58857043  0.50876311  0.25375995  1
  O  O334  1  0.57710686  0.52336919  0.58123112  1
  O  O335  1  0.57385061  0.51342696  0.90518660  1
  O  O336  1  0.91248471  0.02368041  0.24774575  1
  O  O337  1  0.91206513  0.02710453  0.58093613  1
  O  O338  1  0.91304144  0.02485141  0.91000953  1
  O  O339  1  0.91394363  0.52103813  0.25105176  1
  O  O340  1  0.90547233  0.52209919  0.57704126  1
  O  O341  1  0.90656040  0.51202211  0.90370902  1
  O  O342  1  0.07796112  0.23031304  0.25030390  1
  O  O343  1  0.07242057  0.24109870  0.58854635  1
  O  O344  1  0.08285014  0.22513190  0.91645495  1
  O  O345  1  0.07822928  0.73261292  0.25511059  1
  O  O346  1  0.06797949  0.73430488  0.59481256  1
  O  O347  1  0.08561044  0.74067221  0.91240015  1
  O  O348  1  0.41324734  0.22322972  0.25684125  1
  O  O349  1  0.42343597  0.23696079  0.58355112  1
  O  O350  1  0.41003108  0.23257850  0.92990477  1
  O  O351  1  0.40677254  0.73455995  0.26314006  1
  O  O352  1  0.41553139  0.72382906  0.59348264  1
  O  O353  1  0.41295039  0.74119863  0.92424101  1
  O  O354  1  0.75052201  0.22828783  0.24977678  1
  O  O355  1  0.74765207  0.22520728  0.58189862  1
  O  O356  1  0.75450999  0.23803616  0.90662215  1
  O  O357  1  0.75191429  0.72768386  0.25115201  1
  O  O358  1  0.74436291  0.72585534  0.58645777  1
  O  O359  1  0.74457019  0.73381378  0.91790869  1
