# generated using pymatgen
data_Ba17Sr5La8Pr42Mn72O216
_symmetry_space_group_name_H-M   'P 1'
_cell_length_a   16.67318546
_cell_length_b   15.70301539
_cell_length_c   16.81836191
_cell_angle_alpha   90.00535463
_cell_angle_beta   90.00767593
_cell_angle_gamma   90.01641318
_symmetry_Int_Tables_number   1
_chemical_formula_structural   Ba17Sr5La8Pr42Mn72O216
_chemical_formula_sum   'Ba17 Sr5 La8 Pr42 Mn72 O216'
_cell_volume   4403.37130135
_cell_formula_units_Z   1
loop_
 _symmetry_equiv_pos_site_id
 _symmetry_equiv_pos_as_xyz
  1  'x, y, z'
loop_
 _atom_site_type_symbol
 _atom_site_label
 _atom_site_symmetry_multiplicity
 _atom_site_fract_x
 _atom_site_fract_y
 _atom_site_fract_z
 _atom_site_occupancy
  Ba  Ba0  1  -0.00126661  0.37494112  0.33574725  1
  Ba  Ba1  1  0.33627193  0.87431072  0.66854358  1
  Ba  Ba2  1  0.83662125  0.87471592  0.83016306  1
  Ba  Ba3  1  0.66828737  0.87533516  -0.00337421  1
  Ba  Ba4  1  0.66866778  0.62523759  0.66337324  1
  Ba  Ba5  1  0.33343159  0.62304900  0.66677288  1
  Ba  Ba6  1  0.66718398  0.62758274  0.33339134  1
  Ba  Ba7  1  -0.00197570  0.12314017  0.33370575  1
  Ba  Ba8  1  0.16416318  0.12697166  0.83749433  1
  Ba  Ba9  1  0.49803855  0.37660540  0.16480442  1
  Ba  Ba10  1  0.50182731  0.87626439  0.83098377  1
  Ba  Ba11  1  0.33462659  0.37287626  0.33403989  1
  Ba  Ba12  1  0.32940757  0.12396310  1.00117523  1
  Ba  Ba13  1  0.83418527  0.37523303  0.16359774  1
  Ba  Ba14  1  0.33380579  0.37440268  0.66676632  1
  Ba  Ba15  1  -0.00189941  0.37526617  0.66815119  1
  Ba  Ba16  1  0.17009266  0.87456943  0.50246135  1
  Sr  Sr17  1  0.32789686  0.12388062  0.33053846  1
  Sr  Sr18  1  0.00178887  0.37461120  0.00472817  1
  Sr  Sr19  1  0.83280236  0.37577691  0.49479303  1
  Sr  Sr20  1  0.66525678  0.37569779  0.00455659  1
  Sr  Sr21  1  0.16745427  0.37350048  0.83555586  1
  La  La22  1  0.66847506  0.37620054  0.33356203  1
  La  La23  1  0.16363085  0.12911750  0.50200794  1
  La  La24  1  0.16867225  0.37596874  0.49879642  1
  La  La25  1  0.49918014  0.62572536  0.83056895  1
  La  La26  1  0.33213594  0.62618220  0.33287114  1
  La  La27  1  0.49606351  0.12443782  0.16861686  1
  La  La28  1  0.83336857  0.62010798  0.50088619  1
  La  La29  1  0.49984929  0.62273474  0.50337761  1
  Pr  Pr30  1  0.84103516  0.87431582  0.15917224  1
  Pr  Pr31  1  0.50313858  0.87403343  0.16158094  1
  Pr  Pr32  1  0.16272353  0.62369325  0.17093994  1
  Pr  Pr33  1  0.33362105  0.62208000  0.99520737  1
  Pr  Pr34  1  -0.00490478  0.12654020  1.00117274  1
  Pr  Pr35  1  0.83053340  0.13066978  0.50020209  1
  Pr  Pr36  1  0.66769423  0.37622490  0.66555665  1
  Pr  Pr37  1  0.66470994  0.12109063  0.66201131  1
  Pr  Pr38  1  0.16205731  0.62170116  0.50475466  1
  Pr  Pr39  1  0.49982721  0.37402834  0.83403285  1
  Pr  Pr40  1  0.83224934  0.37614656  0.83313865  1
  Pr  Pr41  1  -0.00279007  0.62705758  0.33281797  1
  Pr  Pr42  1  -0.00143766  0.62615732  0.66652873  1
  Pr  Pr43  1  0.16464075  0.37160807  0.16713812  1
  Pr  Pr44  1  0.16708020  0.61937866  0.83580326  1
  Pr  Pr45  1  0.34047101  0.87807959  0.33990673  1
  Pr  Pr46  1  0.00663029  0.87448794  0.00152726  1
  Pr  Pr47  1  0.16390137  0.12708233  0.17079844  1
  Pr  Pr48  1  0.82917988  0.62540627  0.16691724  1
  Pr  Pr49  1  0.50276068  0.37973268  0.49393806  1
  Pr  Pr50  1  0.49107651  0.12736488  0.50193305  1
  Pr  Pr51  1  0.17541679  0.87560668  0.16928110  1
  Pr  Pr52  1  0.49214739  0.12505305  0.83584435  1
  Pr  Pr53  1  0.00390380  0.87689905  0.33593757  1
  Pr  Pr54  1  0.82622380  0.12615997  0.16610855  1
  Pr  Pr55  1  0.66541221  0.12683417  0.32943717  1
  Pr  Pr56  1  0.32609160  0.37002912  0.00532658  1
  Pr  Pr57  1  0.83342399  0.87426519  0.49867856  1
  Pr  Pr58  1  0.83241175  0.12811430  0.83295345  1
  Pr  Pr59  1  0.17287752  0.87454575  0.83023499  1
  Pr  Pr60  1  0.66448053  0.13107557  0.99512177  1
  Pr  Pr61  1  0.50424657  0.87243010  0.50128983  1
  Pr  Pr62  1  -0.00259292  0.12387682  0.66418293  1
  Pr  Pr63  1  0.32536793  0.12409830  0.66935085  1
  Pr  Pr64  1  0.67019447  0.87352080  0.67398597  1
  Pr  Pr65  1  0.66856420  0.61990772  0.99594284  1
  Pr  Pr66  1  -0.00627770  0.62278953  0.99909571  1
  Pr  Pr67  1  0.33817818  0.87781943  -0.00105258  1
  Pr  Pr68  1  0.83282198  0.62210110  0.83220153  1
  Pr  Pr69  1  0.50216772  0.62664727  0.16740620  1
  Pr  Pr70  1  0.00851727  0.87543946  0.67270543  1
  Pr  Pr71  1  0.66968846  0.87633486  0.33116436  1
  Mn  Mn72  1  0.00139722  -0.00228901  0.16625580  1
  Mn  Mn73  1  -0.00196910  -0.00124642  0.50143533  1
  Mn  Mn74  1  -0.00029751  0.00078804  0.83516546  1
  Mn  Mn75  1  0.00041144  0.50223875  0.16689304  1
  Mn  Mn76  1  -0.00011358  0.50080946  0.50090542  1
  Mn  Mn77  1  -0.00069579  0.49890896  0.83580949  1
  Mn  Mn78  1  0.33293611  -0.00167215  0.16927903  1
  Mn  Mn79  1  0.33447347  0.00191576  0.49993025  1
  Mn  Mn80  1  0.33304484  0.00051985  0.83414934  1
  Mn  Mn81  1  0.33074761  0.50267091  0.16429377  1
  Mn  Mn82  1  0.33390258  0.50036231  0.49833538  1
  Mn  Mn83  1  0.33356749  0.49886877  0.83513920  1
  Mn  Mn84  1  0.66661370  0.00014629  0.16538015  1
  Mn  Mn85  1  0.66657845  -0.00051563  0.49766154  1
  Mn  Mn86  1  0.66810335  0.00399733  0.82982448  1
  Mn  Mn87  1  0.66598238  0.50144136  0.16455742  1
  Mn  Mn88  1  0.66847035  0.49888850  0.49847330  1
  Mn  Mn89  1  0.66575257  0.49753626  0.83329040  1
  Mn  Mn90  1  -0.00074897  0.24892967  0.16620905  1
  Mn  Mn91  1  -0.00118417  0.24949471  0.50169674  1
  Mn  Mn92  1  -0.00250801  0.25138005  0.83520787  1
  Mn  Mn93  1  0.00204872  0.74947588  0.16703431  1
  Mn  Mn94  1  -0.00115053  0.75160855  0.50021862  1
  Mn  Mn95  1  0.00167658  0.74735121  0.83500392  1
  Mn  Mn96  1  0.33166271  0.24915468  0.16834618  1
  Mn  Mn97  1  0.33336840  0.24792476  0.50152135  1
  Mn  Mn98  1  0.33344832  0.25251612  0.83527233  1
  Mn  Mn99  1  0.33247582  0.74965142  0.16568578  1
  Mn  Mn100  1  0.33587294  0.75089118  0.49852180  1
  Mn  Mn101  1  0.33261238  0.74657411  0.83497252  1
  Mn  Mn102  1  0.66489217  0.24892086  0.16401490  1
  Mn  Mn103  1  0.66554819  0.24776466  0.49821042  1
  Mn  Mn104  1  0.66611389  0.25193064  0.83090936  1
  Mn  Mn105  1  0.66758794  0.75138633  0.16463757  1
  Mn  Mn106  1  0.66828255  0.75381755  0.49864249  1
  Mn  Mn107  1  0.66765163  0.74777645  0.83179114  1
  Mn  Mn108  1  0.16277990  0.25054061  0.00242072  1
  Mn  Mn109  1  0.16621460  0.24970473  0.33524692  1
  Mn  Mn110  1  0.16450451  0.25090128  0.66948250  1
  Mn  Mn111  1  0.16735787  0.74862317  0.00209344  1
  Mn  Mn112  1  0.16755625  0.74990369  0.33456845  1
  Mn  Mn113  1  0.16639923  0.74748287  0.66893894  1
  Mn  Mn114  1  0.49898993  0.25019504  -0.00035598  1
  Mn  Mn115  1  0.50131683  0.24841792  0.33456642  1
  Mn  Mn116  1  0.50150261  0.24951348  0.66725801  1
  Mn  Mn117  1  0.49899544  0.74880142  0.00078831  1
  Mn  Mn118  1  0.50057419  0.75196552  0.33183586  1
  Mn  Mn119  1  0.50205567  0.74921364  0.66536883  1
  Mn  Mn120  1  0.83299645  0.24928504  -0.00088371  1
  Mn  Mn121  1  0.83119744  0.24833763  0.33338355  1
  Mn  Mn122  1  0.83126914  0.25114336  0.66706991  1
  Mn  Mn123  1  0.83480058  0.75004793  -0.00133919  1
  Mn  Mn124  1  0.83435012  0.75337362  0.33084411  1
  Mn  Mn125  1  0.83637331  0.74962911  0.66335288  1
  Mn  Mn126  1  0.16472637  -0.00453840  0.00231546  1
  Mn  Mn127  1  0.16724806  -0.00144490  0.33442101  1
  Mn  Mn128  1  0.16531337  0.00117260  0.66947192  1
  Mn  Mn129  1  0.16567678  0.50130746  0.00421376  1
  Mn  Mn130  1  0.16662430  0.50311954  0.33501410  1
  Mn  Mn131  1  0.16481925  0.49908824  0.66971334  1
  Mn  Mn132  1  0.50074448  0.00027957  0.00047884  1
  Mn  Mn133  1  0.50178127  0.00049484  0.33379311  1
  Mn  Mn134  1  0.50141049  0.00449686  0.66573693  1
  Mn  Mn135  1  0.49802662  0.50131467  -0.00079396  1
  Mn  Mn136  1  0.50059343  0.50251442  0.33190797  1
  Mn  Mn137  1  0.50174904  0.49611057  0.66565663  1
  Mn  Mn138  1  0.83488950  0.00009252  -0.00127890  1
  Mn  Mn139  1  0.83204138  -0.00152602  0.33053075  1
  Mn  Mn140  1  0.83423079  0.00161018  0.66349731  1
  Mn  Mn141  1  0.83353874  0.49992760  -0.00055193  1
  Mn  Mn142  1  0.83351917  0.50189007  0.33251831  1
  Mn  Mn143  1  0.83324070  0.49759887  0.66612951  1
  O  O144  1  0.15976886  0.12011927  0.02643163  1
  O  O145  1  0.16726338  0.11935510  0.35414440  1
  O  O146  1  0.16149333  0.12514936  0.67873752  1
  O  O147  1  0.17536496  0.62775659  0.03028914  1
  O  O148  1  0.16416195  0.62899254  0.36012398  1
  O  O149  1  0.15800332  0.62367938  0.68994974  1
  O  O150  1  0.50463564  0.12296719  0.02150628  1
  O  O151  1  0.51083731  0.12225544  0.35956151  1
  O  O152  1  0.51270993  0.12954224  0.69329705  1
  O  O153  1  0.49017626  0.62715446  0.02487740  1
  O  O154  1  0.49655910  0.63099875  0.35858373  1
  O  O155  1  0.50373666  0.61808631  0.68275362  1
  O  O156  1  0.83279805  0.12233427  0.02211863  1
  O  O157  1  0.82384130  0.12058331  0.35564723  1
  O  O158  1  0.83170826  0.12776591  0.68899384  1
  O  O159  1  0.83210753  0.62760419  0.02240410  1
  O  O160  1  0.83794800  0.63331267  0.35718143  1
  O  O161  1  0.83858365  0.62243060  0.68717491  1
  O  O162  1  0.16671231  0.38198551  0.31291088  1
  O  O163  1  0.16591148  0.37537587  0.64414168  1
  O  O164  1  0.16552246  0.37985291  0.98589621  1
  O  O165  1  0.16800554  0.87184150  0.31343429  1
  O  O166  1  0.16151541  0.87425879  0.66052314  1
  O  O167  1  0.15749835  0.86824793  0.97259598  1
  O  O168  1  0.50655616  0.37295925  0.32229464  1
  O  O169  1  0.50619688  0.36955749  0.63841813  1
  O  O170  1  0.49898269  0.37751902  0.97847404  1
  O  O171  1  0.49658876  0.87605705  0.30466947  1
  O  O172  1  0.50696932  0.88153877  0.64628624  1
  O  O173  1  0.49516394  0.87383764  0.98805692  1
  O  O174  1  0.82893298  0.37106693  0.32202911  1
  O  O175  1  0.82728147  0.37262135  0.64468009  1
  O  O176  1  0.83465856  0.37446307  0.97804219  1
  O  O177  1  0.83369119  0.87595415  0.30255235  1
  O  O178  1  0.83296123  0.87787334  0.64284481  1
  O  O179  1  0.84340153  0.87430212  0.98621906  1
  O  O180  1  0.00394341  0.37943326  0.17905327  1
  O  O181  1  0.00088366  0.37539715  0.51047125  1
  O  O182  1  -0.01149235  0.37616125  0.85629870  1
  O  O183  1  -0.01109829  0.87144310  0.19220549  1
  O  O184  1  -0.01258867  0.87355429  0.52908774  1
  O  O185  1  0.00409214  0.86945525  0.85808090  1
  O  O186  1  0.32588691  0.37685063  0.17871371  1
  O  O187  1  0.33179622  0.37209947  0.50959249  1
  O  O188  1  0.34135977  0.37755881  0.85882220  1
  O  O189  1  0.33195762  0.87255410  0.19707141  1
  O  O190  1  0.34063806  0.87782223  0.51257962  1
  O  O191  1  0.32758368  0.86951366  0.85197242  1
  O  O192  1  0.66538465  0.37420399  0.18682723  1
  O  O193  1  0.66231493  0.36950408  0.52097909  1
  O  O194  1  0.66582899  0.37456490  0.85770641  1
  O  O195  1  0.66081039  0.87680571  0.18723251  1
  O  O196  1  0.66602113  0.87947746  0.52906238  1
  O  O197  1  0.66821538  0.87579175  0.83901275  1
  O  O198  1  0.01311758  0.11951119  0.14537788  1
  O  O199  1  0.00685110  0.12230019  0.49130717  1
  O  O200  1  -0.00588625  0.12801375  0.80900893  1
  O  O201  1  0.00936973  0.62853762  0.14166102  1
  O  O202  1  0.00529221  0.62922813  0.47669742  1
  O  O203  1  0.00012995  0.62461040  0.81056917  1
  O  O204  1  0.33233732  0.12230179  0.15639578  1
  O  O205  1  0.33719377  0.12386192  0.47975033  1
  O  O206  1  0.33875203  0.12958530  0.81737628  1
  O  O207  1  0.32930343  0.62847951  0.13755350  1
  O  O208  1  0.34167799  0.62777349  0.47882576  1
  O  O209  1  0.32941571  0.62250509  0.82465248  1
  O  O210  1  0.67112994  0.12126163  0.14111887  1
  O  O211  1  0.67289967  0.12146891  0.47109968  1
  O  O212  1  0.67351181  0.13085820  0.80467635  1
  O  O213  1  0.67057310  0.62874880  0.14354935  1
  O  O214  1  0.66896484  0.62906542  0.48833073  1
  O  O215  1  0.66757333  0.62066420  0.81966743  1
  O  O216  1  0.08052580  0.00360636  0.25187739  1
  O  O217  1  0.07449156  0.00956951  0.59703483  1
  O  O218  1  0.07099715  0.01210657  0.93344333  1
  O  O219  1  0.08069752  0.52609994  0.25689471  1
  O  O220  1  0.07963257  0.52218567  0.58624229  1
  O  O221  1  0.08305661  0.52521078  0.92531957  1
  O  O222  1  0.41658889  0.01754727  0.25596271  1
  O  O223  1  0.41458654  0.02679360  0.58978945  1
  O  O224  1  0.41648253  0.01037578  0.91764246  1
  O  O225  1  0.41431839  0.52501778  0.24422577  1
  O  O226  1  0.42168506  0.50875458  0.57831061  1
  O  O227  1  0.42068921  0.52328952  0.91360945  1
  O  O228  1  0.74183001  0.01895489  0.25529175  1
  O  O229  1  0.74629154  0.02267290  0.58204149  1
  O  O230  1  0.74644055  0.02337407  0.91749374  1
  O  O231  1  0.75441747  0.51593308  0.24383118  1
  O  O232  1  0.75631914  0.51019629  0.57647632  1
  O  O233  1  0.75353741  0.51906943  0.91281486  1
  O  O234  1  0.24589757  0.23445391  0.24762083  1
  O  O235  1  0.24882120  0.22880471  0.58213204  1
  O  O236  1  0.24885682  0.24891874  0.92183701  1
  O  O237  1  0.24607247  0.72817610  0.24144752  1
  O  O238  1  0.24397391  0.73266390  0.57656914  1
  O  O239  1  0.24606755  0.72788171  0.91852225  1
  O  O240  1  0.58312938  0.22560791  0.24759030  1
  O  O241  1  0.58185081  0.22325179  0.57823113  1
  O  O242  1  0.58311069  0.22793863  0.90950404  1
  O  O243  1  0.57610085  0.73731587  0.24414623  1
  O  O244  1  0.57958708  0.74102731  0.57328672  1
  O  O245  1  0.57969271  0.72655249  0.91871900  1
  O  O246  1  0.91042784  0.23099729  0.24252358  1
  O  O247  1  0.91580175  0.22797109  0.58699947  1
  O  O248  1  0.91228029  0.22508914  0.91595102  1
  O  O249  1  0.91694944  0.72526126  0.24529936  1
  O  O250  1  0.91589537  0.72323984  0.57860312  1
  O  O251  1  0.91442337  0.72391222  0.91305442  1
  O  O252  1  0.09033279  0.48791731  0.09317225  1
  O  O253  1  0.09211715  0.48931104  0.42707729  1
  O  O254  1  0.08407344  0.48858001  0.75924900  1
  O  O255  1  0.08992309  0.96911520  0.09186271  1
  O  O256  1  0.08105988  0.98167417  0.41821042  1
  O  O257  1  0.08756471  0.97983913  0.76159231  1
  O  O258  1  0.40626818  0.48703849  0.07090218  1
  O  O259  1  0.42356430  0.48977074  0.41863056  1
  O  O260  1  0.42537537  0.48486743  0.75532102  1
  O  O261  1  0.41647988  0.97935678  0.09078304  1
  O  O262  1  0.42768464  0.98190026  0.42137035  1
  O  O263  1  0.42133687  1.00094929  0.75135594  1
  O  O264  1  0.74652794  0.49322310  0.07538162  1
  O  O265  1  0.74710380  0.48533952  0.41313493  1
  O  O266  1  0.74776240  0.47811474  0.74818742  1
  O  O267  1  0.76221309  0.98442241  0.09320115  1
  O  O268  1  0.75168217  0.97228170  0.41868804  1
  O  O269  1  0.75235756  0.98903763  0.74425861  1
  O  O270  1  0.24463777  0.26545705  0.08668662  1
  O  O271  1  0.24531635  0.25905777  0.42203503  1
  O  O272  1  0.25322565  0.25758749  0.75032898  1
  O  O273  1  0.25398260  0.77987330  0.07955691  1
  O  O274  1  0.26284439  0.76242460  0.40570239  1
  O  O275  1  0.24630579  0.75823854  0.75706607  1
  O  O276  1  0.58410970  0.25760492  0.07826543  1
  O  O277  1  0.58670081  0.26877535  0.41477806  1
  O  O278  1  0.58693519  0.27698813  0.74640168  1
  O  O279  1  0.57937702  0.76047943  0.08555962  1
  O  O280  1  0.58757211  0.77743527  0.41276688  1
  O  O281  1  0.58888853  0.76128915  0.74280251  1
  O  O282  1  0.92151873  0.25154961  0.07882051  1
  O  O283  1  0.91012259  0.25097510  0.42351647  1
  O  O284  1  0.90710102  0.26472792  0.75949625  1
  O  O285  1  0.92487140  0.76491824  0.07911820  1
  O  O286  1  0.91629682  0.77559398  0.41355038  1
  O  O287  1  0.92658223  0.76275275  0.73850946  1
  O  O288  1  0.24691898  0.47847258  0.08520464  1
  O  O289  1  0.25080312  0.49476058  0.41537062  1
  O  O290  1  0.24714108  0.48982488  0.75715565  1
  O  O291  1  0.25260145  0.97217846  0.07933777  1
  O  O292  1  0.25922829  0.98511767  0.40596982  1
  O  O293  1  0.25108625  0.99304675  0.74861802  1
  O  O294  1  0.58102022  0.49875080  0.08023923  1
  O  O295  1  0.58662255  0.48288343  0.41729894  1
  O  O296  1  0.58390885  0.47442282  0.74960669  1
  O  O297  1  0.58172633  0.98592245  0.08696224  1
  O  O298  1  0.58888972  0.97205013  0.41129238  1
  O  O299  1  0.59445636  0.99050482  0.73627372  1
  O  O300  1  0.92045154  0.49745831  0.07908674  1
  O  O301  1  0.91603424  0.49907632  0.41950161  1
  O  O302  1  0.90626382  0.48717591  0.75724416  1
  O  O303  1  0.92948698  0.98389074  0.07409770  1
  O  O304  1  0.91655231  0.97712240  0.40905921  1
  O  O305  1  0.92793597  0.98793564  0.73495171  1
  O  O306  1  0.08673127  0.26591301  0.08955897  1
  O  O307  1  0.08826730  0.26086632  0.42418678  1
  O  O308  1  0.08183243  0.26390455  0.75694960  1
  O  O309  1  0.08909311  0.77381410  0.09028742  1
  O  O310  1  0.07685945  0.76959714  0.41630481  1
  O  O311  1  0.08597703  0.76706534  0.75736811  1
  O  O312  1  0.40917841  0.26248775  0.08037301  1
  O  O313  1  0.42692986  0.25968563  0.42968282  1
  O  O314  1  0.42669116  0.26431918  0.75769266  1
  O  O315  1  0.41655090  0.77323774  0.08767900  1
  O  O316  1  0.42335829  0.77466838  0.41545842  1
  O  O317  1  0.42121316  0.75038643  0.75445363  1
  O  O318  1  0.74831410  0.25663045  0.07837461  1
  O  O319  1  0.74420369  0.26471980  0.41353816  1
  O  O320  1  0.74767824  0.27619827  0.74976800  1
  O  O321  1  0.75959339  0.76560126  0.08664735  1
  O  O322  1  0.74990843  0.77811359  0.41360454  1
  O  O323  1  0.75384697  0.76096437  0.74219787  1
  O  O324  1  0.24021469  0.01288080  0.24016704  1
  O  O325  1  0.24537428  0.02116119  0.58127868  1
  O  O326  1  0.24449504  -0.00040764  0.91688192  1
  O  O327  1  0.24673044  0.52720783  0.24949544  1
  O  O328  1  0.24231733  0.51315147  0.57579119  1
  O  O329  1  0.24886761  0.51779055  0.92308283  1
  O  O330  1  0.58037379  0.02219839  0.24808462  1
  O  O331  1  0.57843539  0.02497941  0.57359457  1
  O  O332  1  0.58391311  0.02455590  0.90973410  1
  O  O333  1  0.57844879  0.51935030  0.24570446  1
  O  O334  1  0.58198125  0.50763602  0.57770787  1
  O  O335  1  0.58222909  0.52129071  0.91764026  1
  O  O336  1  0.90553767  0.01612319  0.23412316  1
  O  O337  1  0.90740163  0.02516725  0.57525018  1
  O  O338  1  0.91132694  0.02347533  0.90902340  1
  O  O339  1  0.91741968  0.52651640  0.24768479  1
  O  O340  1  0.91949565  0.52122089  0.58544424  1
  O  O341  1  0.91476557  0.52500237  0.91626531  1
  O  O342  1  0.08672021  0.23788601  0.24733900  1
  O  O343  1  0.08094451  0.23352635  0.58560357  1
  O  O344  1  0.07324591  0.23579080  0.92750636  1
  O  O345  1  0.07990776  0.73096083  0.25287172  1
  O  O346  1  0.07884325  0.73165420  0.58760669  1
  O  O347  1  0.08187215  0.72139708  0.92446344  1
  O  O348  1  0.41936686  0.23143424  0.25159043  1
  O  O349  1  0.41301023  0.22406760  0.59287862  1
  O  O350  1  0.42162662  0.23689236  0.91439892  1
  O  O351  1  0.41261008  0.72611917  0.24955749  1
  O  O352  1  0.42207615  0.73861294  0.57721255  1
  O  O353  1  0.41223030  0.73145478  0.92200620  1
  O  O354  1  0.74649462  0.22827011  0.24930641  1
  O  O355  1  0.74642008  0.22702731  0.58178631  1
  O  O356  1  0.74931025  0.22948961  0.91289055  1
  O  O357  1  0.75496299  0.73879922  0.24508894  1
  O  O358  1  0.75901449  0.74213702  0.57307018  1
  O  O359  1  0.74985291  0.72841488  0.91753837  1
