# generated using pymatgen
data_Ba17Sr5La8Pr42Mn72O216
_symmetry_space_group_name_H-M   'P 1'
_cell_length_a   16.67252369
_cell_length_b   15.71029785
_cell_length_c   16.81895226
_cell_angle_alpha   90.01173296
_cell_angle_beta   89.97770390
_cell_angle_gamma   90.00775872
_symmetry_Int_Tables_number   1
_chemical_formula_structural   Ba17Sr5La8Pr42Mn72O216
_chemical_formula_sum   'Ba17 Sr5 La8 Pr42 Mn72 O216'
_cell_volume   4405.39296540
_cell_formula_units_Z   1
loop_
 _symmetry_equiv_pos_site_id
 _symmetry_equiv_pos_as_xyz
  1  'x, y, z'
loop_
 _atom_site_type_symbol
 _atom_site_label
 _atom_site_symmetry_multiplicity
 _atom_site_fract_x
 _atom_site_fract_y
 _atom_site_fract_z
 _atom_site_occupancy
  Ba  Ba0  1  0.16683571  0.87461175  0.49395858  1
  Ba  Ba1  1  0.16809553  0.37446006  0.83013806  1
  Ba  Ba2  1  0.83275715  0.87831041  0.49737184  1
  Ba  Ba3  1  0.33459903  0.12335725  0.99968317  1
  Ba  Ba4  1  0.83196409  0.87692829  0.83132547  1
  Ba  Ba5  1  0.16497022  0.87438724  0.16432998  1
  Ba  Ba6  1  0.49927340  0.62404918  0.50330527  1
  Ba  Ba7  1  0.66540812  0.87714540  0.66871214  1
  Ba  Ba8  1  0.00191023  0.37326630  0.33235570  1
  Ba  Ba9  1  0.00056934  0.12441447  0.99910958  1
  Ba  Ba10  1  0.83348797  0.62393928  0.16785845  1
  Ba  Ba11  1  0.66759127  0.62525905  0.33509819  1
  Ba  Ba12  1  0.83150775  0.37348474  0.83326867  1
  Ba  Ba13  1  0.49870786  0.62531911  0.17139647  1
  Ba  Ba14  1  0.66531745  0.37294930  0.67204230  1
  Ba  Ba15  1  0.00001642  0.62446045  0.66516137  1
  Ba  Ba16  1  0.50019986  0.87417159  0.16937768  1
  Sr  Sr17  1  0.66702883  0.87013391  0.33700105  1
  Sr  Sr18  1  0.33119177  0.87647746  0.00328864  1
  Sr  Sr19  1  -0.00027984  0.87486333  0.33331139  1
  Sr  Sr20  1  0.16677120  0.12238982  0.16412617  1
  Sr  Sr21  1  0.83928871  0.12636405  0.49871453  1
  La  La22  1  0.50098338  0.87568375  0.49665706  1
  La  La23  1  0.33489347  0.87518274  0.33229184  1
  La  La24  1  0.16876427  0.12546424  0.83676784  1
  La  La25  1  0.83128350  0.62517906  0.83595675  1
  La  La26  1  0.49673066  0.87685232  0.83610490  1
  La  La27  1  0.33435738  0.63152965  0.99843596  1
  La  La28  1  0.33217368  0.12208855  0.32761809  1
  La  La29  1  0.67166692  0.62567745  0.66564842  1
  Pr  Pr30  1  0.16141422  0.62515499  0.49861978  1
  Pr  Pr31  1  0.84041280  0.12573495  0.17100940  1
  Pr  Pr32  1  -0.00154735  0.37343473  0.66786999  1
  Pr  Pr33  1  -0.00342542  0.37454012  0.00539586  1
  Pr  Pr34  1  0.00046701  0.62709556  0.99296496  1
  Pr  Pr35  1  0.33101520  0.37477015  0.00397141  1
  Pr  Pr36  1  0.16165478  0.12373680  0.49558383  1
  Pr  Pr37  1  0.33393551  0.87345055  0.66564405  1
  Pr  Pr38  1  0.32887229  0.62301831  0.66148852  1
  Pr  Pr39  1  0.50088312  0.12420660  0.17453528  1
  Pr  Pr40  1  0.50352831  0.62435197  0.83668088  1
  Pr  Pr41  1  0.50232987  0.12622957  0.50525248  1
  Pr  Pr42  1  0.16534349  0.62553996  0.16499416  1
  Pr  Pr43  1  0.67586838  0.12587000  0.66666309  1
  Pr  Pr44  1  0.16812533  0.37658883  0.49559177  1
  Pr  Pr45  1  0.82770196  0.37547912  0.16289090  1
  Pr  Pr46  1  0.66725854  0.12301928  1.00185066  1
  Pr  Pr47  1  0.82999201  0.87405789  0.16604505  1
  Pr  Pr48  1  0.50349995  0.37564703  0.50103863  1
  Pr  Pr49  1  0.33574322  0.37412997  0.33369372  1
  Pr  Pr50  1  0.67636743  0.12414672  0.33278417  1
  Pr  Pr51  1  -0.00455880  0.87542149  0.00293135  1
  Pr  Pr52  1  0.83132727  0.37614661  0.50014701  1
  Pr  Pr53  1  0.50038776  0.37777533  0.16890364  1
  Pr  Pr54  1  0.33111113  0.12726808  0.66513443  1
  Pr  Pr55  1  0.66303250  0.37485857  0.00356158  1
  Pr  Pr56  1  0.16639912  0.62406993  0.83266088  1
  Pr  Pr57  1  0.16518705  0.37218479  0.15813751  1
  Pr  Pr58  1  0.50333206  0.12614157  0.83833236  1
  Pr  Pr59  1  0.33068588  0.62706731  0.32971870  1
  Pr  Pr60  1  0.49648267  0.37290219  0.83508020  1
  Pr  Pr61  1  0.00051756  0.12530307  0.66635904  1
  Pr  Pr62  1  0.33490422  0.37643510  0.66791046  1
  Pr  Pr63  1  0.66573820  0.62696835  1.00261829  1
  Pr  Pr64  1  0.83391288  0.12538713  0.83412921  1
  Pr  Pr65  1  0.16792853  0.87928967  0.82871887  1
  Pr  Pr66  1  0.66491799  0.87475370  0.00655276  1
  Pr  Pr67  1  0.83322771  0.62707056  0.50015627  1
  Pr  Pr68  1  0.66730119  0.37999519  0.33845216  1
  Pr  Pr69  1  -0.00060603  0.62978764  0.33216424  1
  Pr  Pr70  1  -0.00034700  0.87627583  0.66502401  1
  Pr  Pr71  1  0.00288526  0.11752627  0.32752275  1
  Mn  Mn72  1  -0.00058147  -0.00220521  0.16518802  1
  Mn  Mn73  1  0.00031168  0.00233053  0.49742351  1
  Mn  Mn74  1  0.00144844  -0.00081558  0.83144890  1
  Mn  Mn75  1  0.00076031  0.50029260  0.16629217  1
  Mn  Mn76  1  0.00016821  0.49740498  0.49878368  1
  Mn  Mn77  1  -0.00005371  0.49909175  0.83264879  1
  Mn  Mn78  1  0.33355278  0.00062231  0.16475764  1
  Mn  Mn79  1  0.33391780  0.00397197  0.49868997  1
  Mn  Mn80  1  0.33422775  -0.00151816  0.83096775  1
  Mn  Mn81  1  0.33093861  0.49844524  0.16685727  1
  Mn  Mn82  1  0.33198261  0.49763602  0.49888497  1
  Mn  Mn83  1  0.33455112  0.50198111  0.83264427  1
  Mn  Mn84  1  0.66774821  0.00177981  0.16808328  1
  Mn  Mn85  1  0.66615392  0.00376522  0.50012570  1
  Mn  Mn86  1  0.66397152  0.00255632  0.83591124  1
  Mn  Mn87  1  0.66589141  0.49752710  0.16944634  1
  Mn  Mn88  1  0.66788261  0.49931077  0.50419017  1
  Mn  Mn89  1  0.66461024  0.50125619  0.83574137  1
  Mn  Mn90  1  0.00092579  0.24972442  0.16743516  1
  Mn  Mn91  1  0.00157937  0.24984006  0.49964658  1
  Mn  Mn92  1  0.00066151  0.25070536  0.83237629  1
  Mn  Mn93  1  -0.00129241  0.74931381  0.16431514  1
  Mn  Mn94  1  -0.00060513  0.75000264  0.49766797  1
  Mn  Mn95  1  0.00136280  0.75110825  0.83172481  1
  Mn  Mn96  1  0.33365889  0.25011904  0.16750316  1
  Mn  Mn97  1  0.33279109  0.24977487  0.49872574  1
  Mn  Mn98  1  0.33460154  0.25078987  0.83247828  1
  Mn  Mn99  1  0.33159786  0.74979445  0.16439793  1
  Mn  Mn100  1  0.33310261  0.74919932  0.49919832  1
  Mn  Mn101  1  0.33366835  0.75029425  0.83091864  1
  Mn  Mn102  1  0.66582596  0.24883211  0.16917651  1
  Mn  Mn103  1  0.66805334  0.24944563  0.50089766  1
  Mn  Mn104  1  0.66480517  0.24805959  0.83707551  1
  Mn  Mn105  1  0.66687942  0.75122115  0.16958204  1
  Mn  Mn106  1  0.66667253  0.74985577  0.50249863  1
  Mn  Mn107  1  0.66415457  0.74925849  0.83532342  1
  Mn  Mn108  1  0.16674776  0.24940915  -0.00304691  1
  Mn  Mn109  1  0.16864512  0.25072950  0.33023022  1
  Mn  Mn110  1  0.16709397  0.24789143  0.66240981  1
  Mn  Mn111  1  0.16561817  0.74929437  -0.00405068  1
  Mn  Mn112  1  0.16792027  0.74790131  0.33079859  1
  Mn  Mn113  1  0.16722070  0.75169084  0.66436097  1
  Mn  Mn114  1  0.50062317  0.25165149  0.00431455  1
  Mn  Mn115  1  0.50109867  0.25011426  0.33725422  1
  Mn  Mn116  1  0.49761264  0.24848002  0.67027753  1
  Mn  Mn117  1  0.50008979  0.74892208  0.00043934  1
  Mn  Mn118  1  0.49940239  0.75059459  0.33660133  1
  Mn  Mn119  1  0.49795799  0.75107759  0.66983059  1
  Mn  Mn120  1  0.83119306  0.24905356  0.00068019  1
  Mn  Mn121  1  0.83494586  0.25061723  0.33384708  1
  Mn  Mn122  1  0.83595671  0.24819861  0.66599310  1
  Mn  Mn123  1  0.83172596  0.75035662  0.00022203  1
  Mn  Mn124  1  0.83497434  0.75057227  0.33350513  1
  Mn  Mn125  1  0.83496371  0.75023232  0.66729142  1
  Mn  Mn126  1  0.16682576  -0.00102518  -0.00314296  1
  Mn  Mn127  1  0.16802811  0.00015967  0.33077074  1
  Mn  Mn128  1  0.16786145  0.00099632  0.66441429  1
  Mn  Mn129  1  0.16644934  0.50052674  -0.00198169  1
  Mn  Mn130  1  0.16827988  0.49928806  0.32984368  1
  Mn  Mn131  1  0.16662686  0.49940251  0.66316297  1
  Mn  Mn132  1  0.50045480  0.00123497  0.00257486  1
  Mn  Mn133  1  0.50101874  0.00256579  0.33779891  1
  Mn  Mn134  1  0.49753788  0.00282653  0.66853360  1
  Mn  Mn135  1  0.49902364  0.50007966  0.00165547  1
  Mn  Mn136  1  0.49797607  0.49784595  0.33565651  1
  Mn  Mn137  1  0.49789406  0.49938622  0.67111353  1
  Mn  Mn138  1  0.83150778  0.00077601  -0.00002417  1
  Mn  Mn139  1  0.83371478  0.00076430  0.33255912  1
  Mn  Mn140  1  0.83603011  0.00168843  0.66543887  1
  Mn  Mn141  1  0.83218614  0.49990747  0.00018166  1
  Mn  Mn142  1  0.83601138  0.49722917  0.33365727  1
  Mn  Mn143  1  0.83443775  0.49979952  0.66749408  1
  O  O144  1  0.16681542  0.12754509  0.01119583  1
  O  O145  1  0.16759698  0.12881948  0.35148703  1
  O  O146  1  0.16638380  0.12324696  0.69337321  1
  O  O147  1  0.16301573  0.62304912  0.02104814  1
  O  O148  1  0.17395984  0.62063554  0.35580851  1
  O  O149  1  0.17341073  0.62949647  0.68966167  1
  O  O150  1  0.50564715  0.13248654  0.03044986  1
  O  O151  1  0.49227366  0.12957315  0.36063742  1
  O  O152  1  0.48592294  0.12601829  0.69668735  1
  O  O153  1  0.49803972  0.62200613  0.01577857  1
  O  O154  1  0.48763361  0.62171792  0.34543755  1
  O  O155  1  0.48937314  0.62122897  0.69273820  1
  O  O156  1  0.82556614  0.12617639  0.02823570  1
  O  O157  1  0.83363651  0.12806102  0.34943881  1
  O  O158  1  0.84219895  0.12546480  0.68817980  1
  O  O159  1  0.83492571  0.62514669  0.01220885  1
  O  O160  1  0.84219008  0.62003068  0.35485847  1
  O  O161  1  0.83276062  0.62520446  0.68853361  1
  O  O162  1  0.17371326  0.37581670  0.30234881  1
  O  O163  1  0.16956864  0.36949609  0.63852409  1
  O  O164  1  0.16942580  0.37663201  0.98631093  1
  O  O165  1  0.17258568  0.87230200  0.32153747  1
  O  O166  1  0.17240587  0.87659277  0.64847980  1
  O  O167  1  0.16321880  0.87054181  0.97349738  1
  O  O168  1  0.50283801  0.37123660  0.31285995  1
  O  O169  1  0.49426980  0.37191549  0.64433082  1
  O  O170  1  0.50145488  0.37687781  0.97709528  1
  O  O171  1  0.50009051  0.87934914  0.32804294  1
  O  O172  1  0.49448488  0.88237874  0.64091742  1
  O  O173  1  0.50951939  0.87101765  0.97948121  1
  O  O174  1  0.82937947  0.37144025  0.30750149  1
  O  O175  1  0.83763873  0.37154437  0.64548159  1
  O  O176  1  0.83051145  0.37360496  0.98814042  1
  O  O177  1  0.83478213  0.87950536  0.31218856  1
  O  O178  1  0.83924109  0.87762049  0.65549338  1
  O  O179  1  0.82900128  0.87535260  0.98605193  1
  O  O180  1  0.00571160  0.37580655  0.17744984  1
  O  O181  1  0.00902146  0.37213516  0.52441603  1
  O  O182  1  0.00059241  0.37670240  0.85939106  1
  O  O183  1  -0.00708064  0.87438454  0.18288392  1
  O  O184  1  0.00139935  0.87828164  0.51967631  1
  O  O185  1  0.00794049  0.87475593  0.85824065  1
  O  O186  1  0.32408124  0.37423646  0.18934784  1
  O  O187  1  0.32293680  0.37213258  0.52694888  1
  O  O188  1  0.33840051  0.38012396  0.86089803  1
  O  O189  1  0.33157193  0.87644802  0.18577650  1
  O  O190  1  0.33565295  0.88172603  0.52279577  1
  O  O191  1  0.32960179  0.87213211  0.85417572  1
  O  O192  1  0.66918434  0.36890892  0.19432399  1
  O  O193  1  0.67035861  0.37317277  0.51629903  1
  O  O194  1  0.66156888  0.37413724  0.85928456  1
  O  O195  1  0.67374196  0.88140706  0.18502957  1
  O  O196  1  0.65953750  0.87968713  0.51093143  1
  O  O197  1  0.66108746  0.87772690  0.86082286  1
  O  O198  1  -0.00510653  0.12402149  0.15490997  1
  O  O199  1  0.00443873  0.12986609  0.47204565  1
  O  O200  1  0.00012447  0.12364307  0.81121533  1
  O  O201  1  0.00513626  0.62326719  0.13784932  1
  O  O202  1  -0.00167387  0.61935856  0.47745716  1
  O  O203  1  -0.00266912  0.62453751  0.82122680  1
  O  O204  1  0.34482343  0.12779716  0.15664379  1
  O  O205  1  0.34185886  0.12945754  0.47079811  1
  O  O206  1  0.33631483  0.12220688  0.81015523  1
  O  O207  1  0.33056170  0.61988091  0.14349508  1
  O  O208  1  0.33020052  0.61797010  0.47351290  1
  O  O209  1  0.33661545  0.62635850  0.80429944  1
  O  O210  1  0.66067304  0.12784308  0.14331334  1
  O  O211  1  0.65976684  0.12914925  0.47712451  1
  O  O212  1  0.65312080  0.12546554  0.81281344  1
  O  O213  1  0.66593670  0.62036070  0.14758301  1
  O  O214  1  0.67277368  0.62121737  0.49373103  1
  O  O215  1  0.65681139  0.62369723  0.81209143  1
  O  O216  1  0.08257290  0.01437711  0.24889839  1
  O  O217  1  0.08422594  0.02355105  0.58294372  1
  O  O218  1  0.08978156  0.01366680  0.90490442  1
  O  O219  1  0.08512376  0.52480298  0.24774992  1
  O  O220  1  0.08717404  0.51386628  0.57607652  1
  O  O221  1  0.08380988  0.52174587  0.91507123  1
  O  O222  1  0.42157609  0.01811219  0.25368353  1
  O  O223  1  0.41707068  0.02734615  0.58106251  1
  O  O224  1  0.42509518  0.01071382  0.90642289  1
  O  O225  1  0.40549031  0.50419724  0.25755823  1
  O  O226  1  0.40650076  0.50943144  0.59201386  1
  O  O227  1  0.41589495  0.52262714  0.91478408  1
  O  O228  1  0.75437975  0.02601152  0.24355321  1
  O  O229  1  0.74983481  0.02136694  0.58354103  1
  O  O230  1  0.74835717  0.02592026  0.91662174  1
  O  O231  1  0.75112761  0.50261491  0.25060346  1
  O  O232  1  0.75361574  0.51775541  0.58433869  1
  O  O233  1  0.74747009  0.52282592  0.91676704  1
  O  O234  1  0.25365124  0.22996145  0.25070862  1
  O  O235  1  0.24758438  0.22090787  0.57579137  1
  O  O236  1  0.25135326  0.23778762  0.91072859  1
  O  O237  1  0.24628765  0.72599069  0.24523605  1
  O  O238  1  0.24732773  0.72678042  0.57760588  1
  O  O239  1  0.24977710  0.72390682  0.91068591  1
  O  O240  1  0.58678359  0.22533199  0.25529955  1
  O  O241  1  0.58149342  0.22738258  0.59230772  1
  O  O242  1  0.58978232  0.23263370  0.93013126  1
  O  O243  1  0.58223739  0.74475640  0.25431775  1
  O  O244  1  0.58509264  0.73560742  0.59531593  1
  O  O245  1  0.58455119  0.72549449  0.92026194  1
  O  O246  1  0.91920459  0.23082229  0.25413090  1
  O  O247  1  0.92515720  0.23413791  0.58793434  1
  O  O248  1  0.90991202  0.23379716  0.91529092  1
  O  O249  1  0.92361173  0.73384213  0.25385754  1
  O  O250  1  0.91229866  0.73474585  0.57546284  1
  O  O251  1  0.91813721  0.73553953  0.91941438  1
  O  O252  1  0.08228547  0.47970300  0.08133220  1
  O  O253  1  0.09219922  0.48587955  0.41831592  1
  O  O254  1  0.08220586  0.48506273  0.74436925  1
  O  O255  1  0.07505205  0.98279000  0.07365839  1
  O  O256  1  0.08321203  0.99650678  0.41336797  1
  O  O257  1  0.08454738  0.97742572  0.74549878  1
  O  O258  1  0.41430948  0.47434767  0.08592283  1
  O  O259  1  0.41821655  0.47071473  0.42380442  1
  O  O260  1  0.41650901  0.47364533  0.75340195  1
  O  O261  1  0.41762310  0.98896590  0.08046409  1
  O  O262  1  0.41363054  0.98134150  0.41707553  1
  O  O263  1  0.41091750  0.97543666  0.74461795  1
  O  O264  1  0.74545553  0.47826356  0.08325617  1
  O  O265  1  0.75231434  0.47902435  0.41729726  1
  O  O266  1  0.74782079  0.49791037  0.75192421  1
  O  O267  1  0.74853250  0.98170221  0.08201291  1
  O  O268  1  0.74273021  0.99611573  0.40610254  1
  O  O269  1  0.74754274  1.00449851  0.75169277  1
  O  O270  1  0.24917317  0.26877861  0.08230314  1
  O  O271  1  0.25350102  0.27206738  0.41244952  1
  O  O272  1  0.25592538  0.26150125  0.73629582  1
  O  O273  1  0.24826239  0.75532272  0.07587401  1
  O  O274  1  0.26063804  0.76002629  0.40517742  1
  O  O275  1  0.25255799  0.77082466  0.74687760  1
  O  O276  1  0.57924541  0.27801692  0.09112161  1
  O  O277  1  0.58051161  0.27245820  0.42192739  1
  O  O278  1  0.57313074  0.26302153  0.76499562  1
  O  O279  1  0.58941721  0.76052348  0.07777640  1
  O  O280  1  0.57980604  0.76040538  0.42278921  1
  O  O281  1  0.57389192  0.76436448  0.76224869  1
  O  O282  1  0.91203270  0.26913322  0.08675219  1
  O  O283  1  0.90982054  0.26915923  0.42711668  1
  O  O284  1  0.92084949  0.26492097  0.74605419  1
  O  O285  1  0.91176400  0.77114923  0.08415067  1
  O  O286  1  0.92127568  0.75865520  0.41239683  1
  O  O287  1  0.92449627  0.76714871  0.74403237  1
  O  O288  1  0.25007522  0.47969566  0.08207178  1
  O  O289  1  0.25469365  0.47421132  0.40997702  1
  O  O290  1  0.25795985  0.48699027  0.74025692  1
  O  O291  1  0.24772982  0.99083780  0.07860512  1
  O  O292  1  0.25583593  0.99477211  0.41178145  1
  O  O293  1  0.25126687  0.98106965  0.74674104  1
  O  O294  1  0.58333337  0.47466784  0.08715577  1
  O  O295  1  0.58344921  0.48006330  0.42131975  1
  O  O296  1  0.57344942  0.48497706  0.76385320  1
  O  O297  1  0.58930920  0.98734512  0.08258907  1
  O  O298  1  0.57238514  0.99473804  0.42936076  1
  O  O299  1  0.57236396  0.98677699  0.76208706  1
  O  O300  1  0.91530117  0.47813692  0.08544507  1
  O  O301  1  0.91294125  0.47770584  0.42241903  1
  O  O302  1  0.92069008  0.48180631  0.74534960  1
  O  O303  1  0.91227805  0.98051211  0.08451741  1
  O  O304  1  0.92022153  0.99478862  0.41076740  1
  O  O305  1  0.92636667  0.98684924  0.74333606  1
  O  O306  1  0.08146248  0.26898460  0.07914884  1
  O  O307  1  0.09380613  0.26585074  0.42208692  1
  O  O308  1  0.08000238  0.26458251  0.73741363  1
  O  O309  1  0.07254357  0.76319934  0.07039106  1
  O  O310  1  0.08421395  0.74947980  0.41129594  1
  O  O311  1  0.08767216  0.77300461  0.74818336  1
  O  O312  1  0.41515268  0.27759158  0.08380064  1
  O  O313  1  0.41746174  0.27895383  0.42181981  1
  O  O314  1  0.41392949  0.27511943  0.74949652  1
  O  O315  1  0.41322967  0.75857377  0.07688797  1
  O  O316  1  0.41855808  0.77045204  0.42323007  1
  O  O317  1  0.41502731  0.77689533  0.75057072  1
  O  O318  1  0.74382306  0.27187215  0.08203496  1
  O  O319  1  0.74677365  0.26854018  0.40828670  1
  O  O320  1  0.74843452  0.24687813  0.75064449  1
  O  O321  1  0.74797353  0.76807371  0.08177771  1
  O  O322  1  0.75347892  0.75438741  0.41805588  1
  O  O323  1  0.74756324  0.75125416  0.75424776  1
  O  O324  1  0.25365548  0.01611266  0.25101190  1
  O  O325  1  0.25144036  0.02827882  0.58086814  1
  O  O326  1  0.24787628  0.01116300  0.90657114  1
  O  O327  1  0.24697248  0.52470524  0.24506625  1
  O  O328  1  0.24567728  0.52185583  0.57540654  1
  O  O329  1  0.25131074  0.52568636  0.91217682  1
  O  O330  1  0.58685118  0.02576085  0.25697435  1
  O  O331  1  0.58319705  0.02918396  0.59394000  1
  O  O332  1  0.58495776  0.02472322  0.92323913  1
  O  O333  1  0.58157876  0.50078271  0.25100754  1
  O  O334  1  0.58413626  0.51125934  0.59479312  1
  O  O335  1  0.58740045  0.52079927  0.92359557  1
  O  O336  1  0.91644844  0.01872434  0.24876342  1
  O  O337  1  0.92296988  0.01965923  0.58310229  1
  O  O338  1  0.91211605  0.01407216  0.91178468  1
  O  O339  1  0.92465741  0.51433239  0.25524227  1
  O  O340  1  0.91155426  0.50817054  0.57747083  1
  O  O341  1  0.91791810  0.51699698  0.91817079  1
  O  O342  1  0.08509740  0.23190737  0.25045786  1
  O  O343  1  0.08560595  0.22229033  0.58098762  1
  O  O344  1  0.08752563  0.23608341  0.90874188  1
  O  O345  1  0.08570819  0.72664283  0.24556619  1
  O  O346  1  0.08520243  0.73584175  0.57828081  1
  O  O347  1  0.08643688  0.72508569  0.91153573  1
  O  O348  1  0.42141653  0.23748722  0.25081402  1
  O  O349  1  0.41332406  0.23032900  0.58415321  1
  O  O350  1  0.42862516  0.23725593  0.91268176  1
  O  O351  1  0.40672746  0.74274697  0.26076542  1
  O  O352  1  0.40640211  0.73702188  0.59187747  1
  O  O353  1  0.41891498  0.73073145  0.91184566  1
  O  O354  1  0.75354977  0.22648961  0.24380744  1
  O  O355  1  0.75314486  0.23009295  0.58335215  1
  O  O356  1  0.74918729  0.22425259  0.91671302  1
  O  O357  1  0.75476039  0.74598969  0.24918077  1
  O  O358  1  0.75164435  0.73201089  0.58715862  1
  O  O359  1  0.74715393  0.72728548  0.91846719  1
