# generated using pymatgen
data_Ba17Sr5La8Pr42Mn72O216
_symmetry_space_group_name_H-M   'P 1'
_cell_length_a   16.67772126
_cell_length_b   15.70720422
_cell_length_c   16.82519901
_cell_angle_alpha   89.98981964
_cell_angle_beta   90.02161266
_cell_angle_gamma   90.00141504
_symmetry_Int_Tables_number   1
_chemical_formula_structural   Ba17Sr5La8Pr42Mn72O216
_chemical_formula_sum   'Ba17 Sr5 La8 Pr42 Mn72 O216'
_cell_volume   4407.53503533
_cell_formula_units_Z   1
loop_
 _symmetry_equiv_pos_site_id
 _symmetry_equiv_pos_as_xyz
  1  'x, y, z'
loop_
 _atom_site_type_symbol
 _atom_site_label
 _atom_site_symmetry_multiplicity
 _atom_site_fract_x
 _atom_site_fract_y
 _atom_site_fract_z
 _atom_site_occupancy
  Ba  Ba0  1  0.33394147  0.37694842  0.00238355  1
  Ba  Ba1  1  0.66983032  0.62388542  0.99786678  1
  Ba  Ba2  1  -0.00109328  0.62627682  0.33182300  1
  Ba  Ba3  1  0.16680544  0.37430906  0.50162863  1
  Ba  Ba4  1  0.83325064  0.37522923  0.49985322  1
  Ba  Ba5  1  -0.00198941  0.87651407  0.33436193  1
  Ba  Ba6  1  0.33478835  0.87432196  0.00202031  1
  Ba  Ba7  1  0.83206096  0.62436467  0.16603504  1
  Ba  Ba8  1  0.00101407  0.37390642  -0.00188121  1
  Ba  Ba9  1  0.66951734  0.12641144  0.99776769  1
  Ba  Ba10  1  0.66687851  0.12318802  0.66523186  1
  Ba  Ba11  1  0.49959108  0.12389298  0.50023651  1
  Ba  Ba12  1  0.66677554  0.87639315  0.66539093  1
  Ba  Ba13  1  -0.00181698  0.37530291  0.33550399  1
  Ba  Ba14  1  0.50231533  0.87467986  0.83414904  1
  Ba  Ba15  1  0.33162116  0.37654328  0.66906450  1
  Ba  Ba16  1  0.33571758  0.12559030  1.00141768  1
  Sr  Sr17  1  0.16703098  0.37450558  0.83117465  1
  Sr  Sr18  1  0.83497690  0.12623156  0.16725263  1
  Sr  Sr19  1  0.50232920  0.12534858  0.83350423  1
  Sr  Sr20  1  0.00181065  0.62530636  0.66642843  1
  Sr  Sr21  1  0.33122155  0.62735764  0.99971666  1
  La  La22  1  0.15890523  0.62390957  0.50224744  1
  La  La23  1  0.66738754  0.37383542  -0.00365192  1
  La  La24  1  0.33934682  0.87471029  0.33519095  1
  La  La25  1  0.66324973  0.62215998  0.32464655  1
  La  La26  1  0.33455724  0.37591056  0.34105406  1
  La  La27  1  0.32742428  0.12546459  0.33361636  1
  La  La28  1  0.49957129  0.62465903  0.83530442  1
  La  La29  1  0.66963803  0.87469899  0.33236951  1
  Pr  Pr30  1  0.16670274  0.12609864  0.16449734  1
  Pr  Pr31  1  0.66141977  0.37115596  0.66448778  1
  Pr  Pr32  1  0.82892450  0.87229682  0.16390763  1
  Pr  Pr33  1  0.16337849  0.37670541  0.16281866  1
  Pr  Pr34  1  0.17549467  0.12836540  0.83708215  1
  Pr  Pr35  1  0.67187400  0.37545511  0.33286639  1
  Pr  Pr36  1  0.50491737  0.37205664  0.49677283  1
  Pr  Pr37  1  0.66428211  0.12838534  0.32582829  1
  Pr  Pr38  1  0.16434776  0.62341122  0.16443150  1
  Pr  Pr39  1  0.49314583  0.12466346  0.17091495  1
  Pr  Pr40  1  0.33675306  0.87726804  0.67388925  1
  Pr  Pr41  1  0.00228144  0.12844888  0.33324540  1
  Pr  Pr42  1  0.17262424  0.87158807  0.49696692  1
  Pr  Pr43  1  0.66604598  0.62702835  0.66125360  1
  Pr  Pr44  1  0.66471329  0.87661673  -0.00117187  1
  Pr  Pr45  1  0.82867519  0.37558056  0.82706841  1
  Pr  Pr46  1  0.83197156  0.87618344  0.49880751  1
  Pr  Pr47  1  0.84053216  0.62691502  0.83694616  1
  Pr  Pr48  1  0.49554284  0.62425394  0.50268882  1
  Pr  Pr49  1  0.17073209  0.62119641  0.83520681  1
  Pr  Pr50  1  0.50467752  0.87466971  0.16116609  1
  Pr  Pr51  1  0.84008594  0.62621537  0.49924267  1
  Pr  Pr52  1  0.50566538  0.37459953  0.16517957  1
  Pr  Pr53  1  0.00279114  0.12552672  0.66717731  1
  Pr  Pr54  1  -0.00213767  0.37798839  0.67480298  1
  Pr  Pr55  1  -0.00438558  0.87685943  0.00454948  1
  Pr  Pr56  1  0.32558762  0.62674879  0.66703730  1
  Pr  Pr57  1  0.48894428  0.62434487  0.17031022  1
  Pr  Pr58  1  0.82824703  0.87499795  0.83264850  1
  Pr  Pr59  1  0.00574322  0.12430801  0.99672541  1
  Pr  Pr60  1  0.51003355  0.87590607  0.50052732  1
  Pr  Pr61  1  0.83755049  0.12389653  0.50115495  1
  Pr  Pr62  1  0.16125288  0.87287031  0.16171473  1
  Pr  Pr63  1  0.17114127  0.87542755  0.83185178  1
  Pr  Pr64  1  0.49976296  0.37196713  0.83330773  1
  Pr  Pr65  1  0.83053912  0.37711573  0.16460140  1
  Pr  Pr66  1  0.33535034  0.12463040  0.66762030  1
  Pr  Pr67  1  0.32289964  0.62564497  0.33446889  1
  Pr  Pr68  1  0.83763274  0.12245100  0.83876958  1
  Pr  Pr69  1  0.16433125  0.12279907  0.50283804  1
  Pr  Pr70  1  -0.00242896  0.87214456  0.66963841  1
  Pr  Pr71  1  0.00407875  0.62473274  0.99760422  1
  Mn  Mn72  1  -0.00146151  0.00203184  0.16728064  1
  Mn  Mn73  1  0.00039436  -0.00144927  0.50250067  1
  Mn  Mn74  1  0.00325034  -0.00308152  0.83408279  1
  Mn  Mn75  1  -0.00106225  0.49826572  0.16567797  1
  Mn  Mn76  1  -0.00049165  0.50108836  0.50317120  1
  Mn  Mn77  1  0.00035989  0.50205717  0.83281958  1
  Mn  Mn78  1  0.33137949  -0.00054012  0.17074511  1
  Mn  Mn79  1  0.33325623  -0.00278322  0.50257545  1
  Mn  Mn80  1  0.33568241  0.00007966  0.83413225  1
  Mn  Mn81  1  0.33116228  0.50051498  0.17169443  1
  Mn  Mn82  1  0.33463512  0.50173622  0.50154212  1
  Mn  Mn83  1  0.33460201  0.50129696  0.83548434  1
  Mn  Mn84  1  0.66515966  0.00160849  0.16593312  1
  Mn  Mn85  1  0.66877328  -0.00070241  0.49575228  1
  Mn  Mn86  1  0.66851780  0.00119827  0.83349668  1
  Mn  Mn87  1  0.66350040  0.49924047  0.16421757  1
  Mn  Mn88  1  0.66597109  0.50309682  0.49639765  1
  Mn  Mn89  1  0.66876853  0.50025563  0.82692011  1
  Mn  Mn90  1  -0.00093220  0.24791689  0.16667938  1
  Mn  Mn91  1  0.00065213  0.24728869  0.50200890  1
  Mn  Mn92  1  -0.00028325  0.24816689  0.83241502  1
  Mn  Mn93  1  -0.00105283  0.75177615  0.16463732  1
  Mn  Mn94  1  -0.00070995  0.75185213  0.50294899  1
  Mn  Mn95  1  0.00349589  0.75219535  0.83454689  1
  Mn  Mn96  1  0.33179612  0.25119292  0.17163777  1
  Mn  Mn97  1  0.33323209  0.24880606  0.50100499  1
  Mn  Mn98  1  0.33504394  0.25144371  0.83402582  1
  Mn  Mn99  1  0.33107270  0.74920637  0.16976972  1
  Mn  Mn100  1  0.33486874  0.75015024  0.50225252  1
  Mn  Mn101  1  0.33377426  0.74931304  0.83324773  1
  Mn  Mn102  1  0.66530070  0.24983946  0.16408755  1
  Mn  Mn103  1  0.66791345  0.24925794  0.49686568  1
  Mn  Mn104  1  0.66889020  0.25061323  0.83114544  1
  Mn  Mn105  1  0.66343732  0.74925232  0.16581659  1
  Mn  Mn106  1  0.66666954  0.74763517  0.49514464  1
  Mn  Mn107  1  0.66942627  0.74778700  0.83029750  1
  Mn  Mn108  1  0.16774587  0.25091649  -0.00016125  1
  Mn  Mn109  1  0.16673095  0.24811895  0.33309924  1
  Mn  Mn110  1  0.16466153  0.24746745  0.66827507  1
  Mn  Mn111  1  0.16510262  0.75039647  -0.00231326  1
  Mn  Mn112  1  0.16739240  0.75220561  0.33204838  1
  Mn  Mn113  1  0.16609246  0.75286910  0.66610809  1
  Mn  Mn114  1  0.50153583  0.25175425  0.00009767  1
  Mn  Mn115  1  0.49857102  0.25121232  0.33285573  1
  Mn  Mn116  1  0.49849099  0.25061943  0.66607415  1
  Mn  Mn117  1  0.50100393  0.74746898  0.00159611  1
  Mn  Mn118  1  0.49881649  0.74959790  0.33438694  1
  Mn  Mn119  1  0.49927402  0.74706850  0.66636176  1
  Mn  Mn120  1  0.83616593  0.25056457  -0.00059266  1
  Mn  Mn121  1  0.83152496  0.24649995  0.33277126  1
  Mn  Mn122  1  0.83451661  0.24861002  0.66682067  1
  Mn  Mn123  1  0.83547676  0.75055040  -0.00134673  1
  Mn  Mn124  1  0.83097839  0.75164449  0.33258597  1
  Mn  Mn125  1  0.83367001  0.74856859  0.66755875  1
  Mn  Mn126  1  0.16568564  -0.00062097  -0.00185651  1
  Mn  Mn127  1  0.16739856  -0.00201761  0.33374319  1
  Mn  Mn128  1  0.16605305  -0.00134185  0.66712814  1
  Mn  Mn129  1  0.16742501  0.50052671  -0.00018780  1
  Mn  Mn130  1  0.16643166  0.50071966  0.33266947  1
  Mn  Mn131  1  0.16427791  0.50125546  0.66862097  1
  Mn  Mn132  1  0.50222706  0.00052477  0.00132935  1
  Mn  Mn133  1  0.49984811  -0.00164419  0.33329178  1
  Mn  Mn134  1  0.49941151  0.00068068  0.66675571  1
  Mn  Mn135  1  0.50022058  0.50163073  0.00069354  1
  Mn  Mn136  1  0.49791711  0.50036660  0.33501601  1
  Mn  Mn137  1  0.50014268  0.50136236  0.66718593  1
  Mn  Mn138  1  0.83527233  0.00010447  0.00157667  1
  Mn  Mn139  1  0.83115006  0.00200600  0.33274360  1
  Mn  Mn140  1  0.83646122  -0.00007111  0.66805556  1
  Mn  Mn141  1  0.83573602  0.49904728  -0.00296791  1
  Mn  Mn142  1  0.83142538  0.50058055  0.33282580  1
  Mn  Mn143  1  0.83239779  0.50231767  0.66629339  1
  O  O144  1  0.16311369  0.12299782  0.01855760  1
  O  O145  1  0.16790222  0.11829214  0.35963361  1
  O  O146  1  0.15804265  0.11744409  0.69506629  1
  O  O147  1  0.16339701  0.62704965  0.02060488  1
  O  O148  1  0.17165513  0.62925229  0.35776539  1
  O  O149  1  0.16773476  0.63012060  0.68946182  1
  O  O150  1  0.50350183  0.12527681  0.02526969  1
  O  O151  1  0.50804421  0.12603148  0.34446072  1
  O  O152  1  0.49390041  0.12828574  0.68066497  1
  O  O153  1  0.50115079  0.62383587  0.02681971  1
  O  O154  1  0.50819955  0.62537801  0.35967041  1
  O  O155  1  0.51083093  0.62245184  0.68933550  1
  O  O156  1  0.84057042  0.12395821  0.01720894  1
  O  O157  1  0.82115452  0.12270543  0.35666467  1
  O  O158  1  0.84016820  0.12310580  0.69480992  1
  O  O159  1  0.84176131  0.62595261  0.01042673  1
  O  O160  1  0.82322351  0.62960614  0.35055386  1
  O  O161  1  0.82442418  0.62467519  0.69395722  1
  O  O162  1  0.17325366  0.37557219  0.30863141  1
  O  O163  1  0.15828943  0.37366375  0.65905834  1
  O  O164  1  0.16621791  0.37694894  0.98629238  1
  O  O165  1  0.17297469  0.87654648  0.30609737  1
  O  O166  1  0.17404672  0.87877435  0.63904109  1
  O  O167  1  0.15754587  0.87508457  0.97602382  1
  O  O168  1  0.48867130  0.37687879  0.30854567  1
  O  O169  1  0.50272714  0.37941911  0.64073643  1
  O  O170  1  0.50292063  0.37950195  0.97757071  1
  O  O171  1  0.49471676  0.87217523  0.30581170  1
  O  O172  1  0.48975190  0.86958074  0.64540238  1
  O  O173  1  0.50331155  0.87277806  0.99297324  1
  O  O174  1  0.82638408  0.36942187  0.31197337  1
  O  O175  1  0.84371666  0.37564463  0.65423189  1
  O  O176  1  0.83095358  0.37554554  0.97335835  1
  O  O177  1  0.82697360  0.87879521  0.30847477  1
  O  O178  1  0.84266888  0.87497814  0.64196561  1
  O  O179  1  0.83759117  0.87490804  0.97675235  1
  O  O180  1  0.01071510  0.36967181  0.17914868  1
  O  O181  1  -0.00069945  0.37233012  0.52599192  1
  O  O182  1  -0.00200276  0.37467601  0.84058872  1
  O  O183  1  0.00937766  0.87872127  0.17879278  1
  O  O184  1  -0.00834627  0.87651566  0.52484147  1
  O  O185  1  0.01294340  0.87507288  0.86361369  1
  O  O186  1  0.32396666  0.37641443  0.19670244  1
  O  O187  1  0.33856933  0.37595040  0.51126827  1
  O  O188  1  0.33961807  0.37935042  0.84402502  1
  O  O189  1  0.32878944  0.87407400  0.19140733  1
  O  O190  1  0.32581189  0.87146939  0.53057705  1
  O  O191  1  0.32919566  0.87355232  0.84194727  1
  O  O192  1  0.66520862  0.37433852  0.18868638  1
  O  O193  1  0.66265738  0.38205228  0.52114427  1
  O  O194  1  0.67295219  0.37765350  0.85162652  1
  O  O195  1  0.66481676  0.87638798  0.18803825  1
  O  O196  1  0.66686101  0.87124860  0.51022297  1
  O  O197  1  0.67582400  0.87334878  0.85312523  1
  O  O198  1  -0.00103405  0.12355937  0.14083692  1
  O  O199  1  0.00427472  0.11903052  0.47828150  1
  O  O200  1  -0.00757842  0.11902538  0.80913010  1
  O  O201  1  0.00234133  0.62891908  0.14333354  1
  O  O202  1  0.00313564  0.63029642  0.49079003  1
  O  O203  1  -0.00424481  0.63011496  0.81382981  1
  O  O204  1  0.33606206  0.12425177  0.15767093  1
  O  O205  1  0.32765260  0.12180133  0.47722838  1
  O  O206  1  0.32908464  0.12329962  0.81423707  1
  O  O207  1  0.33583025  0.62494445  0.14921087  1
  O  O208  1  0.33893669  0.62839721  0.47575633  1
  O  O209  1  0.32905479  0.62656826  0.81224801  1
  O  O210  1  0.65646100  0.12653289  0.15393666  1
  O  O211  1  0.67178543  0.12053030  0.47265222  1
  O  O212  1  0.67481305  0.12713391  0.82260050  1
  O  O213  1  0.65822800  0.62238062  0.15578839  1
  O  O214  1  0.65779616  0.62596002  0.46853697  1
  O  O215  1  0.67359801  0.62155839  0.80497861  1
  O  O216  1  0.08372031  0.02360752  0.24866929  1
  O  O217  1  0.08365580  0.01860372  0.58805766  1
  O  O218  1  0.08689618  0.02632478  0.91034311  1
  O  O219  1  0.08818811  0.51411469  0.24315489  1
  O  O220  1  0.08470004  0.51694534  0.58496475  1
  O  O221  1  0.08596383  0.52209438  0.91320272  1
  O  O222  1  0.41088842  0.01661990  0.26152880  1
  O  O223  1  0.40633778  0.01231541  0.58970747  1
  O  O224  1  0.42171535  0.01111652  0.91730471  1
  O  O225  1  0.40784623  0.52412591  0.26427094  1
  O  O226  1  0.41387777  0.52709661  0.59200566  1
  O  O227  1  0.41747132  0.52267938  0.92004676  1
  O  O228  1  0.74294904  0.01884262  0.25109103  1
  O  O229  1  0.75889944  0.01082751  0.57235045  1
  O  O230  1  0.76291881  0.01009596  0.91083538  1
  O  O231  1  0.73967931  0.50828438  0.25183146  1
  O  O232  1  0.74851675  0.52738055  0.57753354  1
  O  O233  1  0.76087402  0.51374856  0.90210035  1
  O  O234  1  0.24545952  0.22461565  0.24985110  1
  O  O235  1  0.24597960  0.22588415  0.58504286  1
  O  O236  1  0.24798924  0.23900949  0.91493933  1
  O  O237  1  0.24767934  0.72716737  0.24873394  1
  O  O238  1  0.24686984  0.72595589  0.57855926  1
  O  O239  1  0.24518426  0.73600355  0.91114715  1
  O  O240  1  0.57569270  0.23822322  0.24426137  1
  O  O241  1  0.58422575  0.24670190  0.57991418  1
  O  O242  1  0.58888798  0.24830662  0.91238300  1
  O  O243  1  0.57053069  0.73206421  0.24455225  1
  O  O244  1  0.57794727  0.73243693  0.57395073  1
  O  O245  1  0.58576653  0.73396021  0.90938163  1
  O  O246  1  0.91864238  0.22882322  0.25610100  1
  O  O247  1  0.92118345  0.22455803  0.58927087  1
  O  O248  1  0.92447625  0.22654985  0.92017655  1
  O  O249  1  0.91145109  0.74819437  0.24700635  1
  O  O250  1  0.91286539  0.73025262  0.58606934  1
  O  O251  1  0.92517185  0.73533844  0.92132983  1
  O  O252  1  0.08371363  0.49328665  0.08308373  1
  O  O253  1  0.08804734  0.49486344  0.41766157  1
  O  O254  1  0.07673007  0.48941457  0.74691798  1
  O  O255  1  0.07770072  0.98505296  0.07509445  1
  O  O256  1  0.09220328  0.98045004  0.42529407  1
  O  O257  1  0.08470558  0.97107296  0.74608164  1
  O  O258  1  0.42243144  0.48472255  0.10359214  1
  O  O259  1  0.42732341  0.48538562  0.42693702  1
  O  O260  1  0.42722510  0.49225364  0.75934087  1
  O  O261  1  0.42336582  0.98828013  0.09756100  1
  O  O262  1  0.42293285  0.97384591  0.42234927  1
  O  O263  1  0.41011519  0.99020920  0.74601438  1
  O  O264  1  0.74961409  0.47900656  0.07955928  1
  O  O265  1  0.74319078  0.48751559  0.41081633  1
  O  O266  1  0.74546933  0.47472463  0.74008378  1
  O  O267  1  0.74844224  0.97716891  0.08122016  1
  O  O268  1  0.74958199  0.97555245  0.41354447  1
  O  O269  1  0.75771501  0.98545903  0.75202300  1
  O  O270  1  0.24661446  0.26209741  0.09351087  1
  O  O271  1  0.25807623  0.26111458  0.40949742  1
  O  O272  1  0.24434161  0.25278854  0.75177432  1
  O  O273  1  0.23975984  0.76437451  0.08776206  1
  O  O274  1  0.25916424  0.77183328  0.41477029  1
  O  O275  1  0.24968275  0.76962995  0.74427751  1
  O  O276  1  0.58546826  0.27542499  0.08076273  1
  O  O277  1  0.58358528  0.27392320  0.40829851  1
  O  O278  1  0.58293049  0.27226678  0.74856509  1
  O  O279  1  0.58839823  0.77152676  0.08067987  1
  O  O280  1  0.58614908  0.77346507  0.40859279  1
  O  O281  1  0.58666154  0.75437511  0.74410419  1
  O  O282  1  0.90877176  0.26786195  0.09343828  1
  O  O283  1  0.91388930  0.24704438  0.42056581  1
  O  O284  1  0.91018915  0.26596543  0.75638366  1
  O  O285  1  0.91441198  0.77465078  0.08494764  1
  O  O286  1  0.91106980  0.76195754  0.42475239  1
  O  O287  1  0.92000602  0.77432414  0.75698637  1
  O  O288  1  0.24415698  0.48879561  0.09193001  1
  O  O289  1  0.25899334  0.49042360  0.40768078  1
  O  O290  1  0.24616951  0.49653048  0.75254769  1
  O  O291  1  0.23980409  0.98602232  0.09026601  1
  O  O292  1  0.25547025  0.97474005  0.41660088  1
  O  O293  1  0.24710495  0.98144464  0.74615978  1
  O  O294  1  0.58642319  0.47529392  0.07967664  1
  O  O295  1  0.58464388  0.47416394  0.40980891  1
  O  O296  1  0.58677528  0.47553721  0.74335816  1
  O  O297  1  0.58616369  0.97768560  0.08334891  1
  O  O298  1  0.58569405  0.97774942  0.40917516  1
  O  O299  1  0.58313879  0.99515732  0.75095511  1
  O  O300  1  0.91111195  0.48161803  0.08802946  1
  O  O301  1  0.91255648  0.50031701  0.42133133  1
  O  O302  1  0.91072111  0.48751230  0.75630992  1
  O  O303  1  0.91083029  0.97626354  0.08971522  1
  O  O304  1  0.90870768  0.98880988  0.42675774  1
  O  O305  1  0.92031640  0.97159057  0.75653353  1
  O  O306  1  0.08631889  0.25598177  0.08522072  1
  O  O307  1  0.08472430  0.25310591  0.41530977  1
  O  O308  1  0.07139243  0.25942660  0.74094481  1
  O  O309  1  0.07692815  0.76864754  0.07415669  1
  O  O310  1  0.09203311  0.76704719  0.42313893  1
  O  O311  1  0.08510294  0.77644043  0.75082995  1
  O  O312  1  0.42285601  0.26506198  0.09949333  1
  O  O313  1  0.42254690  0.26814690  0.42016820  1
  O  O314  1  0.42247542  0.26358775  0.75436652  1
  O  O315  1  0.42250826  0.76156350  0.09993911  1
  O  O316  1  0.42450589  0.77282044  0.42668373  1
  O  O317  1  0.41203608  0.75595489  0.74508867  1
  O  O318  1  0.74833150  0.27195625  0.07994387  1
  O  O319  1  0.74192412  0.26422876  0.40782118  1
  O  O320  1  0.74633450  0.27247843  0.74223511  1
  O  O321  1  0.75109306  0.77124537  0.08068021  1
  O  O322  1  0.75230137  0.77097544  0.41779281  1
  O  O323  1  0.75627972  0.76781352  0.75141803  1
  O  O324  1  0.24739672  0.02208404  0.25173073  1
  O  O325  1  0.24415261  0.02543604  0.58655461  1
  O  O326  1  0.24602039  0.00980818  0.91061307  1
  O  O327  1  0.24597391  0.52673356  0.24880573  1
  O  O328  1  0.24755468  0.52220098  0.58284232  1
  O  O329  1  0.24895455  0.51910988  0.91744230  1
  O  O330  1  0.57639865  0.01513115  0.24455267  1
  O  O331  1  0.58097900  0.00159313  0.57593598  1
  O  O332  1  0.59097723  0.00344293  0.91992853  1
  O  O333  1  0.57092090  0.51419016  0.24472486  1
  O  O334  1  0.58118876  0.52384707  0.57774163  1
  O  O335  1  0.58373632  0.51427233  0.90242433  1
  O  O336  1  0.91792517  0.02219987  0.25812302  1
  O  O337  1  0.92072116  0.02368092  0.58936037  1
  O  O338  1  0.92590055  0.01516207  0.92429507  1
  O  O339  1  0.91303603  0.50167402  0.24763851  1
  O  O340  1  0.91358215  0.52168992  0.58715143  1
  O  O341  1  0.92394493  0.52113703  0.91887582  1
  O  O342  1  0.08306331  0.22378231  0.24897069  1
  O  O343  1  0.08531840  0.22351975  0.58269348  1
  O  O344  1  0.08533171  0.22756589  0.90972232  1
  O  O345  1  0.08799142  0.73811688  0.23747816  1
  O  O346  1  0.08343878  0.74313626  0.58625561  1
  O  O347  1  0.08632091  0.72329106  0.91273962  1
  O  O348  1  0.40985563  0.23063187  0.25936905  1
  O  O349  1  0.40888727  0.23471976  0.58989619  1
  O  O350  1  0.42303166  0.24199991  0.91648707  1
  O  O351  1  0.40910821  0.72790856  0.26465376  1
  O  O352  1  0.41291426  0.72270636  0.58680171  1
  O  O353  1  0.41887807  0.73143320  0.91772555  1
  O  O354  1  0.74535321  0.23318173  0.24818946  1
  O  O355  1  0.75946301  0.23331670  0.57742897  1
  O  O356  1  0.76348799  0.24000448  0.90489645  1
  O  O357  1  0.73729764  0.74028645  0.25484127  1
  O  O358  1  0.74634886  0.72593932  0.57834667  1
  O  O359  1  0.76074099  0.73685630  0.90891168  1
