# generated using pymatgen
data_Ba17Sr5La8Pr42Mn72O216
_symmetry_space_group_name_H-M   'P 1'
_cell_length_a   16.68530048
_cell_length_b   15.70773538
_cell_length_c   16.82622264
_cell_angle_alpha   89.99417046
_cell_angle_beta   90.04618481
_cell_angle_gamma   89.97901980
_symmetry_Int_Tables_number   1
_chemical_formula_structural   Ba17Sr5La8Pr42Mn72O216
_chemical_formula_sum   'Ba17 Sr5 La8 Pr42 Mn72 O216'
_cell_volume   4409.95407630
_cell_formula_units_Z   1
loop_
 _symmetry_equiv_pos_site_id
 _symmetry_equiv_pos_as_xyz
  1  'x, y, z'
loop_
 _atom_site_type_symbol
 _atom_site_label
 _atom_site_symmetry_multiplicity
 _atom_site_fract_x
 _atom_site_fract_y
 _atom_site_fract_z
 _atom_site_occupancy
  Ba  Ba0  1  0.83651692  0.87410782  0.83573282  1
  Ba  Ba1  1  0.50200299  0.87354969  0.16382292  1
  Ba  Ba2  1  0.83283708  0.62573458  0.83723347  1
  Ba  Ba3  1  0.33651334  0.37536289  -0.00057929  1
  Ba  Ba4  1  0.50166676  0.37606140  0.83280272  1
  Ba  Ba5  1  0.50058950  0.87331479  0.83373648  1
  Ba  Ba6  1  0.66764755  0.87410905  0.33292484  1
  Ba  Ba7  1  0.32843902  0.62488500  0.33135004  1
  Ba  Ba8  1  0.83746366  0.37658972  0.83197146  1
  Ba  Ba9  1  0.66973377  0.37463307  0.66816686  1
  Ba  Ba10  1  0.49714176  0.12352605  0.50066076  1
  Ba  Ba11  1  0.16500636  0.12651585  0.16830456  1
  Ba  Ba12  1  0.49935940  0.87525066  0.49783470  1
  Ba  Ba13  1  0.16462434  0.62348541  0.17000240  1
  Ba  Ba14  1  0.66507457  0.12570726  0.66695906  1
  Ba  Ba15  1  0.17079777  0.87475174  0.83321880  1
  Ba  Ba16  1  0.49937079  0.12488417  0.83209267  1
  Sr  Sr17  1  0.82793469  0.62363586  0.17015340  1
  Sr  Sr18  1  0.33712077  0.87615473  0.00023577  1
  Sr  Sr19  1  0.17103842  0.37524112  0.16648152  1
  Sr  Sr20  1  0.17090471  0.87448598  0.16165302  1
  Sr  Sr21  1  0.82500915  0.12708216  0.16739862  1
  La  La22  1  0.82757900  0.62584337  0.50249003  1
  La  La23  1  0.65701302  0.12436579  0.33201898  1
  La  La24  1  0.33045369  0.12310928  0.33157230  1
  La  La25  1  0.66157003  0.12335206  0.99803734  1
  La  La26  1  0.00558400  0.87261647  0.00332117  1
  La  La27  1  0.49374069  0.62849162  0.49919207  1
  La  La28  1  0.33017204  0.62798605  1.00136050  1
  La  La29  1  -0.00621510  0.12074852  0.66777650  1
  Pr  Pr30  1  -0.01165232  0.12649760  0.32802211  1
  Pr  Pr31  1  0.32882163  0.12000937  1.00037547  1
  Pr  Pr32  1  0.82527834  0.12355658  0.50093410  1
  Pr  Pr33  1  0.49092265  0.62595265  0.16774431  1
  Pr  Pr34  1  0.84188911  0.37308485  0.16368827  1
  Pr  Pr35  1  0.83819083  0.87797453  0.49600656  1
  Pr  Pr36  1  0.00694079  0.37742246  0.00230736  1
  Pr  Pr37  1  0.50923411  0.37589325  0.49694724  1
  Pr  Pr38  1  -0.00789650  0.62937676  0.66897738  1
  Pr  Pr39  1  0.16089874  0.12779753  0.50164735  1
  Pr  Pr40  1  0.83657246  0.87769262  0.16196316  1
  Pr  Pr41  1  0.49304227  0.12459555  0.16704759  1
  Pr  Pr42  1  0.67301257  0.87592581  0.00542773  1
  Pr  Pr43  1  0.00870615  0.37316417  0.33476880  1
  Pr  Pr44  1  0.16385240  0.12564428  0.83969097  1
  Pr  Pr45  1  0.49831279  0.62334760  0.83184930  1
  Pr  Pr46  1  0.33958446  0.37516892  0.32961144  1
  Pr  Pr47  1  0.32485979  0.62584201  0.66337101  1
  Pr  Pr48  1  0.67702184  0.37579661  0.33681490  1
  Pr  Pr49  1  0.15674128  0.62218007  0.50054088  1
  Pr  Pr50  1  0.17514179  0.37461785  0.83218799  1
  Pr  Pr51  1  0.00583435  0.37616645  0.67281921  1
  Pr  Pr52  1  0.84317808  0.37127747  0.50161756  1
  Pr  Pr53  1  0.50627399  0.37820174  0.15864094  1
  Pr  Pr54  1  0.33214317  0.87431111  0.33004959  1
  Pr  Pr55  1  0.65466597  0.62546188  0.32878238  1
  Pr  Pr56  1  0.16954569  0.87455958  0.49867674  1
  Pr  Pr57  1  -0.00258418  0.62541046  1.00193941  1
  Pr  Pr58  1  0.00482837  0.87688016  0.33191720  1
  Pr  Pr59  1  0.00690374  0.87330385  0.67063204  1
  Pr  Pr60  1  0.34121761  0.87531989  0.67058508  1
  Pr  Pr61  1  0.67340563  0.37454543  -0.00003018  1
  Pr  Pr62  1  0.82543487  0.12685741  0.83773515  1
  Pr  Pr63  1  0.34197889  0.37363364  0.67150278  1
  Pr  Pr64  1  0.16370357  0.62462684  0.83973020  1
  Pr  Pr65  1  0.65943930  0.62628432  0.99929131  1
  Pr  Pr66  1  0.67099712  0.87785402  0.66705907  1
  Pr  Pr67  1  0.17742246  0.37517222  0.49968810  1
  Pr  Pr68  1  -0.00704036  0.62401362  0.32779055  1
  Pr  Pr69  1  0.33175496  0.12157705  0.66632983  1
  Pr  Pr70  1  0.66220428  0.62424820  0.66916203  1
  Pr  Pr71  1  -0.00500446  0.12428971  0.99860223  1
  Mn  Mn72  1  -0.00155865  0.00214916  0.16719840  1
  Mn  Mn73  1  0.00040472  0.00106795  0.49898781  1
  Mn  Mn74  1  0.00108168  0.00032661  0.83270997  1
  Mn  Mn75  1  -0.00151246  0.49868210  0.16848624  1
  Mn  Mn76  1  -0.00026027  0.49912102  0.50156447  1
  Mn  Mn77  1  0.00343356  0.50008339  0.83546714  1
  Mn  Mn78  1  0.33270354  0.00021640  0.16551150  1
  Mn  Mn79  1  0.32832331  -0.00002223  0.49866599  1
  Mn  Mn80  1  0.33266934  -0.00015416  0.83241617  1
  Mn  Mn81  1  0.33358791  0.49815736  0.16644383  1
  Mn  Mn82  1  0.33314492  0.50006946  0.50012119  1
  Mn  Mn83  1  0.33171870  0.50196926  0.83012010  1
  Mn  Mn84  1  0.66706801  0.00248740  0.16681159  1
  Mn  Mn85  1  0.66781791  -0.00179185  0.49957352  1
  Mn  Mn86  1  0.66746931  -0.00282646  0.83473266  1
  Mn  Mn87  1  0.66823066  0.49958015  0.16864310  1
  Mn  Mn88  1  0.66881240  0.50099418  0.49765581  1
  Mn  Mn89  1  0.66750147  0.50212182  0.83392119  1
  Mn  Mn90  1  -0.00071992  0.24969225  0.16688693  1
  Mn  Mn91  1  0.00099172  0.24836910  0.50213962  1
  Mn  Mn92  1  0.00242358  0.24897940  0.83357680  1
  Mn  Mn93  1  -0.00231344  0.74988307  0.16883324  1
  Mn  Mn94  1  -0.00086548  0.75069663  0.49814611  1
  Mn  Mn95  1  0.00212243  0.75029701  0.83478972  1
  Mn  Mn96  1  0.33417929  0.25103987  0.16685489  1
  Mn  Mn97  1  0.33273050  0.25276802  0.49969078  1
  Mn  Mn98  1  0.33206537  0.24878233  0.83182257  1
  Mn  Mn99  1  0.33186994  0.75108989  0.16529712  1
  Mn  Mn100  1  0.32832652  0.74850966  0.49971403  1
  Mn  Mn101  1  0.33288347  0.74730339  0.83118990  1
  Mn  Mn102  1  0.66550580  0.25142831  0.16853908  1
  Mn  Mn103  1  0.66827168  0.25311771  0.49837153  1
  Mn  Mn104  1  0.66747318  0.24972921  0.83471167  1
  Mn  Mn105  1  0.66925002  0.74747178  0.16664273  1
  Mn  Mn106  1  0.66818728  0.74724232  0.49922604  1
  Mn  Mn107  1  0.66671708  0.75044337  0.83369091  1
  Mn  Mn108  1  0.16651241  0.25050389  0.00088788  1
  Mn  Mn109  1  0.16727359  0.25109311  0.33587116  1
  Mn  Mn110  1  0.16566573  0.24945314  0.66722583  1
  Mn  Mn111  1  0.16738566  0.74954173  0.00152390  1
  Mn  Mn112  1  0.16358438  0.75311211  0.33338237  1
  Mn  Mn113  1  0.16556207  0.74786382  0.66501667  1
  Mn  Mn114  1  0.50199898  0.25060928  0.00197717  1
  Mn  Mn115  1  0.49998390  0.25214029  0.33043237  1
  Mn  Mn116  1  0.49871467  0.24922009  0.66409871  1
  Mn  Mn117  1  0.50053932  0.74830285  -0.00120703  1
  Mn  Mn118  1  0.49708851  0.74961060  0.33264344  1
  Mn  Mn119  1  0.50041604  0.74818468  0.66534802  1
  Mn  Mn120  1  0.83475579  0.25023139  0.00197516  1
  Mn  Mn121  1  0.83286250  0.25110034  0.33278817  1
  Mn  Mn122  1  0.83694648  0.24829138  0.66646313  1
  Mn  Mn123  1  0.83428440  0.74816682  0.00521101  1
  Mn  Mn124  1  0.83339393  0.74948731  0.33374859  1
  Mn  Mn125  1  0.83242468  0.75021608  0.66492263  1
  Mn  Mn126  1  0.16626592  0.00013841  0.00119912  1
  Mn  Mn127  1  0.16449530  -0.00016742  0.33452652  1
  Mn  Mn128  1  0.16656939  0.00177925  0.66516374  1
  Mn  Mn129  1  0.16722594  0.50014975  0.00135789  1
  Mn  Mn130  1  0.16583934  0.49671227  0.33573737  1
  Mn  Mn131  1  0.16424289  0.50025503  0.66727905  1
  Mn  Mn132  1  0.50081393  -0.00042171  0.00085992  1
  Mn  Mn133  1  0.49719846  0.00097757  0.33228343  1
  Mn  Mn134  1  0.49980883  -0.00138807  0.66569028  1
  Mn  Mn135  1  0.50199982  0.50157834  -0.00024479  1
  Mn  Mn136  1  0.50046930  0.49759242  0.32998253  1
  Mn  Mn137  1  0.49937132  0.50338102  0.66356269  1
  Mn  Mn138  1  0.83520347  0.00176923  0.00161917  1
  Mn  Mn139  1  0.83235776  0.00069288  0.33121761  1
  Mn  Mn140  1  0.83461424  -0.00159408  0.66543639  1
  Mn  Mn141  1  0.83417735  0.49953662  0.00440800  1
  Mn  Mn142  1  0.83448150  0.49827372  0.33527898  1
  Mn  Mn143  1  0.83496849  0.50215643  0.66547670  1
  O  O144  1  0.17514202  0.12595921  0.00966938  1
  O  O145  1  0.17488049  0.12582837  0.35855491  1
  O  O146  1  0.17456824  0.12812133  0.69345593  1
  O  O147  1  0.17362541  0.62367400  0.01226044  1
  O  O148  1  0.15971978  0.62256355  0.35679853  1
  O  O149  1  0.17279763  0.62155785  0.69462507  1
  O  O150  1  0.51050852  0.12733110  0.02188965  1
  O  O151  1  0.49905438  0.12857025  0.34412294  1
  O  O152  1  0.49379587  0.12286817  0.67113215  1
  O  O153  1  0.51029285  0.62378665  0.02466983  1
  O  O154  1  0.50246634  0.62084675  0.35314923  1
  O  O155  1  0.51058851  0.62618651  0.68516844  1
  O  O156  1  0.84440862  0.12647691  0.01974656  1
  O  O157  1  0.83929480  0.12690906  0.35852882  1
  O  O158  1  0.84185502  0.11995468  0.69054498  1
  O  O159  1  0.84680621  0.62262103  0.02164809  1
  O  O160  1  0.84485024  0.61880254  0.36077420  1
  O  O161  1  0.84278406  0.62670860  0.67859668  1
  O  O162  1  0.15446081  0.37355068  0.31764341  1
  O  O163  1  0.15327249  0.37592434  0.64038212  1
  O  O164  1  0.15758447  0.37573732  0.97740271  1
  O  O165  1  0.15531728  0.87916316  0.31207636  1
  O  O166  1  0.15667806  0.87506536  0.64080146  1
  O  O167  1  0.15880862  0.87521680  0.99089769  1
  O  O168  1  0.49881511  0.37461462  0.30375136  1
  O  O169  1  0.48975900  0.37990300  0.64247701  1
  O  O170  1  0.50221639  0.37731945  0.99023635  1
  O  O171  1  0.48952597  0.87631481  0.32302939  1
  O  O172  1  0.48884635  0.87108043  0.65541213  1
  O  O173  1  0.49832557  0.87152088  0.99119485  1
  O  O174  1  0.82712212  0.37451873  0.30671780  1
  O  O175  1  0.84358245  0.37801113  0.64613240  1
  O  O176  1  0.82481576  0.37479039  0.98803270  1
  O  O177  1  0.83622321  0.87984600  0.30696531  1
  O  O178  1  0.82900876  0.87335310  0.64021038  1
  O  O179  1  0.82433617  0.87558497  0.99350172  1
  O  O180  1  -0.00492941  0.37314466  0.19098196  1
  O  O181  1  -0.00647730  0.36911072  0.53092105  1
  O  O182  1  0.00873715  0.37366779  0.85682561  1
  O  O183  1  -0.00526425  0.87769241  0.18890463  1
  O  O184  1  -0.00288327  0.87608111  0.52824457  1
  O  O185  1  0.00339671  0.87645524  0.85513914  1
  O  O186  1  0.34519645  0.37404173  0.18356195  1
  O  O187  1  0.32962595  0.37853446  0.52854609  1
  O  O188  1  0.33139641  0.37572956  0.84147314  1
  O  O189  1  0.33403912  0.87740669  0.18309804  1
  O  O190  1  0.32072477  0.87059189  0.52795628  1
  O  O191  1  0.33610655  0.87040839  0.84565888  1
  O  O192  1  0.65972608  0.37601576  0.19511141  1
  O  O193  1  0.65959369  0.37855200  0.51049452  1
  O  O194  1  0.66995933  0.37778887  0.85372550  1
  O  O195  1  0.67709723  0.87450418  0.17585603  1
  O  O196  1  0.67541817  0.86760906  0.52092347  1
  O  O197  1  0.66914827  0.87183049  0.85887569  1
  O  O198  1  -0.00444097  0.12784469  0.14410386  1
  O  O199  1  0.00720445  0.12562993  0.47013172  1
  O  O200  1  0.00605588  0.12536317  0.81079832  1
  O  O201  1  -0.00434619  0.62223971  0.14749172  1
  O  O202  1  0.00443335  0.62904430  0.47027181  1
  O  O203  1  0.00690440  0.62372753  0.81361347  1
  O  O204  1  0.33664475  0.12752164  0.14762336  1
  O  O205  1  0.32334042  0.12970403  0.47471426  1
  O  O206  1  0.32008178  0.12712943  0.81099076  1
  O  O207  1  0.33526087  0.62282480  0.15049355  1
  O  O208  1  0.32910759  0.62302811  0.48532803  1
  O  O209  1  0.31933181  0.62365110  0.80796779  1
  O  O210  1  0.66187289  0.12973637  0.14331692  1
  O  O211  1  0.67533696  0.13115355  0.47882783  1
  O  O212  1  0.67331352  0.12241797  0.82755040  1
  O  O213  1  0.66876081  0.62107328  0.14336217  1
  O  O214  1  0.67537536  0.62161528  0.47169452  1
  O  O215  1  0.66092736  0.62792989  0.81384827  1
  O  O216  1  0.07197665  0.01940086  0.26408892  1
  O  O217  1  0.07932560  0.02438347  0.58580527  1
  O  O218  1  0.08034908  0.02128714  0.92161610  1
  O  O219  1  0.07117795  0.51092335  0.26441938  1
  O  O220  1  0.07452014  0.52642555  0.59451078  1
  O  O221  1  0.08129270  0.52326015  0.92217180  1
  O  O222  1  0.41320738  0.02046513  0.24958663  1
  O  O223  1  0.40315194  0.00969540  0.58697762  1
  O  O224  1  0.41000522  0.01596180  0.92474812  1
  O  O225  1  0.41738108  0.51302442  0.24972297  1
  O  O226  1  0.41306982  0.52559668  0.58510059  1
  O  O227  1  0.41373834  0.52568868  0.91714203  1
  O  O228  1  0.74144477  0.02356369  0.25713494  1
  O  O229  1  0.75387038  0.01324195  0.58165527  1
  O  O230  1  0.75140057  0.01868286  0.92340206  1
  O  O231  1  0.73867620  0.51616196  0.26626164  1
  O  O232  1  0.74576225  0.52074052  0.58795096  1
  O  O233  1  0.74285214  0.51609500  0.93345101  1
  O  O234  1  0.25009486  0.24525046  0.25262691  1
  O  O235  1  0.23624799  0.23494660  0.57558590  1
  O  O236  1  0.24062275  0.23935468  0.90516638  1
  O  O237  1  0.24637370  0.74999217  0.25014843  1
  O  O238  1  0.23890661  0.72532754  0.57564447  1
  O  O239  1  0.24808943  0.73117898  0.91148936  1
  O  O240  1  0.57370649  0.23057422  0.24039524  1
  O  O241  1  0.57692562  0.24904165  0.57320071  1
  O  O242  1  0.58685422  0.24102066  0.92314342  1
  O  O243  1  0.58001149  0.72929923  0.24141995  1
  O  O244  1  0.57958855  0.72677100  0.57511774  1
  O  O245  1  0.57579512  0.72741860  0.91021160  1
  O  O246  1  0.90774033  0.23498536  0.24458226  1
  O  O247  1  0.91226737  0.22376536  0.57314045  1
  O  O248  1  0.91481675  0.22918339  0.90828997  1
  O  O249  1  0.91132083  0.73190635  0.24823922  1
  O  O250  1  0.91190634  0.73216558  0.57337289  1
  O  O251  1  0.92188587  0.73995677  0.92580522  1
  O  O252  1  0.08211176  0.48390914  0.08427185  1
  O  O253  1  0.09094399  0.47836952  0.43172756  1
  O  O254  1  0.09180706  0.47916801  0.75859317  1
  O  O255  1  0.08249579  0.98871335  0.08498880  1
  O  O256  1  0.08768965  0.97848368  0.42537513  1
  O  O257  1  0.08479006  0.98860379  0.74597033  1
  O  O258  1  0.42868606  0.49350014  0.08924925  1
  O  O259  1  0.42435419  0.47655027  0.41744149  1
  O  O260  1  0.41357930  0.49679277  0.74474958  1
  O  O261  1  0.42003050  1.00010979  0.08411946  1
  O  O262  1  0.40553542  0.99040477  0.41171497  1
  O  O263  1  0.41427589  0.99352773  0.74749259  1
  O  O264  1  0.75733074  0.47826960  0.09795941  1
  O  O265  1  0.76175343  0.47568980  0.42574289  1
  O  O266  1  0.75387472  0.49847974  0.75048190  1
  O  O267  1  0.75654783  0.99023913  0.09012236  1
  O  O268  1  0.76159278  0.98683064  0.42313792  1
  O  O269  1  0.75091675  0.98412008  0.74873683  1
  O  O270  1  0.25508263  0.26015527  0.08120389  1
  O  O271  1  0.25863679  0.27781419  0.41247867  1
  O  O272  1  0.25282890  0.27463214  0.73916469  1
  O  O273  1  0.25420161  0.76115752  0.07804228  1
  O  O274  1  0.24792822  0.77433534  0.41315463  1
  O  O275  1  0.25836240  0.76494429  0.73401672  1
  O  O276  1  0.59302318  0.27501289  0.08118406  1
  O  O277  1  0.59104541  0.26857902  0.40500139  1
  O  O278  1  0.58266672  0.25702686  0.74605178  1
  O  O279  1  0.59892592  0.76104531  0.07126093  1
  O  O280  1  0.58727968  0.75128717  0.41327459  1
  O  O281  1  0.59273102  0.76552192  0.73487059  1
  O  O282  1  0.92324813  0.27358018  0.07558294  1
  O  O283  1  0.92578538  0.27138098  0.41147639  1
  O  O284  1  0.93317409  0.26274129  0.73904624  1
  O  O285  1  0.92002775  0.77291129  0.08436772  1
  O  O286  1  0.92380604  0.77564846  0.41134000  1
  O  O287  1  0.92493476  0.76396512  0.73877312  1
  O  O288  1  0.25251261  0.48968825  0.08102243  1
  O  O289  1  0.25425377  0.47529929  0.41310466  1
  O  O290  1  0.25148338  0.47478949  0.73955408  1
  O  O291  1  0.25505593  0.99046257  0.07841052  1
  O  O292  1  0.24855713  0.97365785  0.41453494  1
  O  O293  1  0.25683461  0.98278629  0.73449263  1
  O  O294  1  0.59574108  0.48004884  0.07743544  1
  O  O295  1  0.59052241  0.48198381  0.40385145  1
  O  O296  1  0.58304791  0.49464726  0.74313401  1
  O  O297  1  0.59462367  0.98738230  0.07597840  1
  O  O298  1  0.58755184  0.99737620  0.41274848  1
  O  O299  1  0.58879463  0.98318249  0.74505389  1
  O  O300  1  0.92069571  0.47502302  0.08138289  1
  O  O301  1  0.92407704  0.47222348  0.41008402  1
  O  O302  1  0.93074740  0.49026969  0.73962382  1
  O  O303  1  0.92162052  0.97905520  0.07709435  1
  O  O304  1  0.92390268  0.97975420  0.41088488  1
  O  O305  1  0.92541852  0.98099048  0.73667579  1
  O  O306  1  0.08370819  0.26743138  0.08617402  1
  O  O307  1  0.09265672  0.26994229  0.43215659  1
  O  O308  1  0.09353653  0.26940358  0.75949949  1
  O  O309  1  0.07960966  0.76085176  0.08538657  1
  O  O310  1  0.08664530  0.77435476  0.42462498  1
  O  O311  1  0.08450635  0.76052382  0.74588716  1
  O  O312  1  0.43216470  0.25880843  0.09651860  1
  O  O313  1  0.42482620  0.27724160  0.41944173  1
  O  O314  1  0.41353083  0.25906254  0.74814178  1
  O  O315  1  0.41741948  0.74916490  0.08001406  1
  O  O316  1  0.40923360  0.76035803  0.41783502  1
  O  O317  1  0.41870777  0.74847678  0.75033373  1
  O  O318  1  0.75484892  0.26949054  0.09566838  1
  O  O319  1  0.75896625  0.27349788  0.42176104  1
  O  O320  1  0.75959532  0.25230563  0.75640047  1
  O  O321  1  0.76077234  0.76188529  0.09584863  1
  O  O322  1  0.76389138  0.76317409  0.42869476  1
  O  O323  1  0.75075974  0.76307354  0.74739651  1
  O  O324  1  0.25241497  0.01004248  0.25538091  1
  O  O325  1  0.24095573  0.02446342  0.57631600  1
  O  O326  1  0.24600333  0.01649648  0.91141707  1
  O  O327  1  0.24690166  0.49627931  0.25167437  1
  O  O328  1  0.23737415  0.51891857  0.57865112  1
  O  O329  1  0.24344970  0.51232203  0.90819782  1
  O  O330  1  0.57906604  0.01843997  0.24327211  1
  O  O331  1  0.58501162  -0.00155833  0.58432453  1
  O  O332  1  0.58599742  0.00861479  0.92059285  1
  O  O333  1  0.57682918  0.52258870  0.24047321  1
  O  O334  1  0.57694507  0.52014998  0.57098181  1
  O  O335  1  0.57912504  0.52233936  0.91410277  1
  O  O336  1  0.90968516  0.02094628  0.24621575  1
  O  O337  1  0.91307209  0.02167193  0.57320645  1
  O  O338  1  0.91483790  0.02140510  0.91279276  1
  O  O339  1  0.90923342  0.51405194  0.24787101  1
  O  O340  1  0.91091237  0.52020271  0.57286482  1
  O  O341  1  0.92316187  0.50964411  0.92132882  1
  O  O342  1  0.07050169  0.23474205  0.26515739  1
  O  O343  1  0.07533391  0.22445578  0.59445997  1
  O  O344  1  0.07623005  0.22683003  0.92216788  1
  O  O345  1  0.07054339  0.73626709  0.26145378  1
  O  O346  1  0.07693567  0.72539102  0.58618532  1
  O  O347  1  0.08351120  0.72923612  0.92113083  1
  O  O348  1  0.40846117  0.23203542  0.25844726  1
  O  O349  1  0.40130511  0.23679164  0.58989515  1
  O  O350  1  0.40773654  0.23061700  0.92661017  1
  O  O351  1  0.41608647  0.73722686  0.24571893  1
  O  O352  1  0.40974272  0.72867148  0.58726706  1
  O  O353  1  0.41357882  0.72149737  0.91605105  1
  O  O354  1  0.73525261  0.23309222  0.26082454  1
  O  O355  1  0.75436748  0.24153240  0.57943162  1
  O  O356  1  0.74917352  0.23087366  0.92686466  1
  O  O357  1  0.74213717  0.72635573  0.26171786  1
  O  O358  1  0.74275553  0.72531162  0.58866564  1
  O  O359  1  0.74257481  0.73432298  0.93264678  1
