# generated using pymatgen
data_Ba17Sr5La8Pr42Mn72O216
_symmetry_space_group_name_H-M   'P 1'
_cell_length_a   16.69373997
_cell_length_b   15.71983868
_cell_length_c   16.82681300
_cell_angle_alpha   90.00831425
_cell_angle_beta   89.97914210
_cell_angle_gamma   89.99088495
_symmetry_Int_Tables_number   1
_chemical_formula_structural   Ba17Sr5La8Pr42Mn72O216
_chemical_formula_sum   'Ba17 Sr5 La8 Pr42 Mn72 O216'
_cell_volume   4415.74066023
_cell_formula_units_Z   1
loop_
 _symmetry_equiv_pos_site_id
 _symmetry_equiv_pos_as_xyz
  1  'x, y, z'
loop_
 _atom_site_type_symbol
 _atom_site_label
 _atom_site_symmetry_multiplicity
 _atom_site_fract_x
 _atom_site_fract_y
 _atom_site_fract_z
 _atom_site_occupancy
  Ba  Ba0  1  0.83666596  0.62359626  0.83178953  1
  Ba  Ba1  1  0.82698427  0.87488259  0.83326880  1
  Ba  Ba2  1  0.33590848  0.62467172  0.66770597  1
  Ba  Ba3  1  0.33619731  0.12601809  0.33364523  1
  Ba  Ba4  1  0.83149937  0.37658751  0.16637706  1
  Ba  Ba5  1  0.00216485  0.12327156  0.66463226  1
  Ba  Ba6  1  0.50112448  0.12569955  0.16916099  1
  Ba  Ba7  1  -0.00116675  0.62550712  0.66467776  1
  Ba  Ba8  1  0.66745547  0.12467736  0.33258461  1
  Ba  Ba9  1  0.00461957  0.62552382  0.33326009  1
  Ba  Ba10  1  0.49824281  0.87453771  0.50045802  1
  Ba  Ba11  1  0.00350664  0.12434788  0.33070339  1
  Ba  Ba12  1  0.83211737  0.87398285  0.49882863  1
  Ba  Ba13  1  -0.00003116  0.37520640  0.33221935  1
  Ba  Ba14  1  0.66397646  0.87570959  0.33413468  1
  Ba  Ba15  1  0.16641621  0.37543714  0.50094975  1
  Ba  Ba16  1  0.83017915  0.87446302  0.16499171  1
  Sr  Sr17  1  0.65720841  0.37637279  0.67148300  1
  Sr  Sr18  1  0.00476965  0.12513988  0.99789451  1
  Sr  Sr19  1  0.48980682  0.37467242  0.83159536  1
  Sr  Sr20  1  0.83852449  0.62502139  0.50203514  1
  Sr  Sr21  1  0.49575712  0.87748675  0.16942161  1
  La  La22  1  -0.00956203  0.87607188  -0.00040798  1
  La  La23  1  0.84223339  0.12503145  0.83491040  1
  La  La24  1  0.16906704  0.62110551  0.50222620  1
  La  La25  1  0.83242553  0.37721062  0.49497993  1
  La  La26  1  0.33928328  0.12595137  0.66410912  1
  La  La27  1  0.49476205  0.37521184  0.50351001  1
  La  La28  1  0.16066073  0.87690465  0.16619820  1
  La  La29  1  0.67492452  0.62829343  0.33787824  1
  Pr  Pr30  1  0.83616043  0.12510441  0.17054569  1
  Pr  Pr31  1  0.49254602  0.37129105  0.16725644  1
  Pr  Pr32  1  -0.01140407  0.37428045  0.66453279  1
  Pr  Pr33  1  0.51161146  0.12802368  0.83840454  1
  Pr  Pr34  1  0.82482827  0.37419543  0.82992447  1
  Pr  Pr35  1  0.67303463  0.62303144  0.66608681  1
  Pr  Pr36  1  0.67739306  0.62381830  0.99950360  1
  Pr  Pr37  1  0.84231088  0.62603470  0.16772513  1
  Pr  Pr38  1  -0.01529018  0.87471642  0.66737157  1
  Pr  Pr39  1  0.17415678  0.62582803  0.16744668  1
  Pr  Pr40  1  0.50920320  0.62543462  0.50651927  1
  Pr  Pr41  1  0.50909257  0.62391448  0.17024182  1
  Pr  Pr42  1  0.32049968  0.87335495  0.66915228  1
  Pr  Pr43  1  0.34631223  0.62657653  0.99400411  1
  Pr  Pr44  1  0.84012001  0.12361435  0.49689105  1
  Pr  Pr45  1  0.66131486  0.37420041  0.33897436  1
  Pr  Pr46  1  0.34430991  0.12361358  0.99892353  1
  Pr  Pr47  1  0.33050664  0.37252727  0.33488045  1
  Pr  Pr48  1  0.15379991  0.87460633  0.83011749  1
  Pr  Pr49  1  0.32363205  0.87514142  0.00456076  1
  Pr  Pr50  1  0.32352733  0.37549999  0.00160051  1
  Pr  Pr51  1  0.16260581  0.87407204  0.49872511  1
  Pr  Pr52  1  0.32410204  0.37635351  0.67137557  1
  Pr  Pr53  1  0.15750349  0.37481591  0.82846433  1
  Pr  Pr54  1  0.51011003  0.12409470  0.50082460  1
  Pr  Pr55  1  0.66032016  0.87355260  0.66915861  1
  Pr  Pr56  1  0.67669036  0.12630363  1.00121562  1
  Pr  Pr57  1  0.00622235  0.62517151  0.99548165  1
  Pr  Pr58  1  0.67414925  0.12724201  0.66438474  1
  Pr  Pr59  1  -0.00889578  0.37514055  0.00293834  1
  Pr  Pr60  1  0.65717038  0.37795520  0.00330580  1
  Pr  Pr61  1  -0.00701455  0.87457149  0.33263223  1
  Pr  Pr62  1  0.49133644  0.87497368  0.83008042  1
  Pr  Pr63  1  0.15878367  0.37366715  0.16679687  1
  Pr  Pr64  1  0.33885243  0.62361010  0.33539164  1
  Pr  Pr65  1  0.17253715  0.12973268  0.49943869  1
  Pr  Pr66  1  0.17664798  0.12410178  0.83797317  1
  Pr  Pr67  1  0.65711802  0.87239426  0.00694079  1
  Pr  Pr68  1  0.33331218  0.87772248  0.33410880  1
  Pr  Pr69  1  0.17561721  0.62543889  0.83641127  1
  Pr  Pr70  1  0.16997869  0.12484416  0.16916892  1
  Pr  Pr71  1  0.51169306  0.62149903  0.83612415  1
  Mn  Mn72  1  0.00066970  0.00092194  0.16275905  1
  Mn  Mn73  1  0.00358930  -0.00101392  0.49788360  1
  Mn  Mn74  1  0.00080943  0.00155076  0.83268113  1
  Mn  Mn75  1  0.00320269  0.50119445  0.16206147  1
  Mn  Mn76  1  0.00032030  0.50041742  0.49990413  1
  Mn  Mn77  1  0.00204697  0.49862529  0.83304818  1
  Mn  Mn78  1  0.33235080  -0.00208016  0.16570368  1
  Mn  Mn79  1  0.33386014  -0.00042939  0.50270671  1
  Mn  Mn80  1  0.33359614  -0.00138055  0.83331270  1
  Mn  Mn81  1  0.33258661  0.50162130  0.16511611  1
  Mn  Mn82  1  0.33542710  0.49978523  0.50027731  1
  Mn  Mn83  1  0.33334268  0.49992043  0.83598280  1
  Mn  Mn84  1  0.66457924  -0.00073352  0.16438176  1
  Mn  Mn85  1  0.66789395  0.00283324  0.50248221  1
  Mn  Mn86  1  0.66398418  0.00146540  0.83464936  1
  Mn  Mn87  1  0.66552780  0.50091747  0.16936444  1
  Mn  Mn88  1  0.66587520  0.49717261  0.50330121  1
  Mn  Mn89  1  0.66532587  0.49717802  0.83519853  1
  Mn  Mn90  1  0.00094242  0.24920969  0.16209378  1
  Mn  Mn91  1  0.00058275  0.24869204  0.50005817  1
  Mn  Mn92  1  0.00120058  0.25035244  0.83380155  1
  Mn  Mn93  1  0.00279442  0.74945764  0.16332946  1
  Mn  Mn94  1  0.00243486  0.75085856  0.49881309  1
  Mn  Mn95  1  0.00122571  0.74885795  0.83174527  1
  Mn  Mn96  1  0.33033443  0.25311983  0.16535824  1
  Mn  Mn97  1  0.33598718  0.24998899  0.50231449  1
  Mn  Mn98  1  0.33255044  0.24892220  0.83392318  1
  Mn  Mn99  1  0.33392377  0.74758921  0.16572740  1
  Mn  Mn100  1  0.33317293  0.75009944  0.50035056  1
  Mn  Mn101  1  0.33386464  0.75112564  0.83562937  1
  Mn  Mn102  1  0.66626307  0.25364977  0.16700552  1
  Mn  Mn103  1  0.66736269  0.25216460  0.50338396  1
  Mn  Mn104  1  0.66626018  0.25035223  0.83351689  1
  Mn  Mn105  1  0.66432944  0.74843403  0.16622497  1
  Mn  Mn106  1  0.66717884  0.74861551  0.50223314  1
  Mn  Mn107  1  0.66366991  0.74976338  0.83647671  1
  Mn  Mn108  1  0.16794620  0.24966767  -0.00164481  1
  Mn  Mn109  1  0.16829302  0.24957202  0.33268606  1
  Mn  Mn110  1  0.16604969  0.24888854  0.66968175  1
  Mn  Mn111  1  0.16706090  0.75090253  -0.00007798  1
  Mn  Mn112  1  0.17113275  0.75116302  0.33246613  1
  Mn  Mn113  1  0.16469392  0.75052997  0.66628920  1
  Mn  Mn114  1  0.50046592  0.25216916  -0.00082152  1
  Mn  Mn115  1  0.50038579  0.25383438  0.33460091  1
  Mn  Mn116  1  0.49825105  0.24995804  0.66998816  1
  Mn  Mn117  1  0.49968462  0.74943577  0.00064578  1
  Mn  Mn118  1  0.49829249  0.74666594  0.33465135  1
  Mn  Mn119  1  0.49903047  0.74987468  0.66957806  1
  Mn  Mn120  1  0.83352089  0.24977182  -0.00187347  1
  Mn  Mn121  1  0.83211505  0.25146741  0.33216511  1
  Mn  Mn122  1  0.83091904  0.25098794  0.66576761  1
  Mn  Mn123  1  0.83278198  0.74901675  -0.00026961  1
  Mn  Mn124  1  0.83456423  0.74799537  0.33301029  1
  Mn  Mn125  1  0.82969787  0.74963031  0.66551912  1
  Mn  Mn126  1  0.16766134  0.00045623  -0.00106573  1
  Mn  Mn127  1  0.16863807  -0.00267396  0.33213268  1
  Mn  Mn128  1  0.16650645  -0.00042773  0.66685500  1
  Mn  Mn129  1  0.16793006  0.49927388  -0.00104938  1
  Mn  Mn130  1  0.17104614  0.50232577  0.33222448  1
  Mn  Mn131  1  0.16461781  0.49996668  0.66846181  1
  Mn  Mn132  1  0.50078982  0.00033951  -0.00189730  1
  Mn  Mn133  1  0.49887700  -0.00129430  0.33364354  1
  Mn  Mn134  1  0.49887196  0.00120571  0.67006187  1
  Mn  Mn135  1  0.49925626  0.49826592  0.00262393  1
  Mn  Mn136  1  0.50035953  0.50073665  0.33540947  1
  Mn  Mn137  1  0.49881717  0.49880293  0.66976959  1
  Mn  Mn138  1  0.83274105  0.00164331  -0.00093992  1
  Mn  Mn139  1  0.83425211  0.00073942  0.33218377  1
  Mn  Mn140  1  0.82999906  0.00140130  0.66655778  1
  Mn  Mn141  1  0.83342466  0.49927903  -0.00138340  1
  Mn  Mn142  1  0.83272858  0.50175448  0.33252592  1
  Mn  Mn143  1  0.83028275  0.49695376  0.66475225  1
  O  O144  1  0.16604814  0.12659510  0.02555724  1
  O  O145  1  0.16799841  0.11825208  0.35438400  1
  O  O146  1  0.17187780  0.12258661  0.69419207  1
  O  O147  1  0.15621090  0.62708706  0.02322652  1
  O  O148  1  0.17463378  0.62913346  0.35683219  1
  O  O149  1  0.16461811  0.62629399  0.69225743  1
  O  O150  1  0.49305676  0.12672096  0.01264583  1
  O  O151  1  0.49883026  0.13210771  0.35505421  1
  O  O152  1  0.49127356  0.12543566  0.69580883  1
  O  O153  1  0.49153263  0.62025330  0.02720246  1
  O  O154  1  0.48960076  0.62066752  0.36235580  1
  O  O155  1  0.50331865  0.62470866  0.69191747  1
  O  O156  1  0.82508083  0.12734664  0.02466141  1
  O  O157  1  0.83473943  0.12778818  0.35003233  1
  O  O158  1  0.82604926  0.12836088  0.69189486  1
  O  O159  1  0.82690182  0.62411780  0.02002277  1
  O  O160  1  0.83018214  0.62357420  0.34943351  1
  O  O161  1  0.82611644  0.62295204  0.67622756  1
  O  O162  1  0.17797875  0.37974703  0.31141960  1
  O  O163  1  0.17601542  0.37459527  0.65957556  1
  O  O164  1  0.17662731  0.37276974  0.97128623  1
  O  O165  1  0.18099751  0.87307925  0.30796871  1
  O  O166  1  0.17257766  0.87578086  0.64447559  1
  O  O167  1  0.17644641  0.87406860  0.97342004  1
  O  O168  1  0.50540773  0.38081802  0.31049661  1
  O  O169  1  0.49659108  0.37309106  0.64812912  1
  O  O170  1  0.50698376  0.37631991  0.97925225  1
  O  O171  1  0.49387180  0.86711594  0.31997559  1
  O  O172  1  0.51157372  0.87600766  0.65805854  1
  O  O173  1  0.50753098  0.87677388  0.97356296  1
  O  O174  1  0.82437516  0.37806192  0.32379500  1
  O  O175  1  0.83275842  0.37213745  0.64302710  1
  O  O176  1  0.84081220  0.37371193  0.97516613  1
  O  O177  1  0.83900944  0.87301324  0.32276576  1
  O  O178  1  0.82666191  0.87581070  0.65805103  1
  O  O179  1  0.83778527  0.87387958  0.99025932  1
  O  O180  1  0.00626906  0.37665988  0.17269063  1
  O  O181  1  -0.00261686  0.37220084  0.51749330  1
  O  O182  1  0.00585612  0.37336376  0.86047079  1
  O  O183  1  0.00491132  0.87305736  0.18544357  1
  O  O184  1  0.01216688  0.87659194  0.52354046  1
  O  O185  1  0.00460104  0.87584963  0.85467238  1
  O  O186  1  0.33176760  0.38056581  0.19025905  1
  O  O187  1  0.34118168  0.37486975  0.52793104  1
  O  O188  1  0.32887666  0.37755940  0.85811487  1
  O  O189  1  0.33105541  0.86714124  0.18762098  1
  O  O190  1  0.33182831  0.87647509  0.52620713  1
  O  O191  1  0.34061896  0.87582946  0.86210212  1
  O  O192  1  0.66301910  0.38211323  0.19445562  1
  O  O193  1  0.67228174  0.37469235  0.52349236  1
  O  O194  1  0.67313222  0.37239511  0.85955853  1
  O  O195  1  0.66360155  0.87157451  0.17378888  1
  O  O196  1  0.66669215  0.87884884  0.52505342  1
  O  O197  1  0.65599066  0.87685589  0.85929443  1
  O  O198  1  0.00878558  0.12583745  0.14756196  1
  O  O199  1  -0.00615253  0.12290510  0.48909312  1
  O  O200  1  0.00108780  0.12662112  0.82097562  1
  O  O201  1  0.01093764  0.62533684  0.14084954  1
  O  O202  1  0.00408669  0.62767466  0.49103171  1
  O  O203  1  0.01108463  0.62412500  0.82146376  1
  O  O204  1  0.32546695  0.12907386  0.14141914  1
  O  O205  1  0.32295879  0.12402070  0.49172411  1
  O  O206  1  0.32603502  0.11991359  0.80845122  1
  O  O207  1  0.32692821  0.62373151  0.13537790  1
  O  O208  1  0.32813048  0.62398981  0.47979992  1
  O  O209  1  0.32872296  0.62512557  0.82439607  1
  O  O210  1  0.67091965  0.12578785  0.14456511  1
  O  O211  1  0.65845916  0.12974991  0.49142505  1
  O  O212  1  0.66119514  0.12788270  0.80838828  1
  O  O213  1  0.65748125  0.62309384  0.14121170  1
  O  O214  1  0.65699259  0.61691487  0.48405685  1
  O  O215  1  0.66030746  0.62197260  0.81346570  1
  O  O216  1  0.09243152  0.00908057  0.23689528  1
  O  O217  1  0.10056996  0.01651608  0.56670074  1
  O  O218  1  0.09860967  0.01316817  0.90598903  1
  O  O219  1  0.09765874  0.51152436  0.23535079  1
  O  O220  1  0.08950845  0.51171662  0.57983770  1
  O  O221  1  0.09911022  0.51571072  0.90585846  1
  O  O222  1  0.41507845  0.00256830  0.24529915  1
  O  O223  1  0.42618345  0.02318670  0.57786194  1
  O  O224  1  0.42667643  0.01941194  0.90337160  1
  O  O225  1  0.42243288  0.52042878  0.24018801  1
  O  O226  1  0.42674681  0.51493395  0.57099410  1
  O  O227  1  0.42534919  0.51930376  0.91080568  1
  O  O228  1  0.75581181  0.01433805  0.23757625  1
  O  O229  1  0.75462195  0.02686499  0.58068819  1
  O  O230  1  0.75551261  0.02483882  0.90695224  1
  O  O231  1  0.75321023  0.52601632  0.24266764  1
  O  O232  1  0.74925956  0.51658925  0.57873183  1
  O  O233  1  0.75260142  0.50955060  0.91477545  1
  O  O234  1  0.24769864  0.23647279  0.24545953  1
  O  O235  1  0.25747250  0.23559248  0.59666492  1
  O  O236  1  0.26100818  0.22547239  0.92758716  1
  O  O237  1  0.26076172  0.72477908  0.25609358  1
  O  O238  1  0.25281302  0.73888502  0.58776636  1
  O  O239  1  0.25949945  0.73081098  0.93143658  1
  O  O240  1  0.58593525  0.24848639  0.25636049  1
  O  O241  1  0.58647821  0.23186306  0.59479631  1
  O  O242  1  0.59448598  0.23100287  0.92515034  1
  O  O243  1  0.58680550  0.72494643  0.25728336  1
  O  O244  1  0.59041624  0.73120122  0.59677295  1
  O  O245  1  0.59019877  0.72416295  0.92834204  1
  O  O246  1  0.91635061  0.23740107  0.24457270  1
  O  O247  1  0.91686016  0.23985535  0.58636823  1
  O  O248  1  0.92040698  0.23278096  0.91840041  1
  O  O249  1  0.91936401  0.73443065  0.24445208  1
  O  O250  1  0.92038422  0.75006538  0.58441968  1
  O  O251  1  0.92983919  0.73664131  0.92409343  1
  O  O252  1  0.07823615  0.47852711  0.06862803  1
  O  O253  1  0.08796341  0.49551816  0.41247134  1
  O  O254  1  0.07363152  0.47369215  0.74391393  1
  O  O255  1  0.07864289  0.97745439  0.07250225  1
  O  O256  1  0.08223915  0.97217713  0.40617128  1
  O  O257  1  0.07674315  0.97603629  0.73865876  1
  O  O258  1  0.40687269  0.47543911  0.07555267  1
  O  O259  1  0.41293410  0.47567800  0.40973345  1
  O  O260  1  0.40458856  0.48098560  0.74507382  1
  O  O261  1  0.40589307  0.98505344  0.06865231  1
  O  O262  1  0.40725030  0.98638345  0.41212420  1
  O  O263  1  0.40420478  0.97704288  0.73984084  1
  O  O264  1  0.73526365  0.48537734  0.07578095  1
  O  O265  1  0.73720342  0.48518242  0.41492135  1
  O  O266  1  0.74550757  0.48179946  0.74754422  1
  O  O267  1  0.73715514  0.98765194  0.06674712  1
  O  O268  1  0.75175811  0.99961271  0.41975685  1
  O  O269  1  0.72975917  0.98758565  0.73996498  1
  O  O270  1  0.24342540  0.27567814  0.08642372  1
  O  O271  1  0.25575191  0.26408599  0.41677940  1
  O  O272  1  0.23922025  0.26519941  0.76441469  1
  O  O273  1  0.23801915  0.76759240  0.09293314  1
  O  O274  1  0.24597274  0.77231706  0.42217652  1
  O  O275  1  0.24040652  0.76939136  0.76058339  1
  O  O276  1  0.57850334  0.27406560  0.09078679  1
  O  O277  1  0.57928615  0.27241730  0.42640078  1
  O  O278  1  0.57123873  0.26330024  0.76068131  1
  O  O279  1  0.57121361  0.76331178  0.09010908  1
  O  O280  1  0.57820872  0.74971816  0.42480418  1
  O  O281  1  0.57002093  0.76327320  0.76614815  1
  O  O282  1  0.91655833  0.26063042  0.07930800  1
  O  O283  1  0.90600062  0.26155493  0.42308318  1
  O  O284  1  0.90855167  0.27249391  0.75371415  1
  O  O285  1  0.91559939  0.75203603  0.08301846  1
  O  O286  1  0.92431901  0.76333149  0.41320236  1
  O  O287  1  0.91278020  0.76223249  0.74793512  1
  O  O288  1  0.24006944  0.47925339  0.09089870  1
  O  O289  1  0.25748379  0.48713195  0.41265814  1
  O  O290  1  0.24006197  0.48670623  0.76234123  1
  O  O291  1  0.24317100  0.97896586  0.08756662  1
  O  O292  1  0.24576636  0.97942717  0.42478756  1
  O  O293  1  0.24161813  0.97476399  0.76298523  1
  O  O294  1  0.57154867  0.48033790  0.09673250  1
  O  O295  1  0.57837796  0.47707704  0.42850986  1
  O  O296  1  0.57555542  0.48529340  0.76385436  1
  O  O297  1  0.57779159  0.98290230  0.08293609  1
  O  O298  1  0.57903906  0.99762598  0.42666917  1
  O  O299  1  0.56818161  0.98786090  0.76623353  1
  O  O300  1  0.91616885  0.49425630  0.08012293  1
  O  O301  1  0.90943160  0.48833133  0.42218657  1
  O  O302  1  0.91071847  0.47484447  0.75491224  1
  O  O303  1  0.91655964  0.99312099  0.08215906  1
  O  O304  1  0.92305492  0.98670452  0.41323295  1
  O  O305  1  0.91080060  0.99059816  0.74936101  1
  O  O306  1  0.08096025  0.27279773  0.07055976  1
  O  O307  1  0.08664071  0.25329639  0.41466433  1
  O  O308  1  0.07459854  0.27295590  0.74249385  1
  O  O309  1  0.07649316  0.77446630  0.06952434  1
  O  O310  1  0.08354994  0.77517980  0.40676637  1
  O  O311  1  0.07553002  0.77565435  0.74062897  1
  O  O312  1  0.40808989  0.27260633  0.07738010  1
  O  O313  1  0.41735225  0.27524853  0.41409458  1
  O  O314  1  0.40078400  0.26665170  0.73798902  1
  O  O315  1  0.40258358  0.76595097  0.06860070  1
  O  O316  1  0.40243549  0.76065275  0.40228165  1
  O  O317  1  0.40825546  0.77334022  0.74128222  1
  O  O318  1  0.73886454  0.26878836  0.06807239  1
  O  O319  1  0.74304180  0.26869274  0.41311047  1
  O  O320  1  0.74345937  0.26989645  0.74624958  1
  O  O321  1  0.73577388  0.75844444  0.07310608  1
  O  O322  1  0.74477730  0.75041797  0.41496111  1
  O  O323  1  0.73195331  0.76074110  0.74209943  1
  O  O324  1  0.24920128  0.01427061  0.24809922  1
  O  O325  1  0.26114725  0.01395998  0.59792103  1
  O  O326  1  0.26172654  0.02175083  0.92666082  1
  O  O327  1  0.25789398  0.52683894  0.25207107  1
  O  O328  1  0.25153645  0.51127205  0.58471169  1
  O  O329  1  0.26050584  0.52042928  0.93075863  1
  O  O330  1  0.58401538  0.00469046  0.25029551  1
  O  O331  1  0.59009040  0.02074362  0.59822381  1
  O  O332  1  0.59250381  0.02602773  0.92480377  1
  O  O333  1  0.58956952  0.52591928  0.26130398  1
  O  O334  1  0.58914514  0.51630899  0.59064030  1
  O  O335  1  0.59061679  0.51970448  0.93046394  1
  O  O336  1  0.91814730  0.01280058  0.24418156  1
  O  O337  1  0.91740438  0.00636957  0.58278021  1
  O  O338  1  0.91928085  0.01520748  0.92051964  1
  O  O339  1  0.92018116  0.51695550  0.24141667  1
  O  O340  1  0.91659490  0.50124343  0.58654849  1
  O  O341  1  0.93258297  0.51419870  0.92310875  1
  O  O342  1  0.09179603  0.24144946  0.23625406  1
  O  O343  1  0.09552658  0.23361339  0.57902245  1
  O  O344  1  0.09975307  0.23388196  0.90587534  1
  O  O345  1  0.09836968  0.73861801  0.23636595  1
  O  O346  1  0.09611433  0.73733240  0.57060540  1
  O  O347  1  0.09800927  0.73568436  0.90689663  1
  O  O348  1  0.41649170  0.25169576  0.24628561  1
  O  O349  1  0.42665598  0.22869699  0.57624255  1
  O  O350  1  0.42215165  0.23160144  0.90564344  1
  O  O351  1  0.42267221  0.72298576  0.24007017  1
  O  O352  1  0.42718190  0.73259382  0.57375492  1
  O  O353  1  0.42991703  0.73042665  0.90725338  1
  O  O354  1  0.75633666  0.23546847  0.23963995  1
  O  O355  1  0.75682035  0.22641060  0.57723430  1
  O  O356  1  0.75900221  0.22825647  0.90763899  1
  O  O357  1  0.75262834  0.72769723  0.24157031  1
  O  O358  1  0.74920282  0.73145440  0.58272879  1
  O  O359  1  0.74989344  0.73670868  0.91459824  1
