# generated using pymatgen
data_Ba17Sr5La8Pr42Mn72O216
_symmetry_space_group_name_H-M   'P 1'
_cell_length_a   16.67127206
_cell_length_b   15.70432547
_cell_length_c   16.81382333
_cell_angle_alpha   90.00101432
_cell_angle_beta   90.04928336
_cell_angle_gamma   89.98333400
_symmetry_Int_Tables_number   1
_chemical_formula_structural   Ba17Sr5La8Pr42Mn72O216
_chemical_formula_sum   'Ba17 Sr5 La8 Pr42 Mn72 O216'
_cell_volume   4402.04346929
_cell_formula_units_Z   1
loop_
 _symmetry_equiv_pos_site_id
 _symmetry_equiv_pos_as_xyz
  1  'x, y, z'
loop_
 _atom_site_type_symbol
 _atom_site_label
 _atom_site_symmetry_multiplicity
 _atom_site_fract_x
 _atom_site_fract_y
 _atom_site_fract_z
 _atom_site_occupancy
  Ba  Ba0  1  0.83747240  0.12483546  0.50147992  1
  Ba  Ba1  1  0.33002155  0.37471274  0.00278259  1
  Ba  Ba2  1  0.16358931  0.37437620  0.83649643  1
  Ba  Ba3  1  0.33149884  0.87598683  0.33405808  1
  Ba  Ba4  1  0.33746611  0.12539709  0.66694066  1
  Ba  Ba5  1  0.49652491  0.37521667  0.16342236  1
  Ba  Ba6  1  0.33148537  0.62728767  0.33390965  1
  Ba  Ba7  1  0.50356281  0.12438338  0.83328535  1
  Ba  Ba8  1  0.33565482  0.62492385  0.66369311  1
  Ba  Ba9  1  0.00156715  0.12485167  0.33337710  1
  Ba  Ba10  1  0.66682569  0.62599016  0.99782568  1
  Ba  Ba11  1  0.66692972  0.62518259  0.33060214  1
  Ba  Ba12  1  0.16946288  0.62423067  0.49931289  1
  Ba  Ba13  1  0.83301295  0.62423978  0.16862094  1
  Ba  Ba14  1  0.66856201  0.12489442  0.99814746  1
  Ba  Ba15  1  0.33384357  0.87478380  0.66842596  1
  Ba  Ba16  1  0.83398749  0.12579964  0.16772740  1
  Sr  Sr17  1  0.16299762  0.87489343  0.82871008  1
  Sr  Sr18  1  0.82934900  0.37761380  0.83549083  1
  Sr  Sr19  1  0.83124961  0.37499051  0.16445690  1
  Sr  Sr20  1  -0.00380035  0.37608105  0.00356620  1
  Sr  Sr21  1  0.16263267  0.37554353  0.16035665  1
  La  La22  1  0.66683318  0.37621063  0.32912234  1
  La  La23  1  -0.00447762  0.37431234  0.33009053  1
  La  La24  1  0.17304274  0.62614518  0.83385669  1
  La  La25  1  0.82960144  0.37417224  0.49853962  1
  La  La26  1  0.33003139  0.88020142  0.00161316  1
  La  La27  1  0.16916841  0.12767737  0.16778236  1
  La  La28  1  0.82742011  0.87140612  0.83382500  1
  La  La29  1  0.33003239  0.37663552  0.67045202  1
  Pr  Pr30  1  0.50283727  0.87575592  0.83142867  1
  Pr  Pr31  1  0.66594047  0.37327714  0.00335854  1
  Pr  Pr32  1  -0.00596579  0.37529730  0.67451670  1
  Pr  Pr33  1  0.67264824  0.62472175  0.66174687  1
  Pr  Pr34  1  0.17545798  0.12376466  0.83614272  1
  Pr  Pr35  1  0.17200768  0.12281913  0.50290800  1
  Pr  Pr36  1  0.00371960  0.62390901  0.32924318  1
  Pr  Pr37  1  0.00375332  0.12717472  0.99924029  1
  Pr  Pr38  1  0.50215755  0.62843411  0.50197224  1
  Pr  Pr39  1  0.00974584  0.12572773  0.66493622  1
  Pr  Pr40  1  0.49891885  0.62731251  0.83339986  1
  Pr  Pr41  1  -0.00514297  0.87564833  0.33670721  1
  Pr  Pr42  1  0.33357956  0.62090277  0.99908364  1
  Pr  Pr43  1  0.00372208  0.62184515  1.00033492  1
  Pr  Pr44  1  0.00760446  0.62439123  0.66830093  1
  Pr  Pr45  1  0.66544402  0.87818047  0.66592112  1
  Pr  Pr46  1  0.33642623  0.12496143  0.33393968  1
  Pr  Pr47  1  0.83810808  0.12536081  0.84093107  1
  Pr  Pr48  1  0.66562758  0.87520310  0.33510726  1
  Pr  Pr49  1  0.16105456  0.87406680  0.16495329  1
  Pr  Pr50  1  0.49975320  0.12587462  0.16556978  1
  Pr  Pr51  1  0.16843027  0.62082802  0.16963857  1
  Pr  Pr52  1  0.50859072  0.12027051  0.50382854  1
  Pr  Pr53  1  0.16376181  0.87241366  0.49956042  1
  Pr  Pr54  1  0.50270952  0.37411893  0.83285305  1
  Pr  Pr55  1  0.49448877  0.87497662  0.49693006  1
  Pr  Pr56  1  0.49577641  0.86959942  0.16576407  1
  Pr  Pr57  1  0.49425805  0.37396089  0.49221280  1
  Pr  Pr58  1  0.82449654  0.87522634  0.16800319  1
  Pr  Pr59  1  0.84244617  0.62376011  0.84014961  1
  Pr  Pr60  1  0.66132717  0.87738921  0.00195387  1
  Pr  Pr61  1  0.83030054  0.87559507  0.49932529  1
  Pr  Pr62  1  0.67414187  0.12568600  0.66657384  1
  Pr  Pr63  1  0.32627325  0.37501291  0.33116118  1
  Pr  Pr64  1  -0.00316612  0.87382673  0.67141784  1
  Pr  Pr65  1  0.84010881  0.62491385  0.50146620  1
  Pr  Pr66  1  0.16177367  0.37601974  0.50011447  1
  Pr  Pr67  1  0.66784873  0.12689722  0.32618079  1
  Pr  Pr68  1  0.33759385  0.13070460  0.99585019  1
  Pr  Pr69  1  0.66607925  0.37280343  0.66692955  1
  Pr  Pr70  1  0.49867341  0.62122670  0.16895858  1
  Pr  Pr71  1  -0.00615159  0.87320712  0.00212268  1
  Mn  Mn72  1  0.00019583  -0.00271100  0.16666631  1
  Mn  Mn73  1  0.00128246  -0.00066706  0.50337333  1
  Mn  Mn74  1  0.00031047  -0.00053839  0.83386279  1
  Mn  Mn75  1  -0.00092757  0.50012937  0.16553029  1
  Mn  Mn76  1  -0.00070368  0.49945019  0.50235611  1
  Mn  Mn77  1  -0.00044139  0.49930194  0.83463205  1
  Mn  Mn78  1  0.33183766  -0.00009540  0.16701987  1
  Mn  Mn79  1  0.33349247  0.00035172  0.49986817  1
  Mn  Mn80  1  0.33357543  -0.00117497  0.83590758  1
  Mn  Mn81  1  0.33083428  0.50101770  0.16617854  1
  Mn  Mn82  1  0.33538140  0.49664305  0.50024744  1
  Mn  Mn83  1  0.33493979  0.49974385  0.83207359  1
  Mn  Mn84  1  0.66253466  -0.00114837  0.16780423  1
  Mn  Mn85  1  0.66889094  -0.00077124  0.49953987  1
  Mn  Mn86  1  0.66962865  -0.00193206  0.83287834  1
  Mn  Mn87  1  0.66548553  0.49941106  0.16489053  1
  Mn  Mn88  1  0.66737940  0.50032763  0.49956320  1
  Mn  Mn89  1  0.66689093  0.50080645  0.82990475  1
  Mn  Mn90  1  -0.00005322  0.25058614  0.16546211  1
  Mn  Mn91  1  0.00174437  0.25116703  0.50332096  1
  Mn  Mn92  1  -0.00174858  0.24935579  0.83322155  1
  Mn  Mn93  1  -0.00059365  0.75171929  0.16820771  1
  Mn  Mn94  1  -0.00084951  0.75006628  0.50201807  1
  Mn  Mn95  1  0.00141329  0.75047591  0.83541005  1
  Mn  Mn96  1  0.33160032  0.24638104  0.16720714  1
  Mn  Mn97  1  0.33402523  0.25089004  0.49881188  1
  Mn  Mn98  1  0.33519211  0.25205485  0.83233552  1
  Mn  Mn99  1  0.33018160  0.75288109  0.16318708  1
  Mn  Mn100  1  0.33407072  0.75080112  0.50009793  1
  Mn  Mn101  1  0.33348094  0.74954567  0.83569510  1
  Mn  Mn102  1  0.66524144  0.25020529  0.16529560  1
  Mn  Mn103  1  0.66782635  0.25033781  0.49896028  1
  Mn  Mn104  1  0.66990107  0.25301233  0.83269348  1
  Mn  Mn105  1  0.66269754  0.75134879  0.16637456  1
  Mn  Mn106  1  0.66836999  0.74990318  0.49976634  1
  Mn  Mn107  1  0.66696616  0.74908799  0.82990451  1
  Mn  Mn108  1  0.16301678  0.24847198  0.00193610  1
  Mn  Mn109  1  0.16663157  0.25161904  0.33385854  1
  Mn  Mn110  1  0.16648834  0.25059071  0.66651903  1
  Mn  Mn111  1  0.16585322  0.75218935  -0.00097673  1
  Mn  Mn112  1  0.16366481  0.75139301  0.33127967  1
  Mn  Mn113  1  0.16561907  0.75150183  0.66741948  1
  Mn  Mn114  1  0.50060976  0.25025922  -0.00122610  1
  Mn  Mn115  1  0.49893699  0.24941161  0.33294646  1
  Mn  Mn116  1  0.50465338  0.25091984  0.66183261  1
  Mn  Mn117  1  0.49668942  0.75048480  -0.00170942  1
  Mn  Mn118  1  0.49940513  0.74995759  0.33244062  1
  Mn  Mn119  1  0.50460320  0.75049532  0.66698306  1
  Mn  Mn120  1  0.83520075  0.25120847  0.00056469  1
  Mn  Mn121  1  0.83290103  0.25152457  0.33334565  1
  Mn  Mn122  1  0.83506628  0.25051308  0.67034401  1
  Mn  Mn123  1  0.83320165  0.75016690  0.00090408  1
  Mn  Mn124  1  0.83393522  0.75114581  0.33531781  1
  Mn  Mn125  1  0.83413231  0.74895929  0.66745683  1
  Mn  Mn126  1  0.16387067  -0.00216104  -0.00079958  1
  Mn  Mn127  1  0.16565766  -0.00003377  0.33376592  1
  Mn  Mn128  1  0.16631547  -0.00073131  0.66794939  1
  Mn  Mn129  1  0.16477656  0.50197920  0.00156453  1
  Mn  Mn130  1  0.16495508  0.49703149  0.33144789  1
  Mn  Mn131  1  0.16525382  0.49833550  0.66670073  1
  Mn  Mn132  1  0.49797296  -0.00255911  0.00055066  1
  Mn  Mn133  1  0.50073849  0.00208726  0.33343820  1
  Mn  Mn134  1  0.50405309  0.00029052  0.66612652  1
  Mn  Mn135  1  0.50020569  0.50229871  -0.00230056  1
  Mn  Mn136  1  0.49783596  0.49869601  0.33255304  1
  Mn  Mn137  1  0.50503944  0.49778237  0.66382302  1
  Mn  Mn138  1  0.83495429  -0.00213727  0.00087769  1
  Mn  Mn139  1  0.83255656  -0.00114938  0.33380536  1
  Mn  Mn140  1  0.83585231  -0.00130068  0.67057981  1
  Mn  Mn141  1  0.83361243  0.49967781  0.00046140  1
  Mn  Mn142  1  0.83348550  0.49847823  0.33484853  1
  Mn  Mn143  1  0.83364824  0.50271191  0.66761554  1
  O  O144  1  0.15910484  0.11872749  0.02415026  1
  O  O145  1  0.17117217  0.12861017  0.36051101  1
  O  O146  1  0.16066207  0.12500483  0.68908038  1
  O  O147  1  0.16698693  0.63172621  0.02593430  1
  O  O148  1  0.15835009  0.62447201  0.34413711  1
  O  O149  1  0.16182378  0.62477866  0.68560254  1
  O  O150  1  0.49630057  0.11916185  0.01960639  1
  O  O151  1  0.50744678  0.12649140  0.36074285  1
  O  O152  1  0.51077326  0.12506611  0.67796979  1
  O  O153  1  0.49654843  0.63031337  0.02446482  1
  O  O154  1  0.50063601  0.62119393  0.35702914  1
  O  O155  1  0.51104158  0.62347138  0.68989592  1
  O  O156  1  0.83989106  0.12176682  0.01055760  1
  O  O157  1  0.82362922  0.12417806  0.34342595  1
  O  O158  1  0.82792983  0.12141722  0.69584673  1
  O  O159  1  0.84069237  0.62844162  0.01183340  1
  O  O160  1  0.83895853  0.62587524  0.35676232  1
  O  O161  1  0.82575280  0.62750166  0.69697598  1
  O  O162  1  0.16912328  0.37313004  0.31033469  1
  O  O163  1  0.15785442  0.37314115  0.64778563  1
  O  O164  1  0.16025442  0.37536374  0.99326627  1
  O  O165  1  0.15781457  0.87430520  0.30947225  1
  O  O166  1  0.15561653  0.87695242  0.64757415  1
  O  O167  1  0.16190373  0.87472405  0.97475417  1
  O  O168  1  0.49597792  0.37259753  0.31904304  1
  O  O169  1  0.51285055  0.37341280  0.63460470  1
  O  O170  1  0.50324781  0.37950387  0.97930534  1
  O  O171  1  0.50420712  0.88003147  0.31042413  1
  O  O172  1  0.51118645  0.87673949  0.64062998  1
  O  O173  1  0.49414108  0.87248453  0.97465623  1
  O  O174  1  0.83717608  0.37585582  0.32031655  1
  O  O175  1  0.83964900  0.38083043  0.64196281  1
  O  O176  1  0.82851031  0.37595633  0.98355087  1
  O  O177  1  0.83708656  0.87420590  0.31426325  1
  O  O178  1  0.84067953  0.87172929  0.64132182  1
  O  O179  1  0.83334618  0.87282498  0.97774529  1
  O  O180  1  0.00545525  0.37744399  0.18471345  1
  O  O181  1  0.00445040  0.37319090  0.52991448  1
  O  O182  1  -0.00102077  0.37628820  0.85138773  1
  O  O183  1  0.01111039  0.87334970  0.19296782  1
  O  O184  1  0.00160630  0.87402480  0.52784189  1
  O  O185  1  0.00490419  0.87438095  0.85827683  1
  O  O186  1  0.33049345  0.36888170  0.18664776  1
  O  O187  1  0.34669830  0.37179010  0.52423165  1
  O  O188  1  0.34303582  0.37618071  0.84364927  1
  O  O189  1  0.33652684  0.87754944  0.18005476  1
  O  O190  1  0.34346151  0.87666270  0.50922427  1
  O  O191  1  0.33971897  0.87184241  0.85664791  1
  O  O192  1  0.66481052  0.37348508  0.18235325  1
  O  O193  1  0.67124995  0.37838610  0.52481898  1
  O  O194  1  0.66797608  0.37970778  0.85781421  1
  O  O195  1  0.65779040  0.87551059  0.19007977  1
  O  O196  1  0.67379702  0.87410736  0.52494258  1
  O  O197  1  0.67044264  0.87077144  0.85746058  1
  O  O198  1  0.00243539  0.11837209  0.14485796  1
  O  O199  1  0.00633169  0.12560545  0.48944484  1
  O  O200  1  -0.01313483  0.12165918  0.80741800  1
  O  O201  1  0.00076529  0.63002411  0.14562874  1
  O  O202  1  -0.00777415  0.62805510  0.47265456  1
  O  O203  1  -0.00767992  0.62659781  0.81216457  1
  O  O204  1  0.32904799  0.11947471  0.14188600  1
  O  O205  1  0.32379912  0.12762895  0.47801686  1
  O  O206  1  0.32769645  0.12749756  0.82595659  1
  O  O207  1  0.32522054  0.63316246  0.14318089  1
  O  O208  1  0.34026664  0.62268212  0.49167056  1
  O  O209  1  0.33353299  0.62399513  0.81935493  1
  O  O210  1  0.66046746  0.12298416  0.15582595  1
  O  O211  1  0.66196288  0.12099668  0.47126576  1
  O  O212  1  0.67503241  0.12468503  0.81059826  1
  O  O213  1  0.65686451  0.62802262  0.15533519  1
  O  O214  1  0.66537108  0.62607039  0.48484661  1
  O  O215  1  0.65652338  0.62617448  0.80458624  1
  O  O216  1  0.09331865  0.01444017  0.23921670  1
  O  O217  1  0.09078290  0.01930117  0.57850401  1
  O  O218  1  0.08812808  0.02614368  0.90829161  1
  O  O219  1  0.08372490  0.51894445  0.24558792  1
  O  O220  1  0.08050240  0.51594143  0.58347556  1
  O  O221  1  0.08668233  0.52590695  0.91354265  1
  O  O222  1  0.42089440  0.02663311  0.25088950  1
  O  O223  1  0.42795574  0.01286721  0.57646708  1
  O  O224  1  0.41119877  0.01344505  0.92604867  1
  O  O225  1  0.41740443  0.51736056  0.24494525  1
  O  O226  1  0.43261159  0.51215679  0.57252163  1
  O  O227  1  0.41901391  0.52226174  0.91435860  1
  O  O228  1  0.74272066  0.00408327  0.25480805  1
  O  O229  1  0.75113951  0.01343965  0.58760435  1
  O  O230  1  0.76131723  0.00988039  0.90722399  1
  O  O231  1  0.74904849  0.50144294  0.25025265  1
  O  O232  1  0.75864180  0.52288824  0.57770925  1
  O  O233  1  0.75674499  0.51925537  0.90245997  1
  O  O234  1  0.25769659  0.22859444  0.25937638  1
  O  O235  1  0.25130155  0.24185061  0.58080258  1
  O  O236  1  0.24684919  0.23075526  0.92459551  1
  O  O237  1  0.24217273  0.74142488  0.23927209  1
  O  O238  1  0.24836929  0.75097171  0.58176615  1
  O  O239  1  0.25176119  0.72951043  0.92192587  1
  O  O240  1  0.58090074  0.23057325  0.25096618  1
  O  O241  1  0.59297417  0.22659214  0.58487221  1
  O  O242  1  0.58702458  0.24777360  0.91429516  1
  O  O243  1  0.57446823  0.73812844  0.24387410  1
  O  O244  1  0.59076228  0.73041098  0.58602583  1
  O  O245  1  0.57492581  0.73855604  0.90920680  1
  O  O246  1  0.92222992  0.24710144  0.25395872  1
  O  O247  1  0.92803030  0.23618706  0.59818355  1
  O  O248  1  0.92303886  0.22959739  0.92062699  1
  O  O249  1  0.92571642  0.73837017  0.26339941  1
  O  O250  1  0.91907648  0.72423505  0.59029210  1
  O  O251  1  0.92622807  0.73552226  0.92253079  1
  O  O252  1  0.07663600  0.49800480  0.07786539  1
  O  O253  1  0.07991894  0.47780595  0.41148794  1
  O  O254  1  0.07359659  0.49025682  0.74491113  1
  O  O255  1  0.07536487  0.97578156  0.07463215  1
  O  O256  1  0.07874575  0.97741670  0.41367948  1
  O  O257  1  0.07197711  0.98592814  0.74156279  1
  O  O258  1  0.41352770  0.50072315  0.08058782  1
  O  O259  1  0.41061218  0.47630973  0.41135643  1
  O  O260  1  0.42122183  0.47880854  0.74163121  1
  O  O261  1  0.41708391  0.97962999  0.08429819  1
  O  O262  1  0.42005109  0.99551018  0.41626159  1
  O  O263  1  0.42445320  0.98507160  0.75398182  1
  O  O264  1  0.74551668  0.48547267  0.07644743  1
  O  O265  1  0.74634333  0.47891231  0.41563682  1
  O  O266  1  0.74091230  0.48398826  0.73653902  1
  O  O267  1  0.74448289  0.97650469  0.08288536  1
  O  O268  1  0.74825827  0.97534864  0.41724610  1
  O  O269  1  0.74894005  0.97367222  0.74560637  1
  O  O270  1  0.24229309  0.25278270  0.09244880  1
  O  O271  1  0.24632625  0.27783831  0.42153037  1
  O  O272  1  0.25027032  0.26383750  0.74734892  1
  O  O273  1  0.24625908  0.77827442  0.08104007  1
  O  O274  1  0.24129132  0.76531329  0.41752966  1
  O  O275  1  0.24598379  0.75900466  0.75796183  1
  O  O276  1  0.58492627  0.26172017  0.07963514  1
  O  O277  1  0.57883007  0.27139142  0.41743531  1
  O  O278  1  0.58488899  0.27268932  0.75043362  1
  O  O279  1  0.57853338  0.77541909  0.07897049  1
  O  O280  1  0.58495373  0.77325906  0.42086847  1
  O  O281  1  0.58567017  0.77774035  0.74893879  1
  O  O282  1  0.91366618  0.26248494  0.08480485  1
  O  O283  1  0.91559033  0.26979278  0.42626320  1
  O  O284  1  0.91059653  0.27028745  0.75675490  1
  O  O285  1  0.91298923  0.77729153  0.09373705  1
  O  O286  1  0.91158251  0.77448520  0.42660486  1
  O  O287  1  0.91235066  0.77010184  0.75578602  1
  O  O288  1  0.24336156  0.49532387  0.08723840  1
  O  O289  1  0.24727812  0.47597955  0.41867452  1
  O  O290  1  0.25047672  0.48663985  0.74862885  1
  O  O291  1  0.23920901  0.97779509  0.08686886  1
  O  O292  1  0.23861705  0.98405212  0.42518627  1
  O  O293  1  0.24206691  0.99095475  0.75750213  1
  O  O294  1  0.58582375  0.48722701  0.07484804  1
  O  O295  1  0.57954656  0.47892492  0.42010597  1
  O  O296  1  0.58241570  0.47121741  0.74942596  1
  O  O297  1  0.57741773  0.97563035  0.08475243  1
  O  O298  1  0.58280468  0.97505966  0.41957382  1
  O  O299  1  0.58664929  0.97833156  0.74955212  1
  O  O300  1  0.91433094  0.48749619  0.08832498  1
  O  O301  1  0.91189238  0.47998342  0.42795827  1
  O  O302  1  0.91151546  0.48637410  0.75359659  1
  O  O303  1  0.91278842  0.97236048  0.08930824  1
  O  O304  1  0.91380116  0.97900447  0.42471845  1
  O  O305  1  0.91080858  0.97301565  0.76025250  1
  O  O306  1  0.07482286  0.25539967  0.07561652  1
  O  O307  1  0.08070887  0.27488877  0.41444260  1
  O  O308  1  0.07128432  0.26037480  0.74074782  1
  O  O309  1  0.07879885  0.77186098  0.07846225  1
  O  O310  1  0.07689901  0.77222381  0.41507099  1
  O  O311  1  0.07531632  0.76265731  0.74698629  1
  O  O312  1  0.41358948  0.24927011  0.08315342  1
  O  O313  1  0.40624615  0.26558534  0.40597883  1
  O  O314  1  0.42148678  0.27162959  0.73876798  1
  O  O315  1  0.41235125  0.77216319  0.07863943  1
  O  O316  1  0.42372233  0.76105460  0.41920504  1
  O  O317  1  0.42648882  0.76173342  0.75754006  1
  O  O318  1  0.74603187  0.26520384  0.07846388  1
  O  O319  1  0.74543540  0.27113392  0.41589833  1
  O  O320  1  0.74472811  0.27106054  0.74376410  1
  O  O321  1  0.74353485  0.77325570  0.08164645  1
  O  O322  1  0.74905045  0.77308661  0.41572328  1
  O  O323  1  0.74614971  0.77315460  0.73970652  1
  O  O324  1  0.25355751  0.02210991  0.25672953  1
  O  O325  1  0.24925847  0.01130088  0.58407423  1
  O  O326  1  0.25087101  0.01845316  0.92670404  1
  O  O327  1  0.24730757  0.51201403  0.25006432  1
  O  O328  1  0.25414306  0.49518809  0.58357171  1
  O  O329  1  0.24939050  0.51982714  0.92115066  1
  O  O330  1  0.58179035  0.02320965  0.25306226  1
  O  O331  1  0.59203913  0.01943424  0.58470976  1
  O  O332  1  0.58531803  -0.00039462  0.91839100  1
  O  O333  1  0.57781564  0.51039220  0.24718369  1
  O  O334  1  0.59225779  0.52242724  0.58747829  1
  O  O335  1  0.57753265  0.51640045  0.90647575  1
  O  O336  1  0.91997566  0.00119904  0.25322067  1
  O  O337  1  0.92721312  0.01367426  0.59971368  1
  O  O338  1  0.92829725  0.01330259  0.92391783  1
  O  O339  1  0.92637849  0.51209168  0.26197286  1
  O  O340  1  0.91872920  0.52812048  0.59188202  1
  O  O341  1  0.92261852  0.51934863  0.92133825  1
  O  O342  1  0.09216879  0.23487077  0.24254997  1
  O  O343  1  0.09210420  0.22970924  0.57746815  1
  O  O344  1  0.08519046  0.22314144  0.90877716  1
  O  O345  1  0.08369112  0.72794548  0.24607480  1
  O  O346  1  0.07875587  0.73451648  0.58458678  1
  O  O347  1  0.08743969  0.72377163  0.91473563  1
  O  O348  1  0.41857537  0.22114150  0.24830691  1
  O  O349  1  0.43004952  0.23268368  0.56647590  1
  O  O350  1  0.41634940  0.23841139  0.91804438  1
  O  O351  1  0.41791505  0.73679298  0.23771702  1
  O  O352  1  0.42979217  0.73891676  0.58049227  1
  O  O353  1  0.41459502  0.72468053  0.91946278  1
  O  O354  1  0.74050432  0.24301905  0.25415231  1
  O  O355  1  0.75353009  0.23661023  0.58757653  1
  O  O356  1  0.75967926  0.23679850  0.90781141  1
  O  O357  1  0.75123511  0.75066919  0.24924144  1
  O  O358  1  0.75723523  0.72881190  0.57799519  1
  O  O359  1  0.75752847  0.73355245  0.90149755  1
