# generated using pymatgen
data_Ba17Sr5La8Pr42Mn72O216
_symmetry_space_group_name_H-M   'P 1'
_cell_length_a   16.66932637
_cell_length_b   15.70201641
_cell_length_c   16.81127267
_cell_angle_alpha   90.00245510
_cell_angle_beta   90.00953871
_cell_angle_gamma   89.99909354
_symmetry_Int_Tables_number   1
_chemical_formula_structural   Ba17Sr5La8Pr42Mn72O216
_chemical_formula_sum   'Ba17 Sr5 La8 Pr42 Mn72 O216'
_cell_volume   4400.21667501
_cell_formula_units_Z   1
loop_
 _symmetry_equiv_pos_site_id
 _symmetry_equiv_pos_as_xyz
  1  'x, y, z'
loop_
 _atom_site_type_symbol
 _atom_site_label
 _atom_site_symmetry_multiplicity
 _atom_site_fract_x
 _atom_site_fract_y
 _atom_site_fract_z
 _atom_site_occupancy
  Ba  Ba0  1  0.33337315  0.37622142  0.00311898  1
  Ba  Ba1  1  0.16571728  0.62484552  0.50342085  1
  Ba  Ba2  1  0.33356097  0.12721490  0.66903873  1
  Ba  Ba3  1  0.33496703  0.12534325  0.33330352  1
  Ba  Ba4  1  0.83049867  0.87423925  0.49529803  1
  Ba  Ba5  1  -0.00221697  0.87378088  0.33647208  1
  Ba  Ba6  1  0.83243390  0.37404511  0.16064111  1
  Ba  Ba7  1  0.16648207  0.87386037  0.50051418  1
  Ba  Ba8  1  0.66879402  0.62632116  0.99428139  1
  Ba  Ba9  1  -0.00043671  0.37499495  0.00322917  1
  Ba  Ba10  1  0.66469996  0.87334536  -0.00181682  1
  Ba  Ba11  1  0.17052435  0.12472931  0.83761959  1
  Ba  Ba12  1  0.00111921  0.62361967  0.66812757  1
  Ba  Ba13  1  0.66837727  0.12626944  0.66294916  1
  Ba  Ba14  1  0.33435934  0.87699377  0.33687742  1
  Ba  Ba15  1  0.66674497  0.62314904  0.66161264  1
  Ba  Ba16  1  0.16563420  0.62614540  0.83702239  1
  Sr  Sr17  1  0.16831380  0.12726967  0.16953151  1
  Sr  Sr18  1  -0.00090843  0.87553543  0.00308552  1
  Sr  Sr19  1  0.00187489  0.62334845  0.99814707  1
  Sr  Sr20  1  0.00248903  0.62766042  0.33404042  1
  Sr  Sr21  1  0.50319510  0.12466981  0.16772637  1
  La  La22  1  0.33522842  0.62630706  1.00105504  1
  La  La23  1  0.17036324  0.12110637  0.50422911  1
  La  La24  1  0.15800011  0.87508930  0.83397428  1
  La  La25  1  0.33240407  0.62813279  0.33464195  1
  La  La26  1  0.83859742  0.12262536  0.16292305  1
  La  La27  1  0.16612317  0.37543338  0.50468817  1
  La  La28  1  0.00378655  0.12504050  0.66507511  1
  La  La29  1  0.82995433  0.37788401  0.82982589  1
  Pr  Pr30  1  0.16565861  0.62165288  0.17128047  1
  Pr  Pr31  1  0.32926201  0.37735469  0.67609623  1
  Pr  Pr32  1  0.50160745  0.62393658  0.83648196  1
  Pr  Pr33  1  0.84199346  0.12362851  0.49968099  1
  Pr  Pr34  1  0.00530465  0.12071094  0.33343837  1
  Pr  Pr35  1  -0.00203418  0.37436413  0.33524025  1
  Pr  Pr36  1  0.84063799  0.12177739  0.83335712  1
  Pr  Pr37  1  0.82716129  0.37644572  0.49221268  1
  Pr  Pr38  1  0.16309158  0.87663059  0.17110586  1
  Pr  Pr39  1  0.84302492  0.62574876  0.16127237  1
  Pr  Pr40  1  0.50493178  0.62523527  0.16852797  1
  Pr  Pr41  1  0.34372386  0.12500594  0.99899523  1
  Pr  Pr42  1  0.65923422  0.87669265  0.66780350  1
  Pr  Pr43  1  0.66268986  0.87593413  0.33138662  1
  Pr  Pr44  1  0.82763907  0.87169218  0.82678349  1
  Pr  Pr45  1  0.33301100  0.62506269  0.66513304  1
  Pr  Pr46  1  0.50547498  0.12607904  0.83830303  1
  Pr  Pr47  1  0.83237527  0.87294033  0.16199973  1
  Pr  Pr48  1  0.67097553  0.12507857  0.32871388  1
  Pr  Pr49  1  0.66023992  0.37268190  0.66471311  1
  Pr  Pr50  1  0.50010109  0.62641099  0.50196658  1
  Pr  Pr51  1  0.50290906  0.12249066  0.50057193  1
  Pr  Pr52  1  0.65817237  0.37345874  0.32933893  1
  Pr  Pr53  1  0.49686968  0.37757267  0.83225841  1
  Pr  Pr54  1  0.67338959  0.62355010  0.32673693  1
  Pr  Pr55  1  0.32631531  0.87530816  0.00515016  1
  Pr  Pr56  1  0.50052424  0.87721459  0.49943019  1
  Pr  Pr57  1  0.49024812  0.87629860  0.16356283  1
  Pr  Pr58  1  0.49714412  0.37245877  0.50140439  1
  Pr  Pr59  1  -0.00549696  0.86967973  0.66772611  1
  Pr  Pr60  1  0.66266741  0.37434299  0.00116370  1
  Pr  Pr61  1  0.00766121  0.12720548  1.00080046  1
  Pr  Pr62  1  0.49615933  0.37258511  0.16295676  1
  Pr  Pr63  1  0.84090099  0.62623610  0.83558642  1
  Pr  Pr64  1  0.49571429  0.87277659  0.83202581  1
  Pr  Pr65  1  0.67353346  0.12468999  0.99360927  1
  Pr  Pr66  1  0.16327761  0.37361468  0.16628728  1
  Pr  Pr67  1  -0.00260984  0.37742545  0.67142473  1
  Pr  Pr68  1  0.32596154  0.87559175  0.66960861  1
  Pr  Pr69  1  0.33104011  0.37372130  0.33420725  1
  Pr  Pr70  1  0.16125458  0.37589295  0.83507088  1
  Pr  Pr71  1  0.84217958  0.62607258  0.49904732  1
  Mn  Mn72  1  0.00096954  -0.00039924  0.16711833  1
  Mn  Mn73  1  0.00050916  0.00202591  0.50053390  1
  Mn  Mn74  1  -0.00206380  -0.00082795  0.83553059  1
  Mn  Mn75  1  0.00080114  0.50213675  0.16837285  1
  Mn  Mn76  1  -0.00233151  0.49617432  0.50117743  1
  Mn  Mn77  1  -0.00097250  0.49809646  0.83560896  1
  Mn  Mn78  1  0.33194426  0.00074222  0.16678243  1
  Mn  Mn79  1  0.33535526  0.00185792  0.50328195  1
  Mn  Mn80  1  0.33595032  -0.00161323  0.83765294  1
  Mn  Mn81  1  0.33483040  0.50191669  0.17034074  1
  Mn  Mn82  1  0.33557538  0.49684367  0.50235103  1
  Mn  Mn83  1  0.33278600  0.50128745  0.83616882  1
  Mn  Mn84  1  0.66670418  -0.00021037  0.16459002  1
  Mn  Mn85  1  0.66647808  0.00036033  0.49696108  1
  Mn  Mn86  1  0.66629642  -0.00014966  0.83071545  1
  Mn  Mn87  1  0.66678993  0.50055604  0.16370297  1
  Mn  Mn88  1  0.66517276  0.49891913  0.49378044  1
  Mn  Mn89  1  0.66645549  0.49870577  0.82933324  1
  Mn  Mn90  1  0.00064374  0.24742191  0.16961462  1
  Mn  Mn91  1  -0.00142023  0.25289367  0.50162557  1
  Mn  Mn92  1  -0.00095130  0.24946491  0.83354713  1
  Mn  Mn93  1  0.00128440  0.75099075  0.16608919  1
  Mn  Mn94  1  -0.00051517  0.74880129  0.50017304  1
  Mn  Mn95  1  -0.00187787  0.75170685  0.83723525  1
  Mn  Mn96  1  0.33382513  0.24919514  0.16819877  1
  Mn  Mn97  1  0.33429415  0.25216559  0.50224488  1
  Mn  Mn98  1  0.33550064  0.25005661  0.83651686  1
  Mn  Mn99  1  0.33201800  0.74949400  0.16748281  1
  Mn  Mn100  1  0.33573089  0.74884426  0.50187322  1
  Mn  Mn101  1  0.33340562  0.75032473  0.83620187  1
  Mn  Mn102  1  0.66654909  0.24806875  0.16345070  1
  Mn  Mn103  1  0.66664849  0.25150158  0.49578619  1
  Mn  Mn104  1  0.66762634  0.25060359  0.83163125  1
  Mn  Mn105  1  0.66693795  0.74885087  0.16593352  1
  Mn  Mn106  1  0.66539568  0.74926178  0.49539700  1
  Mn  Mn107  1  0.66522690  0.75013172  0.82817124  1
  Mn  Mn108  1  0.16962494  0.24919109  0.00410913  1
  Mn  Mn109  1  0.16600319  0.25392225  0.33660372  1
  Mn  Mn110  1  0.16580580  0.25098735  0.66841985  1
  Mn  Mn111  1  0.16543365  0.75197129  0.00390593  1
  Mn  Mn112  1  0.16685370  0.74753991  0.33473837  1
  Mn  Mn113  1  0.16590761  0.75173286  0.66983874  1
  Mn  Mn114  1  0.50265602  0.24890877  0.00175708  1
  Mn  Mn115  1  0.50062306  0.25112287  0.33213630  1
  Mn  Mn116  1  0.49918138  0.25028877  0.66720789  1
  Mn  Mn117  1  0.49798701  0.75053960  -0.00018407  1
  Mn  Mn118  1  0.50279265  0.74869184  0.33430827  1
  Mn  Mn119  1  0.49754594  0.75001016  0.66579234  1
  Mn  Mn120  1  0.83285164  0.24715836  -0.00413465  1
  Mn  Mn121  1  0.83282541  0.25010165  0.33021673  1
  Mn  Mn122  1  0.83326801  0.25107384  0.66239210  1
  Mn  Mn123  1  0.83533392  0.75162917  -0.00258066  1
  Mn  Mn124  1  0.83215249  0.74690880  0.32927548  1
  Mn  Mn125  1  0.83088703  0.74911350  0.66336117  1
  Mn  Mn126  1  0.16788697  -0.00032533  0.00374177  1
  Mn  Mn127  1  0.16734972  0.00163196  0.33527209  1
  Mn  Mn128  1  0.16536678  -0.00060581  0.66995358  1
  Mn  Mn129  1  0.16748709  0.50027153  0.00389071  1
  Mn  Mn130  1  0.16615070  0.49894700  0.33538329  1
  Mn  Mn131  1  0.16730833  0.49871525  0.66913660  1
  Mn  Mn132  1  0.50092676  -0.00119093  0.00102253  1
  Mn  Mn133  1  0.50264819  0.00098918  0.33192580  1
  Mn  Mn134  1  0.49779729  0.00020641  0.66724736  1
  Mn  Mn135  1  0.50065298  0.50052224  0.00048747  1
  Mn  Mn136  1  0.49986333  0.50004434  0.33383204  1
  Mn  Mn137  1  0.49878126  0.50006563  0.66617763  1
  Mn  Mn138  1  0.83474524  -0.00120908  -0.00176600  1
  Mn  Mn139  1  0.83161096  0.00262656  0.33035377  1
  Mn  Mn140  1  0.83299882  0.00094168  0.66483838  1
  Mn  Mn141  1  0.83293740  0.50020589  -0.00326914  1
  Mn  Mn142  1  0.83356185  0.49919562  0.32917201  1
  Mn  Mn143  1  0.83127428  0.49820549  0.66184076  1
  O  O144  1  0.16233931  0.12294356  0.01997620  1
  O  O145  1  0.16016295  0.13473998  0.36025060  1
  O  O146  1  0.16038224  0.12679447  0.67939795  1
  O  O147  1  0.16881631  0.62909107  0.02585598  1
  O  O148  1  0.17177114  0.62034328  0.34659913  1
  O  O149  1  0.17463834  0.62523954  0.67890102  1
  O  O150  1  0.49949157  0.12336713  0.01789839  1
  O  O151  1  0.50969427  0.13020163  0.35711512  1
  O  O152  1  0.50149588  0.12808329  0.69392837  1
  O  O153  1  0.49765460  0.62588784  0.02210947  1
  O  O154  1  0.50345160  0.62228044  0.36055027  1
  O  O155  1  0.49591656  0.62538910  0.69340247  1
  O  O156  1  0.82230449  0.12207310  0.01805383  1
  O  O157  1  0.82225773  0.13052311  0.35743345  1
  O  O158  1  0.83615346  0.12770235  0.68967230  1
  O  O159  1  0.83413576  0.62832634  0.01440282  1
  O  O160  1  0.82309080  0.61981715  0.35602350  1
  O  O161  1  0.83056339  0.62265062  0.69066198  1
  O  O162  1  0.16618737  0.37739995  0.31006655  1
  O  O163  1  0.17210021  0.37404380  0.65173084  1
  O  O164  1  0.16905022  0.37224818  0.98024062  1
  O  O165  1  0.16685832  0.87084539  0.31727794  1
  O  O166  1  0.17002769  0.87528385  0.66025399  1
  O  O167  1  0.17488348  0.87706036  0.97694177  1
  O  O168  1  0.50070628  0.37796755  0.30447633  1
  O  O169  1  0.49523766  0.37548962  0.64569817  1
  O  O170  1  0.50573029  0.37419918  0.97768549  1
  O  O171  1  0.50652221  0.87023902  0.30665940  1
  O  O172  1  0.49898275  0.87284473  0.64247949  1
  O  O173  1  0.49097178  0.87470490  0.97757982  1
  O  O174  1  0.84391003  0.37383043  0.31462634  1
  O  O175  1  0.83640034  0.37279752  0.63649173  1
  O  O176  1  0.82787693  0.36993831  0.97574262  1
  O  O177  1  0.82698545  0.87400698  0.30678273  1
  O  O178  1  0.83908759  0.87626980  0.65296927  1
  O  O179  1  0.83854619  0.87741303  0.97348407  1
  O  O180  1  0.00393718  0.37477990  0.18994688  1
  O  O181  1  -0.01488515  0.37202752  0.52706858  1
  O  O182  1  -0.00284003  0.37188507  0.84641744  1
  O  O183  1  -0.00558876  0.87661611  0.18172504  1
  O  O184  1  -0.00309664  0.87960618  0.51994803  1
  O  O185  1  -0.00686843  0.87770764  0.85246705  1
  O  O186  1  0.34287612  0.38058985  0.19032894  1
  O  O187  1  0.34371694  0.37523097  0.53062480  1
  O  O188  1  0.33930431  0.37674044  0.84774449  1
  O  O189  1  0.33999901  0.87307718  0.18060139  1
  O  O190  1  0.34608075  0.87660204  0.52269925  1
  O  O191  1  0.34361870  0.87399606  0.86243699  1
  O  O192  1  0.66371000  0.37705280  0.18643267  1
  O  O193  1  0.67378903  0.37532443  0.52133901  1
  O  O194  1  0.67072671  0.37253239  0.85729553  1
  O  O195  1  0.67569388  0.87388832  0.18905209  1
  O  O196  1  0.66400246  0.87676977  0.52393168  1
  O  O197  1  0.67024181  0.87528712  0.84156967  1
  O  O198  1  0.00215473  0.12145514  0.14511316  1
  O  O199  1  0.00128819  0.13190434  0.47869133  1
  O  O200  1  -0.00465117  0.12599459  0.80843386  1
  O  O201  1  0.00568985  0.62832426  0.14780084  1
  O  O202  1  -0.00463425  0.61840116  0.48694843  1
  O  O203  1  -0.00657043  0.62374799  0.82422892  1
  O  O204  1  0.33056662  0.12134317  0.14387417  1
  O  O205  1  0.32883674  0.12987701  0.49136449  1
  O  O206  1  0.34248634  0.12396402  0.82446552  1
  O  O207  1  0.32851613  0.62665439  0.14434130  1
  O  O208  1  0.33965121  0.61758141  0.47856384  1
  O  O209  1  0.33749420  0.62517274  0.80832742  1
  O  O210  1  0.66336591  0.12120776  0.13762542  1
  O  O211  1  0.65523615  0.12769014  0.47341282  1
  O  O212  1  0.65963806  0.12604912  0.81874344  1
  O  O213  1  0.65578112  0.62432319  0.14974735  1
  O  O214  1  0.65389401  0.62040554  0.47019570  1
  O  O215  1  0.65717921  0.62551860  0.81741857  1
  O  O216  1  0.08233500  0.01632562  0.25221763  1
  O  O217  1  0.08334627  0.02027349  0.58075429  1
  O  O218  1  0.08348257  0.01076372  0.91911078  1
  O  O219  1  0.08617738  0.51609984  0.24829767  1
  O  O220  1  0.08389246  0.49471805  0.58343099  1
  O  O221  1  0.08539225  0.50484363  0.91720679  1
  O  O222  1  0.42522035  0.00965756  0.24270961  1
  O  O223  1  0.42331896  0.01895413  0.58073226  1
  O  O224  1  0.42764647  0.01992797  0.91116711  1
  O  O225  1  0.41929371  0.52786029  0.25222502  1
  O  O226  1  0.41914631  0.52423078  0.58349089  1
  O  O227  1  0.41899034  0.52116571  0.91546056  1
  O  O228  1  0.75445745  0.02361171  0.24152340  1
  O  O229  1  0.75691584  0.02010353  0.56850175  1
  O  O230  1  0.75664620  0.01751896  0.90736188  1
  O  O231  1  0.75367279  0.52160697  0.23955047  1
  O  O232  1  0.75522048  0.51561312  0.56441506  1
  O  O233  1  0.75725637  0.51348936  0.89811055  1
  O  O234  1  0.25008616  0.24640564  0.25390086  1
  O  O235  1  0.24395201  0.24318795  0.58205353  1
  O  O236  1  0.26084815  0.23322163  0.92790964  1
  O  O237  1  0.25281274  0.72936452  0.25091381  1
  O  O238  1  0.25976598  0.74212209  0.59465025  1
  O  O239  1  0.25961608  0.73700417  0.92976015  1
  O  O240  1  0.59220634  0.23630684  0.25738608  1
  O  O241  1  0.58416088  0.24446314  0.58384436  1
  O  O242  1  0.59094957  0.23220609  0.92534560  1
  O  O243  1  0.58910490  0.72855435  0.25798083  1
  O  O244  1  0.57727179  0.73648850  0.57713513  1
  O  O245  1  0.57762694  0.74176097  0.90860748  1
  O  O246  1  0.91815089  0.22400698  0.25398235  1
  O  O247  1  0.91960289  0.22395295  0.58527996  1
  O  O248  1  0.91799732  0.22334656  0.91774347  1
  O  O249  1  0.91541824  0.72966192  0.24721535  1
  O  O250  1  0.91369256  0.73657904  0.58421826  1
  O  O251  1  0.91713573  0.73253852  0.91700534  1
  O  O252  1  0.08819660  0.48621520  0.09135672  1
  O  O253  1  0.07793036  0.47389442  0.41844639  1
  O  O254  1  0.08103193  0.47879009  0.75175531  1
  O  O255  1  0.08423056  0.98067556  0.08669072  1
  O  O256  1  0.08072713  0.99866040  0.41790588  1
  O  O257  1  0.07379695  0.97979700  0.74712008  1
  O  O258  1  0.42231050  0.49112821  0.09135462  1
  O  O259  1  0.41579137  0.47410218  0.41575752  1
  O  O260  1  0.41415868  0.48232302  0.74965911  1
  O  O261  1  0.40908234  0.98385649  0.07477350  1
  O  O262  1  0.42372794  0.99346298  0.42296051  1
  O  O263  1  0.41176773  0.97490038  0.74907889  1
  O  O264  1  0.74286255  0.48528342  0.06973629  1
  O  O265  1  0.74287147  0.47624845  0.40278087  1
  O  O266  1  0.74498410  0.47364191  0.73727371  1
  O  O267  1  0.75098504  0.98337514  0.08228694  1
  O  O268  1  0.73868089  0.98780851  0.40186330  1
  O  O269  1  0.74401829  0.98152944  0.74036428  1
  O  O270  1  0.24543110  0.26692812  0.09267261  1
  O  O271  1  0.24939524  0.27683145  0.41951388  1
  O  O272  1  0.24749772  0.26984636  0.75592381  1
  O  O273  1  0.24396566  0.77360194  0.09035617  1
  O  O274  1  0.25524359  0.75284783  0.41767483  1
  O  O275  1  0.24787924  0.77282378  0.76020875  1
  O  O276  1  0.57991358  0.27235040  0.08754463  1
  O  O277  1  0.57884876  0.27750144  0.41907726  1
  O  O278  1  0.57858885  0.27492319  0.75537777  1
  O  O279  1  0.57287970  0.76583619  0.09538802  1
  O  O280  1  0.58183072  0.77646671  0.41753181  1
  O  O281  1  0.57844583  0.77327940  0.74689873  1
  O  O282  1  0.91347166  0.24757267  0.08163830  1
  O  O283  1  0.91336457  0.26733278  0.41967549  1
  O  O284  1  0.91099824  0.27112124  0.74741086  1
  O  O285  1  0.91271187  0.76437232  0.08812924  1
  O  O286  1  0.91003109  0.75024956  0.41596109  1
  O  O287  1  0.91136884  0.76686624  0.75441497  1
  O  O288  1  0.24580758  0.48600509  0.09703104  1
  O  O289  1  0.25121514  0.47342454  0.42330251  1
  O  O290  1  0.24643802  0.47861822  0.75867253  1
  O  O291  1  0.24557705  0.97584804  0.08974426  1
  O  O292  1  0.24949824  0.99830515  0.42347292  1
  O  O293  1  0.24816213  0.97900304  0.76290380  1
  O  O294  1  0.58160644  0.47746337  0.08439693  1
  O  O295  1  0.57979766  0.47039137  0.41572735  1
  O  O296  1  0.58090509  0.47475320  0.74868235  1
  O  O297  1  0.57275250  0.97884007  0.09344214  1
  O  O298  1  0.58131377  0.97626796  0.41870699  1
  O  O299  1  0.57597199  0.97845750  0.75234891  1
  O  O300  1  0.91520070  0.49836184  0.08698625  1
  O  O301  1  0.91254343  0.48108834  0.41849689  1
  O  O302  1  0.91348988  0.47898736  0.74993251  1
  O  O303  1  0.91066417  0.98758744  0.08919351  1
  O  O304  1  0.91219802  1.00208420  0.41875379  1
  O  O305  1  0.90890825  0.98446990  0.75863408  1
  O  O306  1  0.08735934  0.26285123  0.09204286  1
  O  O307  1  0.08090842  0.28073189  0.42173559  1
  O  O308  1  0.08140272  0.27210140  0.74908740  1
  O  O309  1  0.08496946  0.77397062  0.08611022  1
  O  O310  1  0.08190966  0.75255058  0.41611852  1
  O  O311  1  0.07798977  0.77037999  0.75270780  1
  O  O312  1  0.41912947  0.26083495  0.08366478  1
  O  O313  1  0.41553260  0.27336184  0.41199470  1
  O  O314  1  0.41487346  0.27180915  0.74767114  1
  O  O315  1  0.40916557  0.76571351  0.07912196  1
  O  O316  1  0.42500720  0.75999395  0.42277469  1
  O  O317  1  0.41257014  0.77290504  0.74797070  1
  O  O318  1  0.73870247  0.26096887  0.06649857  1
  O  O319  1  0.74310787  0.27388508  0.40307943  1
  O  O320  1  0.74578468  0.27407894  0.73832010  1
  O  O321  1  0.75401843  0.76371223  0.08198922  1
  O  O322  1  0.73871679  0.76114558  0.39978918  1
  O  O323  1  0.74331934  0.77070870  0.73807133  1
  O  O324  1  0.24745394  0.00830718  0.24877242  1
  O  O325  1  0.25253602  0.00633995  0.58875005  1
  O  O326  1  0.26541517  0.01344165  0.93203333  1
  O  O327  1  0.25792735  0.51724193  0.25597584  1
  O  O328  1  0.26051637  0.50809815  0.59335045  1
  O  O329  1  0.25728466  0.51799638  0.92579689  1
  O  O330  1  0.59490767  0.01550785  0.25727269  1
  O  O331  1  0.58193649  0.01286485  0.57948008  1
  O  O332  1  0.58811001  0.01743661  0.92155429  1
  O  O333  1  0.58494756  0.51890100  0.25323841  1
  O  O334  1  0.57889043  0.50785578  0.57626051  1
  O  O335  1  0.57817794  0.50923463  0.91063289  1
  O  O336  1  0.91779848  0.02446867  0.25312216  1
  O  O337  1  0.92202419  0.02261418  0.58796753  1
  O  O338  1  0.92209605  0.02853301  0.92224435  1
  O  O339  1  0.91783017  0.52219726  0.25086037  1
  O  O340  1  0.91278684  0.51553532  0.58113691  1
  O  O341  1  0.91380207  0.51174152  0.91315681  1
  O  O342  1  0.07844605  0.23669630  0.26150707  1
  O  O343  1  0.08142223  0.23878561  0.58431829  1
  O  O344  1  0.08371698  0.23613605  0.92337130  1
  O  O345  1  0.09052737  0.73618275  0.24453900  1
  O  O346  1  0.08089949  0.74945847  0.58994842  1
  O  O347  1  0.08567297  0.74671692  0.91917602  1
  O  O348  1  0.42406813  0.24001884  0.24625071  1
  O  O349  1  0.42712653  0.23368318  0.57490621  1
  O  O350  1  0.42789451  0.23298890  0.91305096  1
  O  O351  1  0.42285996  0.72709858  0.24821187  1
  O  O352  1  0.41700163  0.72356512  0.58584570  1
  O  O353  1  0.41887384  0.72481473  0.91174865  1
  O  O354  1  0.75318989  0.22786134  0.23933663  1
  O  O355  1  0.76030678  0.23520367  0.56645811  1
  O  O356  1  0.75754817  0.22753032  0.90473507  1
  O  O357  1  0.75497304  0.72399367  0.24089890  1
  O  O358  1  0.75307706  0.72960493  0.56790179  1
  O  O359  1  0.75825081  0.73913661  0.90020936  1
