# generated using pymatgen
data_Ba17Sr5La8Pr42Mn72O216
_symmetry_space_group_name_H-M   'P 1'
_cell_length_a   16.67168681
_cell_length_b   15.70632637
_cell_length_c   16.82108065
_cell_angle_alpha   89.99532655
_cell_angle_beta   89.98475858
_cell_angle_gamma   89.98872214
_symmetry_Int_Tables_number   1
_chemical_formula_structural   Ba17Sr5La8Pr42Mn72O216
_chemical_formula_sum   'Ba17 Sr5 La8 Pr42 Mn72 O216'
_cell_volume   4404.61576223
_cell_formula_units_Z   1
loop_
 _symmetry_equiv_pos_site_id
 _symmetry_equiv_pos_as_xyz
  1  'x, y, z'
loop_
 _atom_site_type_symbol
 _atom_site_label
 _atom_site_symmetry_multiplicity
 _atom_site_fract_x
 _atom_site_fract_y
 _atom_site_fract_z
 _atom_site_occupancy
  Ba  Ba0  1  0.66794475  0.12476371  1.00001145  1
  Ba  Ba1  1  0.33033655  0.87367572  -0.00050801  1
  Ba  Ba2  1  0.16488157  0.37859421  0.82852523  1
  Ba  Ba3  1  0.66731157  0.37506111  0.66948077  1
  Ba  Ba4  1  0.33201670  0.87504877  0.33406156  1
  Ba  Ba5  1  0.00110178  0.12617342  0.33184133  1
  Ba  Ba6  1  0.83387071  0.12499659  0.16810999  1
  Ba  Ba7  1  0.50185142  0.87362117  0.49905261  1
  Ba  Ba8  1  0.83273414  0.87480416  0.17020409  1
  Ba  Ba9  1  0.33422595  0.12684886  0.66397339  1
  Ba  Ba10  1  0.66803984  0.87256506  0.33584444  1
  Ba  Ba11  1  0.66470258  0.87421194  0.00419093  1
  Ba  Ba12  1  0.33424530  0.62488214  0.33413270  1
  Ba  Ba13  1  0.00112985  0.12456424  0.99762106  1
  Ba  Ba14  1  0.83148553  0.62310661  0.83746982  1
  Ba  Ba15  1  0.33684632  0.12725500  0.33168823  1
  Ba  Ba16  1  0.67186177  0.12600107  0.66832977  1
  Sr  Sr17  1  0.83730169  0.12468819  0.50244216  1
  Sr  Sr18  1  0.16531133  0.87597478  0.49636567  1
  Sr  Sr19  1  0.16691210  0.62454562  0.83105359  1
  Sr  Sr20  1  0.83455160  0.12688877  0.83823126  1
  Sr  Sr21  1  0.49546424  0.62777936  0.50149804  1
  La  La22  1  0.83033768  0.87761220  0.83710999  1
  La  La23  1  0.50268621  0.37137682  0.49759149  1
  La  La24  1  0.32915489  0.37862412  -0.00306739  1
  La  La25  1  0.00078044  0.62544634  0.33155682  1
  La  La26  1  -0.00322727  0.87273945  -0.00029907  1
  La  La27  1  0.16533784  0.37542009  0.16231340  1
  La  La28  1  0.33168522  0.87373206  0.66798322  1
  La  La29  1  0.16835246  0.37444149  0.49835865  1
  Pr  Pr30  1  -0.00252265  0.87814219  0.33645811  1
  Pr  Pr31  1  -0.00406774  0.37530278  0.67021871  1
  Pr  Pr32  1  0.49666167  0.37660910  0.16302158  1
  Pr  Pr33  1  0.83473521  0.37006608  0.83466915  1
  Pr  Pr34  1  0.66449598  0.62757998  1.00107013  1
  Pr  Pr35  1  0.17077715  0.12379800  0.16773805  1
  Pr  Pr36  1  0.67063774  0.37629697  0.00292996  1
  Pr  Pr37  1  0.16394501  0.87495893  0.16485889  1
  Pr  Pr38  1  -0.00444345  0.87391134  0.66628040  1
  Pr  Pr39  1  0.50334165  0.12138125  0.16683802  1
  Pr  Pr40  1  0.50509758  0.12611688  0.83497208  1
  Pr  Pr41  1  0.50020322  0.37175767  0.82795756  1
  Pr  Pr42  1  0.50701684  0.11804004  0.50046277  1
  Pr  Pr43  1  0.83074245  0.62530245  0.50977665  1
  Pr  Pr44  1  0.16974615  0.62640787  0.16686470  1
  Pr  Pr45  1  0.17170917  0.12584567  0.83437719  1
  Pr  Pr46  1  0.33418006  0.37796407  0.33339685  1
  Pr  Pr47  1  0.65862444  0.62269514  0.66555521  1
  Pr  Pr48  1  0.49850870  0.62966967  0.16967892  1
  Pr  Pr49  1  -0.00084025  0.37145452  0.33530282  1
  Pr  Pr50  1  0.83819833  0.37130755  0.16849876  1
  Pr  Pr51  1  0.00081406  0.62298647  0.66291839  1
  Pr  Pr52  1  0.50209022  0.87841964  0.82990744  1
  Pr  Pr53  1  -0.00313370  0.37700607  -0.00154577  1
  Pr  Pr54  1  0.00414687  0.12614012  0.66240240  1
  Pr  Pr55  1  0.49577859  0.87526011  0.16615618  1
  Pr  Pr56  1  0.83261044  0.87795995  0.49783170  1
  Pr  Pr57  1  0.49940524  0.62434729  0.83436278  1
  Pr  Pr58  1  0.32699690  0.62316928  0.66035251  1
  Pr  Pr59  1  0.16251223  0.87476966  0.82674321  1
  Pr  Pr60  1  0.67186576  0.37589755  0.33933798  1
  Pr  Pr61  1  0.00082573  0.62625944  0.99590293  1
  Pr  Pr62  1  0.33627260  0.12637642  0.99434894  1
  Pr  Pr63  1  0.16948885  0.62920892  0.50046604  1
  Pr  Pr64  1  0.83506551  0.37228724  0.50279657  1
  Pr  Pr65  1  0.66597369  0.87290939  0.67108241  1
  Pr  Pr66  1  0.82858446  0.62616755  0.17277692  1
  Pr  Pr67  1  0.33306897  0.62401920  0.99688777  1
  Pr  Pr68  1  0.66786473  0.12296267  0.33170875  1
  Pr  Pr69  1  0.17287970  0.12174807  0.49864833  1
  Pr  Pr70  1  0.65930321  0.62490220  0.33741887  1
  Pr  Pr71  1  0.33469169  0.37658171  0.66816911  1
  Mn  Mn72  1  0.00220196  -0.00174371  0.16594076  1
  Mn  Mn73  1  0.00166465  0.00050492  0.50085720  1
  Mn  Mn74  1  0.00013823  -0.00195979  0.83065036  1
  Mn  Mn75  1  -0.00088681  0.50127192  0.16616151  1
  Mn  Mn76  1  0.00056325  0.49897109  0.49841299  1
  Mn  Mn77  1  -0.00055098  0.50235133  0.83303906  1
  Mn  Mn78  1  0.33258551  0.00060049  0.16405052  1
  Mn  Mn79  1  0.33316277  0.00051936  0.49982421  1
  Mn  Mn80  1  0.33218760  -0.00058697  0.83262228  1
  Mn  Mn81  1  0.33292095  0.49949646  0.16450807  1
  Mn  Mn82  1  0.33392478  0.49859831  0.49985652  1
  Mn  Mn83  1  0.33389754  0.50216942  0.83069476  1
  Mn  Mn84  1  0.66558749  0.00073935  0.16807873  1
  Mn  Mn85  1  0.67084294  0.00075833  0.50178584  1
  Mn  Mn86  1  0.66733823  -0.00122393  0.83401657  1
  Mn  Mn87  1  0.66538676  0.49851263  0.16997403  1
  Mn  Mn88  1  0.66674767  0.49967942  0.50221901  1
  Mn  Mn89  1  0.66440853  0.50075140  0.83699696  1
  Mn  Mn90  1  0.00276848  0.25189605  0.16599589  1
  Mn  Mn91  1  0.00236818  0.25046357  0.50130910  1
  Mn  Mn92  1  0.00085400  0.24956731  0.83119264  1
  Mn  Mn93  1  0.00038424  0.74679436  0.16594350  1
  Mn  Mn94  1  -0.00007782  0.74889034  0.49860442  1
  Mn  Mn95  1  0.00038723  0.74851475  0.83253810  1
  Mn  Mn96  1  0.33414199  0.25247655  0.16268571  1
  Mn  Mn97  1  0.33500761  0.25197308  0.49754475  1
  Mn  Mn98  1  0.33330275  0.25092957  0.83136263  1
  Mn  Mn99  1  0.33196503  0.75018427  0.16481587  1
  Mn  Mn100  1  0.33172645  0.75065435  0.50077095  1
  Mn  Mn101  1  0.33266733  0.74895697  0.83206083  1
  Mn  Mn102  1  0.66450625  0.25353396  0.17016122  1
  Mn  Mn103  1  0.66929019  0.25145321  0.49984602  1
  Mn  Mn104  1  0.66615141  0.25126973  0.83604348  1
  Mn  Mn105  1  0.66464083  0.74728662  0.16869281  1
  Mn  Mn106  1  0.66785259  0.74627994  0.50463118  1
  Mn  Mn107  1  0.66513121  0.74859596  0.83512077  1
  Mn  Mn108  1  0.16669826  0.25202115  -0.00153691  1
  Mn  Mn109  1  0.16840871  0.25309091  0.33042743  1
  Mn  Mn110  1  0.16579203  0.25056721  0.66331815  1
  Mn  Mn111  1  0.16557728  0.74823092  -0.00318258  1
  Mn  Mn112  1  0.16438620  0.74854638  0.33255441  1
  Mn  Mn113  1  0.16479289  0.75052835  0.66461367  1
  Mn  Mn114  1  0.49879005  0.25410642  -0.00166506  1
  Mn  Mn115  1  0.50242579  0.25286406  0.33030489  1
  Mn  Mn116  1  0.50044781  0.24913884  0.66333879  1
  Mn  Mn117  1  0.49766901  0.74761980  0.00019385  1
  Mn  Mn118  1  0.50015921  0.74819671  0.33486822  1
  Mn  Mn119  1  0.49774490  0.74981365  0.66876093  1
  Mn  Mn120  1  0.83385038  0.25217521  0.00021342  1
  Mn  Mn121  1  0.83301935  0.25196948  0.33567589  1
  Mn  Mn122  1  0.83630105  0.24899191  0.66857538  1
  Mn  Mn123  1  0.83351666  0.74760838  0.00379244  1
  Mn  Mn124  1  0.83488802  0.74585770  0.33974476  1
  Mn  Mn125  1  0.83357898  0.74890505  0.66935247  1
  Mn  Mn126  1  0.16638429  -0.00110808  -0.00255319  1
  Mn  Mn127  1  0.16674266  -0.00005704  0.33190144  1
  Mn  Mn128  1  0.16540089  -0.00145133  0.66452083  1
  Mn  Mn129  1  0.16505925  0.50106086  -0.00184470  1
  Mn  Mn130  1  0.16538382  0.49966177  0.33132612  1
  Mn  Mn131  1  0.16404299  0.50162898  0.66224126  1
  Mn  Mn132  1  0.49772179  0.00018473  -0.00077618  1
  Mn  Mn133  1  0.50145136  0.00162721  0.33335385  1
  Mn  Mn134  1  0.50087642  -0.00008514  0.66605609  1
  Mn  Mn135  1  0.49962744  0.49978953  -0.00109409  1
  Mn  Mn136  1  0.50192778  0.49940735  0.33123772  1
  Mn  Mn137  1  0.49725969  0.50021431  0.66654115  1
  Mn  Mn138  1  0.83440351  -0.00049535  0.00024910  1
  Mn  Mn139  1  0.83387043  0.00003283  0.33646059  1
  Mn  Mn140  1  0.83572370  -0.00152332  0.66752351  1
  Mn  Mn141  1  0.83301527  0.49961309  0.00569087  1
  Mn  Mn142  1  0.83465913  0.50142299  0.33777234  1
  Mn  Mn143  1  0.83355457  0.50056632  0.67117802  1
  O  O144  1  0.17167559  0.13090173  0.02363371  1
  O  O145  1  0.16648702  0.13169268  0.35393974  1
  O  O146  1  0.15966294  0.12147436  0.69070832  1
  O  O147  1  0.16264046  0.62354626  0.02392203  1
  O  O148  1  0.15965707  0.62120267  0.35727965  1
  O  O149  1  0.16821216  0.62632242  0.68223966  1
  O  O150  1  0.49188585  0.13339990  0.02303233  1
  O  O151  1  0.50519925  0.13208291  0.35608125  1
  O  O152  1  0.50029160  0.12254574  0.68952775  1
  O  O153  1  0.49808852  0.62007751  0.02770233  1
  O  O154  1  0.50313634  0.62039108  0.35102974  1
  O  O155  1  0.49641279  0.62483259  0.69041394  1
  O  O156  1  0.83424309  0.13037980  0.00649519  1
  O  O157  1  0.82745574  0.12873833  0.35077913  1
  O  O158  1  0.84550419  0.12413473  0.68693679  1
  O  O159  1  0.83531380  0.62035183  0.02763131  1
  O  O160  1  0.84413000  0.62118391  0.36671660  1
  O  O161  1  0.84537678  0.62546963  0.68336277  1
  O  O162  1  0.16672868  0.37792754  0.30736492  1
  O  O163  1  0.16001875  0.37904053  0.64232986  1
  O  O164  1  0.16601739  0.37699900  0.98356181  1
  O  O165  1  0.15789907  0.87011435  0.30983022  1
  O  O166  1  0.16359230  0.87338931  0.64592648  1
  O  O167  1  0.16272782  0.86859658  0.96998307  1
  O  O168  1  0.50474993  0.37636939  0.30619946  1
  O  O169  1  0.49342245  0.37708998  0.64264540  1
  O  O170  1  0.49856699  0.37861359  0.96954101  1
  O  O171  1  0.50208054  0.87452014  0.31240113  1
  O  O172  1  0.50562588  0.87435409  0.65563578  1
  O  O173  1  0.49787048  0.86909006  0.97505947  1
  O  O174  1  0.82955332  0.38083680  0.31087671  1
  O  O175  1  0.84025012  0.37732979  0.64652180  1
  O  O176  1  0.83439369  0.37905327  0.97973488  1
  O  O177  1  0.83776662  0.86964441  0.32759451  1
  O  O178  1  0.83418414  0.86968482  0.64133913  1
  O  O179  1  0.83772349  0.86991605  0.98475899  1
  O  O180  1  0.00278455  0.38022609  0.19200067  1
  O  O181  1  0.00410895  0.37678893  0.52739508  1
  O  O182  1  -0.00107904  0.37951345  0.85351731  1
  O  O183  1  0.01033081  0.86762182  0.19142521  1
  O  O184  1  0.00004818  0.87298599  0.52292203  1
  O  O185  1  0.01040011  0.87049420  0.85489514  1
  O  O186  1  0.33348079  0.37664630  0.18952604  1
  O  O187  1  0.33647599  0.37604392  0.52438605  1
  O  O188  1  0.33922097  0.37599522  0.85407494  1
  O  O189  1  0.33334729  0.87473582  0.17606734  1
  O  O190  1  0.33007560  0.87244296  0.52095847  1
  O  O191  1  0.32905519  0.87360483  0.84514892  1
  O  O192  1  0.65582889  0.37799987  0.19735775  1
  O  O193  1  0.66369111  0.37747873  0.51406648  1
  O  O194  1  0.65582812  0.37937776  0.85780142  1
  O  O195  1  0.65469831  0.87278258  0.17885032  1
  O  O196  1  0.67526447  0.86840483  0.52581877  1
  O  O197  1  0.65957112  0.87164818  0.84595220  1
  O  O198  1  0.00880186  0.12863186  0.15525822  1
  O  O199  1  -0.00124407  0.12739657  0.48807469  1
  O  O200  1  -0.00110748  0.12165486  0.80817995  1
  O  O201  1  -0.00416877  0.62241811  0.13860792  1
  O  O202  1  -0.00426675  0.62147529  0.47398718  1
  O  O203  1  -0.00112270  0.62655624  0.80767601  1
  O  O204  1  0.33251424  0.12987789  0.13950607  1
  O  O205  1  0.32614003  0.13005598  0.48776477  1
  O  O206  1  0.32811159  0.12569303  0.81958177  1
  O  O207  1  0.33422070  0.62196903  0.14247259  1
  O  O208  1  0.32846908  0.62260750  0.49142502  1
  O  O209  1  0.34022410  0.62599948  0.80384443  1
  O  O210  1  0.66114211  0.12983221  0.15609086  1
  O  O211  1  0.66612906  0.13212938  0.47751596  1
  O  O212  1  0.66351544  0.12409140  0.82562327  1
  O  O213  1  0.66793600  0.61893928  0.14332309  1
  O  O214  1  0.67556952  0.62051239  0.48180551  1
  O  O215  1  0.66187736  0.62454113  0.80972907  1
  O  O216  1  0.09443609  0.01198886  0.23803852  1
  O  O217  1  0.08878539  0.02223782  0.57723565  1
  O  O218  1  0.09461950  0.01467363  0.89981005  1
  O  O219  1  0.08017440  0.52420974  0.24479278  1
  O  O220  1  0.08295655  0.52662385  0.57715882  1
  O  O221  1  0.08145516  0.52039912  0.91559827  1
  O  O222  1  0.42569513  0.01239111  0.23951201  1
  O  O223  1  0.42348972  0.01338917  0.57949017  1
  O  O224  1  0.41785855  0.02170620  0.91253978  1
  O  O225  1  0.42196191  0.51096596  0.24221017  1
  O  O226  1  0.40844841  0.51625506  0.59090729  1
  O  O227  1  0.41811035  0.52464113  0.91737869  1
  O  O228  1  0.74613757  0.01231111  0.25716428  1
  O  O229  1  0.76069223  0.00980424  0.58127706  1
  O  O230  1  0.75517426  0.00165829  0.90886647  1
  O  O231  1  0.74954998  0.52521636  0.26146813  1
  O  O232  1  0.74928378  0.52109681  0.59285827  1
  O  O233  1  0.73992851  0.51303270  0.93423617  1
  O  O234  1  0.25044367  0.23777754  0.24146398  1
  O  O235  1  0.24509792  0.24280014  0.57593196  1
  O  O236  1  0.25368169  0.23364276  0.91988307  1
  O  O237  1  0.24417262  0.73476030  0.24535836  1
  O  O238  1  0.24756812  0.73135257  0.58423002  1
  O  O239  1  0.25227892  0.72537471  0.91748707  1
  O  O240  1  0.58266656  0.22755270  0.25040536  1
  O  O241  1  0.58201163  0.23626957  0.57554671  1
  O  O242  1  0.57650121  0.23718885  0.91370410  1
  O  O243  1  0.58467834  0.72527961  0.25069720  1
  O  O244  1  0.58394508  0.72899806  0.58828710  1
  O  O245  1  0.57990413  0.72414022  0.91857062  1
  O  O246  1  0.91718416  0.25216817  0.25348314  1
  O  O247  1  0.92734067  0.23950340  0.59209842  1
  O  O248  1  0.91895765  0.24836581  0.91436346  1
  O  O249  1  0.91547321  0.72533443  0.25086421  1
  O  O250  1  0.91727180  0.72982567  0.58202828  1
  O  O251  1  0.92108963  0.73637937  0.92213420  1
  O  O252  1  0.07881814  0.48040086  0.08194713  1
  O  O253  1  0.08175417  0.47598793  0.41560829  1
  O  O254  1  0.07513506  0.49116300  0.73730778  1
  O  O255  1  0.08178722  0.97534606  0.07418954  1
  O  O256  1  0.07702714  0.98327204  0.41042563  1
  O  O257  1  0.07575603  0.97642784  0.74045029  1
  O  O258  1  0.41490117  0.47663784  0.07814813  1
  O  O259  1  0.42077475  0.47652569  0.41507627  1
  O  O260  1  0.41722099  0.47596381  0.75029704  1
  O  O261  1  0.41465502  0.98962296  0.08079693  1
  O  O262  1  0.41915052  0.99708677  0.41536380  1
  O  O263  1  0.41480082  0.97905719  0.74869805  1
  O  O264  1  0.75200623  0.47372519  0.09472024  1
  O  O265  1  0.75800760  0.47844318  0.42326106  1
  O  O266  1  0.75273865  0.48265048  0.76363346  1
  O  O267  1  0.74755805  0.99466372  0.08618415  1
  O  O268  1  0.75489584  0.98725864  0.42243600  1
  O  O269  1  0.74835707  0.97672903  0.74575407  1
  O  O270  1  0.24940613  0.27506425  0.08265630  1
  O  O271  1  0.25266861  0.27693884  0.41291382  1
  O  O272  1  0.25058029  0.26643565  0.74396132  1
  O  O273  1  0.24151557  0.75878228  0.08657316  1
  O  O274  1  0.24176224  0.75677727  0.42090525  1
  O  O275  1  0.24896450  0.76870083  0.74642958  1
  O  O276  1  0.58033033  0.27672301  0.08255391  1
  O  O277  1  0.58552732  0.27343695  0.41200234  1
  O  O278  1  0.57762244  0.26172028  0.75535119  1
  O  O279  1  0.57420641  0.75670855  0.08819163  1
  O  O280  1  0.59009627  0.74990665  0.41812724  1
  O  O281  1  0.58212178  0.76466779  0.75010713  1
  O  O282  1  0.91776268  0.27353436  0.08465933  1
  O  O283  1  0.91665355  0.27432353  0.42168906  1
  O  O284  1  0.91525769  0.27364468  0.75327917  1
  O  O285  1  0.92194066  0.76240676  0.08177754  1
  O  O286  1  0.92048085  0.77107085  0.41770459  1
  O  O287  1  0.91653961  0.77420589  0.75031988  1
  O  O288  1  0.24969011  0.48316119  0.08123116  1
  O  O289  1  0.25415781  0.47687256  0.41490731  1
  O  O290  1  0.25500287  0.48801911  0.73704404  1
  O  O291  1  0.23958149  0.98777019  0.09115352  1
  O  O292  1  0.24162651  0.99231594  0.41996693  1
  O  O293  1  0.24225978  0.98114916  0.75308635  1
  O  O294  1  0.58189837  0.47618882  0.07909760  1
  O  O295  1  0.58829822  0.48353480  0.40969004  1
  O  O296  1  0.57509405  0.48838006  0.75477968  1
  O  O297  1  0.57247697  0.99084544  0.09206261  1
  O  O298  1  0.58572638  0.99835951  0.41706658  1
  O  O299  1  0.58249828  0.98221822  0.75107373  1
  O  O300  1  0.91597826  0.47311715  0.08796980  1
  O  O301  1  0.91997355  0.47053652  0.41621487  1
  O  O302  1  0.91519125  0.47744725  0.75357090  1
  O  O303  1  0.92189653  0.98567427  0.08358196  1
  O  O304  1  0.91571100  0.98179480  0.42433799  1
  O  O305  1  0.91326599  0.97008832  0.75388973  1
  O  O306  1  0.08103673  0.27410669  0.07706608  1
  O  O307  1  0.08269152  0.27481121  0.41506440  1
  O  O308  1  0.07348690  0.26355971  0.73740792  1
  O  O309  1  0.08343606  0.76839884  0.07992839  1
  O  O310  1  0.07705156  0.76335312  0.40969987  1
  O  O311  1  0.08190362  0.76872937  0.74548796  1
  O  O312  1  0.41260639  0.27955200  0.07591263  1
  O  O313  1  0.41683266  0.27668654  0.40852827  1
  O  O314  1  0.41461902  0.27100728  0.74582034  1
  O  O315  1  0.41734617  0.76029967  0.08349226  1
  O  O316  1  0.41646005  0.75512132  0.41975107  1
  O  O317  1  0.41920283  0.77267270  0.75453006  1
  O  O318  1  0.74893084  0.27653978  0.09027924  1
  O  O319  1  0.75300058  0.27575933  0.41953734  1
  O  O320  1  0.75457773  0.26396981  0.75840274  1
  O  O321  1  0.75109266  0.75009396  0.09132334  1
  O  O322  1  0.76129599  0.75733917  0.43428452  1
  O  O323  1  0.75051893  0.77041227  0.75201308  1
  O  O324  1  0.25117753  0.01543989  0.24709448  1
  O  O325  1  0.24822839  0.01143100  0.58470413  1
  O  O326  1  0.25284431  0.02182922  0.92120526  1
  O  O327  1  0.24492817  0.51529306  0.24173584  1
  O  O328  1  0.24248181  0.51589598  0.57709550  1
  O  O329  1  0.25532757  0.51872713  0.91706436  1
  O  O330  1  0.58430952  0.02249253  0.25285648  1
  O  O331  1  0.58617226  0.01417619  0.58181069  1
  O  O332  1  0.57562738  0.01188485  0.91230264  1
  O  O333  1  0.58239449  0.52586993  0.24795201  1
  O  O334  1  0.57935370  0.51933118  0.58573837  1
  O  O335  1  0.58103343  0.52768170  0.91894511  1
  O  O336  1  0.92071210  0.00103400  0.25803108  1
  O  O337  1  0.92876250  0.00959038  0.59467777  1
  O  O338  1  0.92152076  -0.00004608  0.91456647  1
  O  O339  1  0.91426938  0.52096404  0.24985500  1
  O  O340  1  0.91923250  0.51770846  0.58145112  1
  O  O341  1  0.92193606  0.51416204  0.92721844  1
  O  O342  1  0.09149457  0.24237524  0.24074141  1
  O  O343  1  0.08920428  0.22739397  0.57655050  1
  O  O344  1  0.09122998  0.23337758  0.90497017  1
  O  O345  1  0.08325716  0.72124827  0.24509847  1
  O  O346  1  0.08111205  0.72557090  0.57988793  1
  O  O347  1  0.08255496  0.72644762  0.91606969  1
  O  O348  1  0.42526514  0.23942317  0.23625490  1
  O  O349  1  0.42502494  0.23652618  0.56967872  1
  O  O350  1  0.41864283  0.23048971  0.91286525  1
  O  O351  1  0.42207311  0.73861696  0.24238371  1
  O  O352  1  0.40854247  0.73708626  0.59448958  1
  O  O353  1  0.41652628  0.72305773  0.91784955  1
  O  O354  1  0.74334072  0.24352348  0.25938291  1
  O  O355  1  0.76033847  0.24340902  0.58035825  1
  O  O356  1  0.74824069  0.25328949  0.92022315  1
  O  O357  1  0.74946277  0.72317699  0.26116411  1
  O  O358  1  0.74605213  0.72285789  0.59414243  1
  O  O359  1  0.74525609  0.73369909  0.92547149  1
