# generated using pymatgen
data_Ba17Sr5La8Pr42Mn72O216
_symmetry_space_group_name_H-M   'P 1'
_cell_length_a   16.67337719
_cell_length_b   15.70418346
_cell_length_c   16.81917446
_cell_angle_alpha   90.01101778
_cell_angle_beta   89.99367731
_cell_angle_gamma   89.98965792
_symmetry_Int_Tables_number   1
_chemical_formula_structural   Ba17Sr5La8Pr42Mn72O216
_chemical_formula_sum   'Ba17 Sr5 La8 Pr42 Mn72 O216'
_cell_volume   4403.96230262
_cell_formula_units_Z   1
loop_
 _symmetry_equiv_pos_site_id
 _symmetry_equiv_pos_as_xyz
  1  'x, y, z'
loop_
 _atom_site_type_symbol
 _atom_site_label
 _atom_site_symmetry_multiplicity
 _atom_site_fract_x
 _atom_site_fract_y
 _atom_site_fract_z
 _atom_site_occupancy
  Ba  Ba0  1  0.00214536  0.12649881  0.99660298  1
  Ba  Ba1  1  0.00354785  0.37366541  0.33395183  1
  Ba  Ba2  1  -0.00180966  0.62456533  0.66515406  1
  Ba  Ba3  1  -0.00302087  0.87546401  -0.00064189  1
  Ba  Ba4  1  0.83718545  0.37249047  0.49613650  1
  Ba  Ba5  1  0.66845456  0.12422274  0.66601692  1
  Ba  Ba6  1  0.66754490  0.87380780  0.33116409  1
  Ba  Ba7  1  0.33237646  0.37540684  0.66779423  1
  Ba  Ba8  1  0.50013184  0.12454247  0.83648711  1
  Ba  Ba9  1  0.83162602  0.62563703  0.83127033  1
  Ba  Ba10  1  0.83004426  0.87587299  0.16297793  1
  Ba  Ba11  1  -0.00169116  0.62489745  0.99630358  1
  Ba  Ba12  1  0.50081489  0.62627190  0.50140487  1
  Ba  Ba13  1  0.16860253  0.37427852  0.16707922  1
  Ba  Ba14  1  0.33179798  0.87330194  0.67317705  1
  Ba  Ba15  1  0.49917648  0.37427536  0.83382361  1
  Ba  Ba16  1  0.66463127  0.62575568  0.33347851  1
  Sr  Sr17  1  0.16751967  0.37616432  0.49693423  1
  Sr  Sr18  1  0.49789074  0.87640335  0.83464139  1
  Sr  Sr19  1  0.83153914  0.37506552  0.16579687  1
  Sr  Sr20  1  0.83046060  0.87400404  0.83412586  1
  Sr  Sr21  1  0.00027050  0.37543706  0.66202051  1
  La  La22  1  -0.00416354  0.87514638  0.67101740  1
  La  La23  1  0.33027710  0.62337381  1.00417851  1
  La  La24  1  0.33679036  0.37459160  0.34192841  1
  La  La25  1  0.16593537  0.62468804  0.83311065  1
  La  La26  1  0.00231392  0.13068824  0.32997458  1
  La  La27  1  0.50284526  0.87237409  0.16749828  1
  La  La28  1  0.32780536  0.62627017  0.33310591  1
  La  La29  1  0.66393083  0.87331635  0.66955008  1
  Pr  Pr30  1  0.66626579  0.62394356  0.66106127  1
  Pr  Pr31  1  0.83326064  0.87449810  0.49587064  1
  Pr  Pr32  1  0.67054676  0.12479294  0.99233715  1
  Pr  Pr33  1  0.49476897  0.62611236  0.83404828  1
  Pr  Pr34  1  0.49445242  0.62616566  0.17668319  1
  Pr  Pr35  1  0.16624725  0.87342093  0.49924328  1
  Pr  Pr36  1  0.50057333  0.12390104  0.16996755  1
  Pr  Pr37  1  0.16757052  0.87599203  0.16154090  1
  Pr  Pr38  1  0.33662807  0.87793203  0.00209043  1
  Pr  Pr39  1  0.83337745  0.62666351  0.16579457  1
  Pr  Pr40  1  0.66809260  0.37520578  -0.00119612  1
  Pr  Pr41  1  0.33255347  0.12382264  0.33425111  1
  Pr  Pr42  1  0.33490071  0.87510889  0.34131422  1
  Pr  Pr43  1  -0.00155388  0.87846177  0.33270509  1
  Pr  Pr44  1  0.66378664  0.62661486  0.99935015  1
  Pr  Pr45  1  0.82921141  0.62381404  0.50350856  1
  Pr  Pr46  1  0.83990909  0.12424939  0.16517404  1
  Pr  Pr47  1  0.67125558  0.37617215  0.33588493  1
  Pr  Pr48  1  0.16075555  0.37426408  0.83080869  1
  Pr  Pr49  1  0.17066107  0.12874771  0.50219206  1
  Pr  Pr50  1  0.84383396  0.12383335  0.49961707  1
  Pr  Pr51  1  0.16520855  0.62097009  0.50260747  1
  Pr  Pr52  1  0.15720663  0.62636764  0.16974869  1
  Pr  Pr53  1  0.00450553  0.12587315  0.66606685  1
  Pr  Pr54  1  -0.00413580  0.62133757  0.33101952  1
  Pr  Pr55  1  0.83621552  0.12587286  0.83420322  1
  Pr  Pr56  1  0.50201697  0.12095551  0.50743504  1
  Pr  Pr57  1  0.66961652  0.37725862  0.66824551  1
  Pr  Pr58  1  0.33993370  0.12575837  0.66740017  1
  Pr  Pr59  1  -0.00643825  0.37805536  0.00273856  1
  Pr  Pr60  1  0.67201696  0.12471508  0.33040337  1
  Pr  Pr61  1  0.16464717  0.12330487  0.16947848  1
  Pr  Pr62  1  0.50394651  0.37882487  0.16537067  1
  Pr  Pr63  1  0.33795828  0.37260561  0.00426854  1
  Pr  Pr64  1  0.33078248  0.62283185  0.66650025  1
  Pr  Pr65  1  0.66498358  0.87493454  0.00124089  1
  Pr  Pr66  1  0.33359465  0.12715070  1.00034840  1
  Pr  Pr67  1  0.50204566  0.87664802  0.50161469  1
  Pr  Pr68  1  0.83473798  0.37549933  0.82789768  1
  Pr  Pr69  1  0.50710893  0.37327301  0.50074765  1
  Pr  Pr70  1  0.15971039  0.87462585  0.83225393  1
  Pr  Pr71  1  0.17241448  0.12436173  0.83328724  1
  Mn  Mn72  1  0.00134073  0.00180228  0.16700359  1
  Mn  Mn73  1  0.00382796  -0.00143000  0.50057008  1
  Mn  Mn74  1  -0.00156485  0.00086567  0.83001498  1
  Mn  Mn75  1  -0.00206752  0.49863487  0.16445572  1
  Mn  Mn76  1  0.00201931  0.50048696  0.49744910  1
  Mn  Mn77  1  0.00039856  0.49774990  0.83239416  1
  Mn  Mn78  1  0.33450361  -0.00036236  0.16969516  1
  Mn  Mn79  1  0.33296400  -0.00129450  0.50278400  1
  Mn  Mn80  1  0.33160302  -0.00024395  0.83561596  1
  Mn  Mn81  1  0.33221951  0.49994098  0.16944331  1
  Mn  Mn82  1  0.33517409  0.50052153  0.50099152  1
  Mn  Mn83  1  0.33054510  0.50152608  0.83617237  1
  Mn  Mn84  1  0.66444288  0.00419159  0.16259447  1
  Mn  Mn85  1  0.66876314  0.00043067  0.49873322  1
  Mn  Mn86  1  0.66710571  -0.00204075  0.83331237  1
  Mn  Mn87  1  0.66602163  0.49902138  0.16537785  1
  Mn  Mn88  1  0.66758779  0.49801854  0.49976262  1
  Mn  Mn89  1  0.66468298  0.50157754  0.83273630  1
  Mn  Mn90  1  0.00051534  0.25227435  0.16328084  1
  Mn  Mn91  1  0.00469786  0.24780564  0.49848441  1
  Mn  Mn92  1  0.00015786  0.25101482  0.83067865  1
  Mn  Mn93  1  -0.00084617  0.74936703  0.16737357  1
  Mn  Mn94  1  0.00147916  0.75224467  0.49692145  1
  Mn  Mn95  1  -0.00140535  0.75061670  0.83207137  1
  Mn  Mn96  1  0.33611570  0.24788243  0.16990248  1
  Mn  Mn97  1  0.33643973  0.24905227  0.50068770  1
  Mn  Mn98  1  0.33112667  0.24996116  0.83515085  1
  Mn  Mn99  1  0.33131123  0.75293686  0.16899036  1
  Mn  Mn100  1  0.33278023  0.75059504  0.50330768  1
  Mn  Mn101  1  0.33115692  0.74889867  0.83724610  1
  Mn  Mn102  1  0.66595279  0.24901437  0.16459601  1
  Mn  Mn103  1  0.66750137  0.24732409  0.49691606  1
  Mn  Mn104  1  0.66813173  0.25033877  0.83226852  1
  Mn  Mn105  1  0.66436118  0.74918567  0.16412681  1
  Mn  Mn106  1  0.66783169  0.75168753  0.50213564  1
  Mn  Mn107  1  0.66330807  0.75017048  0.83285477  1
  Mn  Mn108  1  0.16932033  0.25076406  -0.00174789  1
  Mn  Mn109  1  0.17164163  0.24793800  0.33452237  1
  Mn  Mn110  1  0.16599953  0.25073257  0.66702405  1
  Mn  Mn111  1  0.16898342  0.75093507  0.00046788  1
  Mn  Mn112  1  0.16498381  0.75295222  0.33275228  1
  Mn  Mn113  1  0.16543375  0.74992278  0.66600611  1
  Mn  Mn114  1  0.50103592  0.25159078  0.00476900  1
  Mn  Mn115  1  0.50178193  0.24773171  0.33494635  1
  Mn  Mn116  1  0.50125636  0.24956906  0.66615369  1
  Mn  Mn117  1  0.49807138  0.74872149  0.00159646  1
  Mn  Mn118  1  0.49728990  0.75217786  0.33551200  1
  Mn  Mn119  1  0.49989099  0.74989210  0.67116617  1
  Mn  Mn120  1  0.83137822  0.25163220  -0.00193374  1
  Mn  Mn121  1  0.83307794  0.24786165  0.32984106  1
  Mn  Mn122  1  0.83557439  0.24874709  0.66505998  1
  Mn  Mn123  1  0.82957343  0.74945852  -0.00148400  1
  Mn  Mn124  1  0.83520032  0.75048052  0.33355987  1
  Mn  Mn125  1  0.83181347  0.75165216  0.66413311  1
  Mn  Mn126  1  0.16948454  0.00142914  -0.00035345  1
  Mn  Mn127  1  0.16759943  -0.00161293  0.33360484  1
  Mn  Mn128  1  0.16603755  0.00154609  0.66597516  1
  Mn  Mn129  1  0.16850313  0.49877701  -0.00085240  1
  Mn  Mn130  1  0.16841972  0.50184272  0.33401971  1
  Mn  Mn131  1  0.16509859  0.49755122  0.66660192  1
  Mn  Mn132  1  0.49970074  -0.00094693  0.00371449  1
  Mn  Mn133  1  0.50021611  0.00158025  0.33627723  1
  Mn  Mn134  1  0.50009502  -0.00186677  0.66904680  1
  Mn  Mn135  1  0.49909231  0.50238817  0.00314382  1
  Mn  Mn136  1  0.49832545  0.49818000  0.33376342  1
  Mn  Mn137  1  0.50094565  0.50053313  0.66828018  1
  Mn  Mn138  1  0.83100098  0.00144678  -0.00235182  1
  Mn  Mn139  1  0.83449226  0.00079570  0.33261855  1
  Mn  Mn140  1  0.83435445  0.00025265  0.66541493  1
  Mn  Mn141  1  0.82909523  0.49872097  -0.00122461  1
  Mn  Mn142  1  0.83327800  0.50125536  0.33135293  1
  Mn  Mn143  1  0.83398602  0.49772713  0.66524664  1
  O  O144  1  0.17435241  0.12600728  0.02634746  1
  O  O145  1  0.17076844  0.11942650  0.35794382  1
  O  O146  1  0.16383973  0.12558501  0.69052750  1
  O  O147  1  0.17267346  0.62718608  0.02696479  1
  O  O148  1  0.16705564  0.63291755  0.35828505  1
  O  O149  1  0.17154022  0.62254965  0.68810740  1
  O  O150  1  0.49970398  0.12691147  0.02583166  1
  O  O151  1  0.50111188  0.12465039  0.36399328  1
  O  O152  1  0.49700761  0.12371515  0.67599415  1
  O  O153  1  0.50005944  0.62554549  0.03286280  1
  O  O154  1  0.49288665  0.62655513  0.34389153  1
  O  O155  1  0.51209481  0.62661653  0.68875691  1
  O  O156  1  0.82419484  0.12956834  0.02077074  1
  O  O157  1  0.83081437  0.12357463  0.35368653  1
  O  O158  1  0.84139960  0.12457230  0.69074215  1
  O  O159  1  0.82375691  0.62061761  0.01994845  1
  O  O160  1  0.84077671  0.63001512  0.35724706  1
  O  O161  1  0.82629342  0.62398063  0.67362153  1
  O  O162  1  0.17988905  0.37168227  0.32512049  1
  O  O163  1  0.16537655  0.37289845  0.64631507  1
  O  O164  1  0.17952860  0.37235634  0.97554275  1
  O  O165  1  0.17012644  0.87627857  0.30383920  1
  O  O166  1  0.16185906  0.87892952  0.64229494  1
  O  O167  1  0.17682320  0.87594308  0.97673461  1
  O  O168  1  0.49591536  0.36943759  0.30765475  1
  O  O169  1  0.50244754  0.37317240  0.64620703  1
  O  O170  1  0.49184874  0.37830140  0.98929640  1
  O  O171  1  0.49175159  0.87888113  0.31200173  1
  O  O172  1  0.50013376  0.87436647  0.64667604  1
  O  O173  1  0.49625845  0.87080661  0.98186991  1
  O  O174  1  0.82562845  0.37072589  0.31629636  1
  O  O175  1  0.82687838  0.37219933  0.65157146  1
  O  O176  1  0.82536750  0.37391350  0.97460848  1
  O  O177  1  0.84016021  0.87648878  0.31914900  1
  O  O178  1  0.83671941  0.87768895  0.63871517  1
  O  O179  1  0.82002351  0.87647234  0.98738949  1
  O  O180  1  -0.00378555  0.37519916  0.17702377  1
  O  O181  1  0.00629397  0.36883525  0.51112645  1
  O  O182  1  0.00594120  0.37180572  0.85719409  1
  O  O183  1  0.00616218  0.87557651  0.18786845  1
  O  O184  1  0.00343588  0.87672328  0.52784252  1
  O  O185  1  0.00873947  0.87821207  0.84048614  1
  O  O186  1  0.33869936  0.36916157  0.19680931  1
  O  O187  1  0.33307217  0.37282100  0.50957953  1
  O  O188  1  0.32600799  0.37673676  0.85963172  1
  O  O189  1  0.32728599  0.87725635  0.19836341  1
  O  O190  1  0.32626180  0.87551000  0.51786258  1
  O  O191  1  0.32920883  0.87290733  0.85821441  1
  O  O192  1  0.66250990  0.37118020  0.19443989  1
  O  O193  1  0.66444109  0.37100160  0.52081513  1
  O  O194  1  0.67447609  0.37468184  0.85423507  1
  O  O195  1  0.66196651  0.87707639  0.17493632  1
  O  O196  1  0.67607103  0.87660575  0.52104866  1
  O  O197  1  0.66641768  0.87379913  0.85805679  1
  O  O198  1  0.00472093  0.12817734  0.15436584  1
  O  O199  1  0.00359774  0.11970674  0.47377603  1
  O  O200  1  -0.00737112  0.12599625  0.80974631  1
  O  O201  1  0.00442175  0.62322775  0.15419311  1
  O  O202  1  0.00691364  0.63337060  0.47436221  1
  O  O203  1  0.00639109  0.62348696  0.82338515  1
  O  O204  1  0.34081729  0.12242396  0.14207431  1
  O  O205  1  0.33722813  0.12182870  0.47773874  1
  O  O206  1  0.32424019  0.12481607  0.81230851  1
  O  O207  1  0.34013292  0.63100472  0.14705230  1
  O  O208  1  0.32931413  0.62878486  0.47746150  1
  O  O209  1  0.32794070  0.62567485  0.81227072  1
  O  O210  1  0.65365008  0.12848729  0.13560033  1
  O  O211  1  0.65539392  0.12450081  0.47469445  1
  O  O212  1  0.66856219  0.12493060  0.82360678  1
  O  O213  1  0.65761324  0.62304223  0.14468518  1
  O  O214  1  0.67269811  0.62531262  0.49240533  1
  O  O215  1  0.65712798  0.62715100  0.80644781  1
  O  O216  1  0.08684279  0.02046701  0.25309284  1
  O  O217  1  0.09173833  0.02433744  0.57605560  1
  O  O218  1  0.09111902  0.01354864  0.90313188  1
  O  O219  1  0.08246267  0.51809583  0.25346309  1
  O  O220  1  0.08701787  0.51511861  0.57965660  1
  O  O221  1  0.09049007  0.50727415  0.91066257  1
  O  O222  1  0.41748969  0.02366386  0.25288448  1
  O  O223  1  0.41809851  0.01625562  0.58219683  1
  O  O224  1  0.41292855  0.01308666  0.92969203  1
  O  O225  1  0.40708706  0.51771880  0.25878318  1
  O  O226  1  0.41189418  0.51774506  0.59213397  1
  O  O227  1  0.41237967  0.52284184  0.92488614  1
  O  O228  1  0.75089070  0.02635035  0.23773729  1
  O  O229  1  0.76305842  0.01769809  0.57212467  1
  O  O230  1  0.75531640  0.02122884  0.90956817  1
  O  O231  1  0.75005087  0.51604226  0.24399454  1
  O  O232  1  0.74639613  0.51248532  0.58646380  1
  O  O233  1  0.73685386  0.51616473  0.92338949  1
  O  O234  1  0.25152285  0.22098645  0.24735624  1
  O  O235  1  0.25251724  0.22618888  0.58517795  1
  O  O236  1  0.25177139  0.22446000  0.91883709  1
  O  O237  1  0.24234893  0.72809902  0.24507678  1
  O  O238  1  0.24968862  0.72808043  0.58511602  1
  O  O239  1  0.25228196  0.72668270  0.92178559  1
  O  O240  1  0.58302401  0.22364635  0.25193205  1
  O  O241  1  0.57791652  0.23728258  0.57179635  1
  O  O242  1  0.58977316  0.24276671  0.92578373  1
  O  O243  1  0.57381241  0.74062520  0.24092818  1
  O  O244  1  0.58988606  0.74252436  0.59206866  1
  O  O245  1  0.57739543  0.72534617  0.91746822  1
  O  O246  1  0.91469417  0.22929224  0.24823379  1
  O  O247  1  0.92263701  0.22642919  0.58309002  1
  O  O248  1  0.91277011  0.23922304  0.91143637  1
  O  O249  1  0.91641756  0.72806588  0.25093650  1
  O  O250  1  0.91003880  0.73789734  0.56831079  1
  O  O251  1  0.91184151  0.74777363  0.91458547  1
  O  O252  1  0.08091127  0.48404371  0.07662476  1
  O  O253  1  0.09274668  0.49475074  0.41988907  1
  O  O254  1  0.08322925  0.48033046  0.74978609  1
  O  O255  1  0.09209314  0.98746738  0.08764710  1
  O  O256  1  0.08329630  0.97278542  0.41524472  1
  O  O257  1  0.07402346  0.98889384  0.73661726  1
  O  O258  1  0.42119522  0.48266930  0.09371544  1
  O  O259  1  0.42438128  0.47841454  0.42205879  1
  O  O260  1  0.41808049  0.50042925  0.75640080  1
  O  O261  1  0.41628533  0.97563227  0.09038459  1
  O  O262  1  0.41424571  0.97897121  0.41987192  1
  O  O263  1  0.41191255  0.99301182  0.75288494  1
  O  O264  1  0.74633793  0.47953262  0.08326159  1
  O  O265  1  0.74821840  0.48824298  0.41318292  1
  O  O266  1  0.75229928  0.48101269  0.75087530  1
  O  O267  1  0.73504743  0.99376702  0.06906643  1
  O  O268  1  0.74930900  0.99174557  0.41315991  1
  O  O269  1  0.74710042  0.98118307  0.74109895  1
  O  O270  1  0.26187457  0.26328954  0.07919215  1
  O  O271  1  0.26193989  0.25458873  0.41055664  1
  O  O272  1  0.23910216  0.26353168  0.75809655  1
  O  O273  1  0.25483090  0.77503939  0.08332088  1
  O  O274  1  0.24880472  0.77293732  0.41188926  1
  O  O275  1  0.24082495  0.76296689  0.76044067  1
  O  O276  1  0.58234786  0.27751495  0.08678861  1
  O  O277  1  0.58548749  0.27640831  0.41182629  1
  O  O278  1  0.58940993  0.26576096  0.74382001  1
  O  O279  1  0.58224956  0.76990184  0.07845348  1
  O  O280  1  0.58102572  0.76807478  0.42539029  1
  O  O281  1  0.58235804  0.77373661  0.75231012  1
  O  O282  1  0.91279387  0.26766579  0.07685035  1
  O  O283  1  0.92024395  0.24853905  0.41472397  1
  O  O284  1  0.91486488  0.27033248  0.75308353  1
  O  O285  1  0.91203768  0.75165376  0.08624430  1
  O  O286  1  0.92471285  0.77584887  0.41231857  1
  O  O287  1  0.91527166  0.76579039  0.74159428  1
  O  O288  1  0.26078979  0.48496836  0.07715909  1
  O  O289  1  0.26033645  0.49307717  0.40856563  1
  O  O290  1  0.24312560  0.48637471  0.75650672  1
  O  O291  1  0.25535259  0.97886805  0.08682589  1
  O  O292  1  0.24885308  0.97953701  0.41724601  1
  O  O293  1  0.23482129  0.98522612  0.75889976  1
  O  O294  1  0.58768055  0.47718143  0.07856337  1
  O  O295  1  0.58584042  0.47697164  0.41274727  1
  O  O296  1  0.59141463  0.48260820  0.74355661  1
  O  O297  1  0.57457562  0.98113744  0.09026490  1
  O  O298  1  0.57673793  0.98068752  0.42297369  1
  O  O299  1  0.58319622  0.98114202  0.75150597  1
  O  O300  1  0.91364679  0.48384918  0.07872720  1
  O  O301  1  0.92252318  0.49741784  0.41074647  1
  O  O302  1  0.91576873  0.48113950  0.74928905  1
  O  O303  1  0.90973684  0.99896988  0.08522233  1
  O  O304  1  0.91753740  0.98026346  0.42460956  1
  O  O305  1  0.91304549  0.98087881  0.74928562  1
  O  O306  1  0.08171474  0.26837697  0.07175261  1
  O  O307  1  0.09393087  0.25244025  0.42033897  1
  O  O308  1  0.07780026  0.26610229  0.74425658  1
  O  O309  1  0.09208890  0.76459632  0.09016506  1
  O  O310  1  0.08500091  0.78181237  0.41375282  1
  O  O311  1  0.08194552  0.76836299  0.74361104  1
  O  O312  1  0.42195665  0.26916645  0.09410079  1
  O  O313  1  0.42457341  0.26903741  0.42105769  1
  O  O314  1  0.41084929  0.25427560  0.75176293  1
  O  O315  1  0.41650373  0.77389993  0.08958848  1
  O  O316  1  0.41645991  0.77410675  0.42287041  1
  O  O317  1  0.41922180  0.75381052  0.76048811  1
  O  O318  1  0.74335075  0.26912478  0.07617383  1
  O  O319  1  0.74133763  0.25779794  0.40370168  1
  O  O320  1  0.75057000  0.26727180  0.74875406  1
  O  O321  1  0.74121533  0.75568379  0.07778289  1
  O  O322  1  0.75967174  0.76248617  0.42332731  1
  O  O323  1  0.74520297  0.76801250  0.74545252  1
  O  O324  1  0.25192215  0.02553280  0.24936775  1
  O  O325  1  0.25370917  0.02541901  0.58775662  1
  O  O326  1  0.25352821  0.02362854  0.92203022  1
  O  O327  1  0.24417368  0.52566182  0.24463111  1
  O  O328  1  0.24941667  0.52048686  0.58300587  1
  O  O329  1  0.24920559  0.52558137  0.91756384  1
  O  O330  1  0.58555149  0.02287376  0.25158410  1
  O  O331  1  0.58241030  0.00635905  0.58021782  1
  O  O332  1  0.59102592  0.00977644  0.92992585  1
  O  O333  1  0.57093038  0.51063860  0.24021836  1
  O  O334  1  0.58509811  0.50700958  0.58377626  1
  O  O335  1  0.57592015  0.52237410  0.91591803  1
  O  O336  1  0.92128904  0.02067710  0.25496727  1
  O  O337  1  0.92598726  0.02318622  0.58694655  1
  O  O338  1  0.91346284  0.01337370  0.91213455  1
  O  O339  1  0.91263885  0.52177173  0.24550945  1
  O  O340  1  0.91236882  0.51338209  0.57479799  1
  O  O341  1  0.91397440  0.49878601  0.91400084  1
  O  O342  1  0.08903435  0.23151476  0.25185678  1
  O  O343  1  0.08618488  0.22444543  0.58213031  1
  O  O344  1  0.09220570  0.23537703  0.90359228  1
  O  O345  1  0.08007378  0.73071443  0.25581050  1
  O  O346  1  0.09045460  0.73615279  0.57182661  1
  O  O347  1  0.09301721  0.74144058  0.91180687  1
  O  O348  1  0.41636396  0.22106537  0.25711970  1
  O  O349  1  0.41610404  0.22881649  0.58304109  1
  O  O350  1  0.41114998  0.23786076  0.92968110  1
  O  O351  1  0.40686629  0.73619177  0.25494760  1
  O  O352  1  0.41351505  0.73202475  0.59511046  1
  O  O353  1  0.41374291  0.72517270  0.92401108  1
  O  O354  1  0.74986557  0.22232624  0.24102506  1
  O  O355  1  0.75710089  0.22794464  0.57070655  1
  O  O356  1  0.75305218  0.22965682  0.91283046  1
  O  O357  1  0.75270064  0.73307359  0.24370995  1
  O  O358  1  0.74927646  0.73411595  0.58403380  1
  O  O359  1  0.73892818  0.73386874  0.91984174  1
