# generated using pymatgen
data_Ba17Sr5La8Pr42Mn72O216
_symmetry_space_group_name_H-M   'P 1'
_cell_length_a   16.68223443
_cell_length_b   15.71481169
_cell_length_c   16.82615443
_cell_angle_alpha   89.99845508
_cell_angle_beta   89.94018993
_cell_angle_gamma   90.01513731
_symmetry_Int_Tables_number   1
_chemical_formula_structural   Ba17Sr5La8Pr42Mn72O216
_chemical_formula_sum   'Ba17 Sr5 La8 Pr42 Mn72 O216'
_cell_volume   4411.11134003
_cell_formula_units_Z   1
loop_
 _symmetry_equiv_pos_site_id
 _symmetry_equiv_pos_as_xyz
  1  'x, y, z'
loop_
 _atom_site_type_symbol
 _atom_site_label
 _atom_site_symmetry_multiplicity
 _atom_site_fract_x
 _atom_site_fract_y
 _atom_site_fract_z
 _atom_site_occupancy
  Ba  Ba0  1  0.83279971  0.87353332  0.50229812  1
  Ba  Ba1  1  0.66698590  0.12469531  0.33116863  1
  Ba  Ba2  1  0.50166325  0.62573488  0.49691702  1
  Ba  Ba3  1  0.16855313  0.62529194  0.50225500  1
  Ba  Ba4  1  0.83284969  0.12323222  0.50040168  1
  Ba  Ba5  1  -0.00255796  0.87581358  -0.00041749  1
  Ba  Ba6  1  0.00107656  0.37467924  0.33463879  1
  Ba  Ba7  1  0.33279140  0.87831545  0.33310663  1
  Ba  Ba8  1  0.66559475  0.37448513  0.33165452  1
  Ba  Ba9  1  -0.00313840  0.37374216  0.00241134  1
  Ba  Ba10  1  0.33816288  0.62616391  1.00052295  1
  Ba  Ba11  1  0.16857803  0.87640871  0.50137814  1
  Ba  Ba12  1  0.33482683  0.62654025  0.66680345  1
  Ba  Ba13  1  0.50136034  0.37250064  0.83312740  1
  Ba  Ba14  1  0.17251242  0.62353781  0.16619167  1
  Ba  Ba15  1  0.33533767  0.37396558  0.66836031  1
  Ba  Ba16  1  0.16545233  0.87668509  0.83290340  1
  Sr  Sr17  1  0.16127387  0.12505496  0.50131789  1
  Sr  Sr18  1  -0.00134652  0.12385267  0.66410707  1
  Sr  Sr19  1  -0.00301631  0.12385903  0.33854950  1
  Sr  Sr20  1  0.32961242  0.87597829  0.66518146  1
  Sr  Sr21  1  0.17575918  0.62573744  0.83653026  1
  La  La22  1  0.16933137  0.37423893  0.50298950  1
  La  La23  1  0.16513039  0.37437686  0.16596646  1
  La  La24  1  0.83113549  0.12409990  0.82954581  1
  La  La25  1  0.82925576  0.36987990  0.16523472  1
  La  La26  1  0.00791301  0.62693903  0.67001151  1
  La  La27  1  0.15584481  0.12421574  0.17208004  1
  La  La28  1  -0.00111823  0.37084990  0.66910872  1
  La  La29  1  0.83810220  0.62097048  0.50140278  1
  Pr  Pr30  1  0.82981994  0.87180741  0.82472746  1
  Pr  Pr31  1  0.66400574  0.12500985  0.99670672  1
  Pr  Pr32  1  0.66143833  0.37618426  0.00211017  1
  Pr  Pr33  1  0.66168962  0.87437617  0.33669056  1
  Pr  Pr34  1  0.83486315  0.37164764  0.49844763  1
  Pr  Pr35  1  0.50267631  0.62212972  0.83356215  1
  Pr  Pr36  1  0.49383079  0.12525764  0.17116368  1
  Pr  Pr37  1  0.66202875  0.87403726  -0.00178650  1
  Pr  Pr38  1  0.01522219  0.62309547  0.99438620  1
  Pr  Pr39  1  -0.00161480  0.12613064  0.99779903  1
  Pr  Pr40  1  0.49312753  0.12533558  0.83291181  1
  Pr  Pr41  1  0.49935916  0.37220805  0.16334566  1
  Pr  Pr42  1  0.00126265  0.87499614  0.33735446  1
  Pr  Pr43  1  0.82734519  0.87718703  0.16407104  1
  Pr  Pr44  1  0.49630275  0.87176617  0.49779456  1
  Pr  Pr45  1  0.32447808  0.12408743  0.33266617  1
  Pr  Pr46  1  0.65909998  0.87568455  0.66408875  1
  Pr  Pr47  1  0.32925550  0.12309498  0.99811936  1
  Pr  Pr48  1  0.32812502  0.87563426  0.00227037  1
  Pr  Pr49  1  0.32575610  0.12583704  0.66443916  1
  Pr  Pr50  1  0.67364600  0.62476860  0.99516931  1
  Pr  Pr51  1  0.66751738  0.62524791  0.66522574  1
  Pr  Pr52  1  0.01174248  0.62739045  0.33464943  1
  Pr  Pr53  1  0.84634110  0.62351525  0.83910808  1
  Pr  Pr54  1  0.17052874  0.37890439  0.83250222  1
  Pr  Pr55  1  0.68119994  0.62711873  0.33002228  1
  Pr  Pr56  1  0.83643976  0.12454538  0.17172240  1
  Pr  Pr57  1  0.49816969  0.88000678  0.16554092  1
  Pr  Pr58  1  0.33187728  0.63054103  0.33652340  1
  Pr  Pr59  1  0.49435258  0.87558222  0.83018020  1
  Pr  Pr60  1  0.50694810  0.62581474  0.17338070  1
  Pr  Pr61  1  0.66415383  0.37512683  0.66398074  1
  Pr  Pr62  1  0.16181570  0.12745477  0.83426192  1
  Pr  Pr63  1  0.66367991  0.12590783  0.65699170  1
  Pr  Pr64  1  0.49829806  0.37762547  0.49734880  1
  Pr  Pr65  1  0.84587442  0.62453702  0.16583415  1
  Pr  Pr66  1  0.49719521  0.12431528  0.49930852  1
  Pr  Pr67  1  0.33052522  0.37421129  0.00087671  1
  Pr  Pr68  1  0.83031760  0.37654781  0.83143501  1
  Pr  Pr69  1  0.33234227  0.37496014  0.33596002  1
  Pr  Pr70  1  0.00331472  0.88190234  0.66599533  1
  Pr  Pr71  1  0.16650086  0.87259277  0.16249776  1
  Mn  Mn72  1  -0.00226581  -0.00162060  0.16887783  1
  Mn  Mn73  1  -0.00045973  0.00017775  0.50122149  1
  Mn  Mn74  1  -0.00421005  0.00363407  0.83362801  1
  Mn  Mn75  1  -0.00001105  0.50021977  0.16665008  1
  Mn  Mn76  1  0.00005024  0.49963005  0.50415428  1
  Mn  Mn77  1  0.00129383  0.49656853  0.83496334  1
  Mn  Mn78  1  0.33144923  0.00246166  0.16512226  1
  Mn  Mn79  1  0.33371047  0.00337388  0.50042315  1
  Mn  Mn80  1  0.33225334  0.00240758  0.83249732  1
  Mn  Mn81  1  0.33876332  0.49736059  0.16836887  1
  Mn  Mn82  1  0.33416986  0.49765830  0.49970330  1
  Mn  Mn83  1  0.33723368  0.50074452  0.83520342  1
  Mn  Mn84  1  0.66596329  -0.00105100  0.16323764  1
  Mn  Mn85  1  0.66486809  -0.00212841  0.49860099  1
  Mn  Mn86  1  0.66552929  0.00080623  0.83032550  1
  Mn  Mn87  1  0.66708765  0.50303757  0.16476254  1
  Mn  Mn88  1  0.66749065  0.50094581  0.49860548  1
  Mn  Mn89  1  0.66853520  0.49941595  0.83219025  1
  Mn  Mn90  1  -0.00229611  0.24986800  0.16747891  1
  Mn  Mn91  1  -0.00057532  0.24972327  0.50349263  1
  Mn  Mn92  1  -0.00231506  0.25021774  0.83453604  1
  Mn  Mn93  1  0.00040905  0.75004565  0.16725965  1
  Mn  Mn94  1  -0.00015494  0.74903532  0.50179052  1
  Mn  Mn95  1  -0.00089542  0.75003455  0.83470601  1
  Mn  Mn96  1  0.33188166  0.24816788  0.16707667  1
  Mn  Mn97  1  0.33407159  0.24845210  0.49915849  1
  Mn  Mn98  1  0.33220496  0.24719586  0.83423570  1
  Mn  Mn99  1  0.33814985  0.75233249  0.16517578  1
  Mn  Mn100  1  0.33443565  0.75207129  0.50073904  1
  Mn  Mn101  1  0.33577150  0.75188809  0.83354915  1
  Mn  Mn102  1  0.66545422  0.24855692  0.16183899  1
  Mn  Mn103  1  0.66427791  0.25038813  0.49913773  1
  Mn  Mn104  1  0.66746747  0.24710912  0.83041591  1
  Mn  Mn105  1  0.66747364  0.75052906  0.16482096  1
  Mn  Mn106  1  0.66767718  0.74901126  0.49859498  1
  Mn  Mn107  1  0.66620370  0.75132361  0.83195214  1
  Mn  Mn108  1  0.16659128  0.24768171  0.00203014  1
  Mn  Mn109  1  0.16577618  0.24882804  0.33422546  1
  Mn  Mn110  1  0.16390375  0.25050309  0.66880141  1
  Mn  Mn111  1  0.16907442  0.75153220  -0.00062831  1
  Mn  Mn112  1  0.16880033  0.75075120  0.33178439  1
  Mn  Mn113  1  0.16684023  0.75154665  0.66922461  1
  Mn  Mn114  1  0.49937570  0.24722316  0.00039149  1
  Mn  Mn115  1  0.49761925  0.24942060  0.33251963  1
  Mn  Mn116  1  0.50137008  0.24711010  0.66569262  1
  Mn  Mn117  1  0.50293307  0.75223468  -0.00025557  1
  Mn  Mn118  1  0.50133696  0.75083374  0.33061021  1
  Mn  Mn119  1  0.50002513  0.75269085  0.66746965  1
  Mn  Mn120  1  0.82900072  0.24680207  -0.00119085  1
  Mn  Mn121  1  0.83392087  0.24961633  0.33310745  1
  Mn  Mn122  1  0.83087800  0.25123657  0.66705337  1
  Mn  Mn123  1  0.83289892  0.75143567  -0.00073861  1
  Mn  Mn124  1  0.83718779  0.74950574  0.33080489  1
  Mn  Mn125  1  0.83241928  0.74601191  0.66924504  1
  Mn  Mn126  1  0.16540422  0.00227503  0.00205021  1
  Mn  Mn127  1  0.16347699  0.00205296  0.33314823  1
  Mn  Mn128  1  0.16521054  0.00199047  0.66739821  1
  Mn  Mn129  1  0.16964393  0.49689580  -0.00009173  1
  Mn  Mn130  1  0.17009049  0.49743391  0.33424557  1
  Mn  Mn131  1  0.16614108  0.49861188  0.66917430  1
  Mn  Mn132  1  0.49990784  0.00136814  -0.00110469  1
  Mn  Mn133  1  0.49918105  0.00184720  0.33318161  1
  Mn  Mn134  1  0.49866810  0.00159023  0.66668216  1
  Mn  Mn135  1  0.50177448  0.50063422  0.00238827  1
  Mn  Mn136  1  0.50073619  0.49971573  0.32986329  1
  Mn  Mn137  1  0.50273614  0.50035097  0.66615296  1
  Mn  Mn138  1  0.82977411  0.00039859  -0.00096742  1
  Mn  Mn139  1  0.83442694  -0.00145650  0.33074859  1
  Mn  Mn140  1  0.83075219  -0.00168697  0.66833405  1
  Mn  Mn141  1  0.83162664  0.50064387  0.00055363  1
  Mn  Mn142  1  0.83668783  0.50069311  0.33342258  1
  Mn  Mn143  1  0.83244548  0.50158286  0.66827710  1
  O  O144  1  0.16403288  0.12560007  0.02671881  1
  O  O145  1  0.16762845  0.12716235  0.34974243  1
  O  O146  1  0.16654572  0.12769156  0.68896224  1
  O  O147  1  0.16406798  0.62474035  0.00520446  1
  O  O148  1  0.16675287  0.62183596  0.34261248  1
  O  O149  1  0.15795095  0.62215875  0.68452072  1
  O  O150  1  0.50142328  0.12216233  0.02782973  1
  O  O151  1  0.49392899  0.12626910  0.35325990  1
  O  O152  1  0.51172949  0.12219489  0.69159783  1
  O  O153  1  0.50734892  0.62680329  0.02573540  1
  O  O154  1  0.48176067  0.62586686  0.33348934  1
  O  O155  1  0.50718109  0.63073417  0.68938527  1
  O  O156  1  0.82116313  0.12204179  0.02789018  1
  O  O157  1  0.83204831  0.12394632  0.34049831  1
  O  O158  1  0.81736529  0.12615487  0.68375287  1
  O  O159  1  0.82215699  0.62840375  0.02263778  1
  O  O160  1  0.82814333  0.62505547  0.35499458  1
  O  O161  1  0.81588952  0.62304721  0.69636018  1
  O  O162  1  0.17737366  0.37206440  0.30956235  1
  O  O163  1  0.16375653  0.37325052  0.64943116  1
  O  O164  1  0.17481191  0.36798073  0.97864169  1
  O  O165  1  0.16071910  0.87757031  0.30812744  1
  O  O166  1  0.16240806  0.87787650  0.66143732  1
  O  O167  1  0.17417226  0.87951575  0.99302875  1
  O  O168  1  0.49600782  0.37081440  0.30906312  1
  O  O169  1  0.50984098  0.36981547  0.64325524  1
  O  O170  1  0.50703796  0.37320716  0.98883077  1
  O  O171  1  0.50953891  0.87719129  0.31149190  1
  O  O172  1  0.50491348  0.87969121  0.64266057  1
  O  O173  1  0.50631326  0.88087984  0.97173932  1
  O  O174  1  0.83502664  0.37894936  0.30947816  1
  O  O175  1  0.83935214  0.38053555  0.64402373  1
  O  O176  1  0.82581999  0.37227014  0.97475974  1
  O  O177  1  0.84494328  0.87078243  0.30580410  1
  O  O178  1  0.85020303  0.86911792  0.66368900  1
  O  O179  1  0.82917079  0.87620706  0.97019129  1
  O  O180  1  -0.00528649  0.37389343  0.17567982  1
  O  O181  1  -0.00819449  0.37723174  0.52464358  1
  O  O182  1  -0.01448743  0.37284856  0.84831201  1
  O  O183  1  -0.00142734  0.87351310  0.19183045  1
  O  O184  1  -0.00201765  0.87191648  0.52071085  1
  O  O185  1  -0.01724842  0.87808523  0.84033469  1
  O  O186  1  0.33122995  0.36856543  0.19184893  1
  O  O187  1  0.33466714  0.37059180  0.51097666  1
  O  O188  1  0.32893201  0.36805775  0.85497473  1
  O  O189  1  0.32787064  0.88035648  0.17586189  1
  O  O190  1  0.34171908  0.88236856  0.51425650  1
  O  O191  1  0.34232827  0.88141648  0.85756486  1
  O  O192  1  0.66441674  0.37630673  0.17441716  1
  O  O193  1  0.66055129  0.37691687  0.51923358  1
  O  O194  1  0.67202122  0.36867563  0.86054296  1
  O  O195  1  0.66866746  0.87168411  0.19284287  1
  O  O196  1  0.65794498  0.87234808  0.51792809  1
  O  O197  1  0.66728671  0.87734803  0.85794832  1
  O  O198  1  -0.00225007  0.12478658  0.14204058  1
  O  O199  1  0.00287985  0.12610556  0.48953644  1
  O  O200  1  0.00669283  0.12915913  0.81580855  1
  O  O201  1  -0.00491938  0.62643519  0.13820329  1
  O  O202  1  -0.00374071  0.62392782  0.47916968  1
  O  O203  1  0.00108653  0.62031151  0.81757469  1
  O  O204  1  0.34128477  0.12508455  0.14019110  1
  O  O205  1  0.34369096  0.12760244  0.47512483  1
  O  O206  1  0.33708744  0.12453761  0.81090251  1
  O  O207  1  0.35104523  0.62612837  0.16063818  1
  O  O208  1  0.33448334  0.61997953  0.48110524  1
  O  O209  1  0.34007838  0.62796527  0.82689574  1
  O  O210  1  0.66860853  0.12317409  0.14111220  1
  O  O211  1  0.66477535  0.12325153  0.49075437  1
  O  O212  1  0.67317363  0.12279544  0.80097757  1
  O  O213  1  0.66002955  0.62968341  0.13785626  1
  O  O214  1  0.67299689  0.62649564  0.47520371  1
  O  O215  1  0.65705209  0.63027125  0.80973683  1
  O  O216  1  0.07929714  0.01911853  0.25153418  1
  O  O217  1  0.08124578  0.00788891  0.58714376  1
  O  O218  1  0.08025934  0.02081260  0.92046716  1
  O  O219  1  0.09001586  0.50626031  0.25114703  1
  O  O220  1  0.07728384  0.50823108  0.59096187  1
  O  O221  1  0.08876527  0.50563944  0.91113962  1
  O  O222  1  0.41083492  0.02009284  0.25136301  1
  O  O223  1  0.41381092  0.02735038  0.59133510  1
  O  O224  1  0.41406081  0.02555617  0.92065980  1
  O  O225  1  0.43803126  0.50090601  0.23045189  1
  O  O226  1  0.42466306  0.50038767  0.57401285  1
  O  O227  1  0.43130890  0.51383401  0.91254325  1
  O  O228  1  0.75548519  0.00887435  0.23899150  1
  O  O229  1  0.73999650  0.00135782  0.59161032  1
  O  O230  1  0.74682696  0.02360708  0.91356143  1
  O  O231  1  0.75684145  0.52174191  0.23663863  1
  O  O232  1  0.75480492  0.51805351  0.58042992  1
  O  O233  1  0.75850080  0.52043196  0.90615753  1
  O  O234  1  0.24677289  0.22472196  0.24316677  1
  O  O235  1  0.24954629  0.23314307  0.58150697  1
  O  O236  1  0.24629154  0.22208672  0.91917612  1
  O  O237  1  0.26180773  0.73807476  0.25488159  1
  O  O238  1  0.25322267  0.74817047  0.58703662  1
  O  O239  1  0.26095872  0.75072815  0.92255024  1
  O  O240  1  0.57270615  0.23612375  0.23712387  1
  O  O241  1  0.57778307  0.22818214  0.57857473  1
  O  O242  1  0.58186594  0.22253489  0.90823984  1
  O  O243  1  0.59582744  0.72835870  0.25899377  1
  O  O244  1  0.59427608  0.73870679  0.59809426  1
  O  O245  1  0.59680940  0.73509113  0.92845907  1
  O  O246  1  0.91430252  0.23457122  0.24539292  1
  O  O247  1  0.91189023  0.24201023  0.58684551  1
  O  O248  1  0.91273937  0.22411609  0.91891719  1
  O  O249  1  0.92509770  0.72182160  0.25582877  1
  O  O250  1  0.91763624  0.72335314  0.59371519  1
  O  O251  1  0.92390096  0.72490654  0.92730461  1
  O  O252  1  0.08294886  0.48955343  0.08123363  1
  O  O253  1  0.08543806  0.48475137  0.42428499  1
  O  O254  1  0.07826153  0.47453963  0.74993574  1
  O  O255  1  0.08797222  0.98511048  0.09452087  1
  O  O256  1  0.07970844  0.98505933  0.41165626  1
  O  O257  1  0.07364267  0.99084632  0.74916575  1
  O  O258  1  0.40917266  0.47404574  0.07606873  1
  O  O259  1  0.41132053  0.48218301  0.40445078  1
  O  O260  1  0.42039445  0.49532288  0.74893512  1
  O  O261  1  0.42018004  0.98014024  0.08378533  1
  O  O262  1  0.42770656  0.98883582  0.42724326  1
  O  O263  1  0.42356943  0.98820430  0.75655914  1
  O  O264  1  0.73631294  0.48584872  0.06929187  1
  O  O265  1  0.75028918  0.48670825  0.41669570  1
  O  O266  1  0.74690942  0.47340546  0.74414405  1
  O  O267  1  0.74559748  0.97281377  0.07695188  1
  O  O268  1  0.74715851  0.98031334  0.40673272  1
  O  O269  1  0.74717657  0.97321303  0.75027625  1
  O  O270  1  0.25465826  0.26866516  0.08019734  1
  O  O271  1  0.25716582  0.26279449  0.40886311  1
  O  O272  1  0.24365995  0.26017951  0.75732941  1
  O  O273  1  0.24954557  0.76523156  0.08892969  1
  O  O274  1  0.25097642  0.75379864  0.41417301  1
  O  O275  1  0.24776096  0.75597091  0.75515962  1
  O  O276  1  0.58771286  0.26218917  0.07506956  1
  O  O277  1  0.57881693  0.26128345  0.41980970  1
  O  O278  1  0.59502423  0.26306793  0.73904505  1
  O  O279  1  0.57613409  0.77736366  0.09152077  1
  O  O280  1  0.57878334  0.76772498  0.41801721  1
  O  O281  1  0.57615273  0.77497484  0.75937777  1
  O  O282  1  0.90694677  0.25715734  0.08546773  1
  O  O283  1  0.91526613  0.26422804  0.42215547  1
  O  O284  1  0.91247638  0.26328931  0.75098474  1
  O  O285  1  0.90396240  0.76599160  0.09605129  1
  O  O286  1  0.91707837  0.76002510  0.41605851  1
  O  O287  1  0.90180336  0.74941030  0.76608331  1
  O  O288  1  0.24802612  0.47774876  0.09222030  1
  O  O289  1  0.24799546  0.47616204  0.42009602  1
  O  O290  1  0.24229705  0.48770512  0.75899685  1
  O  O291  1  0.25593849  0.98977407  0.07760753  1
  O  O292  1  0.25335466  0.99975810  0.41197478  1
  O  O293  1  0.25438334  0.99632814  0.74695622  1
  O  O294  1  0.57311677  0.48469447  0.09476866  1
  O  O295  1  0.57280651  0.48604348  0.42119249  1
  O  O296  1  0.58755090  0.48656408  0.75141741  1
  O  O297  1  0.58507907  0.97790692  0.07770581  1
  O  O298  1  0.58528223  0.98182192  0.41334677  1
  O  O299  1  0.58434944  0.97660236  0.74785335  1
  O  O300  1  0.89822964  0.48770889  0.09426570  1
  O  O301  1  0.90982494  0.48658117  0.43175550  1
  O  O302  1  0.90870586  0.48864091  0.75993803  1
  O  O303  1  0.90819706  0.98562371  0.08976798  1
  O  O304  1  0.91972413  0.98559739  0.41071014  1
  O  O305  1  0.90492047  0.99918354  0.75959016  1
  O  O306  1  0.09003094  0.26221452  0.09097239  1
  O  O307  1  0.09200443  0.26724101  0.42782902  1
  O  O308  1  0.08373396  0.27320414  0.75872933  1
  O  O309  1  0.08353867  0.76436890  0.08649002  1
  O  O310  1  0.07794692  0.76135879  0.40782294  1
  O  O311  1  0.06713223  0.76313106  0.74367873  1
  O  O312  1  0.41800948  0.26904615  0.08998724  1
  O  O313  1  0.42006366  0.27176243  0.41919543  1
  O  O314  1  0.42231953  0.25115295  0.75080253  1
  O  O315  1  0.41360249  0.77708000  0.07226074  1
  O  O316  1  0.41822252  0.76251990  0.41162107  1
  O  O317  1  0.41485843  0.77302999  0.74700237  1
  O  O318  1  0.74555618  0.27175814  0.07631146  1
  O  O319  1  0.75275908  0.26599497  0.42380360  1
  O  O320  1  0.75398991  0.27539258  0.75398970  1
  O  O321  1  0.74119071  0.77335185  0.07225895  1
  O  O322  1  0.74293552  0.76557520  0.39882706  1
  O  O323  1  0.73835651  0.77383858  0.74049796  1
  O  O324  1  0.24444072  0.02157832  0.24417641  1
  O  O325  1  0.25188861  0.02121312  0.58276766  1
  O  O326  1  0.24767572  0.02482933  0.91365526  1
  O  O327  1  0.27225989  0.51166170  0.26272624  1
  O  O328  1  0.24865576  0.50241758  0.58496004  1
  O  O329  1  0.25828618  0.50033356  0.92449114  1
  O  O330  1  0.57371212  0.01424471  0.23866204  1
  O  O331  1  0.57592566  0.01864881  0.58058606  1
  O  O332  1  0.58160969  0.02684303  0.91171231  1
  O  O333  1  0.59446783  0.52578355  0.25795363  1
  O  O334  1  0.59424230  0.51550270  0.59141396  1
  O  O335  1  0.59410984  0.51670127  0.92684237  1
  O  O336  1  0.91554514  0.01816156  0.24712530  1
  O  O337  1  0.91640075  0.00748545  0.59200798  1
  O  O338  1  0.91513610  0.02828234  0.92182806  1
  O  O339  1  0.92550420  0.52629652  0.25749079  1
  O  O340  1  0.91779331  0.52669621  0.59354916  1
  O  O341  1  0.92310377  0.52242556  0.92788348  1
  O  O342  1  0.08226629  0.23597187  0.25160961  1
  O  O343  1  0.07716099  0.24441567  0.59203926  1
  O  O344  1  0.08189569  0.22949995  0.92251116  1
  O  O345  1  0.08468992  0.73638004  0.24940210  1
  O  O346  1  0.07933640  0.74006946  0.58689003  1
  O  O347  1  0.08453644  0.73902791  0.91404901  1
  O  O348  1  0.40894637  0.22681136  0.25371430  1
  O  O349  1  0.41624102  0.22571996  0.58556605  1
  O  O350  1  0.41278387  0.22808436  0.92307806  1
  O  O351  1  0.43463122  0.75202739  0.23234507  1
  O  O352  1  0.42577939  0.74824569  0.57867240  1
  O  O353  1  0.43631093  0.73932693  0.90475686  1
  O  O354  1  0.75208769  0.23976433  0.23797496  1
  O  O355  1  0.73826515  0.24733134  0.59289038  1
  O  O356  1  0.74707691  0.22203551  0.91534647  1
  O  O357  1  0.76055542  0.72911339  0.23644795  1
  O  O358  1  0.75636037  0.73044061  0.57913997  1
  O  O359  1  0.75866805  0.73066614  0.90292965  1
