# generated using pymatgen
data_Ba17Sr5La8Pr42Mn72O216
_symmetry_space_group_name_H-M   'P 1'
_cell_length_a   16.67019111
_cell_length_b   15.70329991
_cell_length_c   16.81694158
_cell_angle_alpha   89.99196503
_cell_angle_beta   89.97578044
_cell_angle_gamma   90.00634789
_symmetry_Int_Tables_number   1
_chemical_formula_structural   Ba17Sr5La8Pr42Mn72O216
_chemical_formula_sum   'Ba17 Sr5 La8 Pr42 Mn72 O216'
_cell_volume   4402.28822949
_cell_formula_units_Z   1
loop_
 _symmetry_equiv_pos_site_id
 _symmetry_equiv_pos_as_xyz
  1  'x, y, z'
loop_
 _atom_site_type_symbol
 _atom_site_label
 _atom_site_symmetry_multiplicity
 _atom_site_fract_x
 _atom_site_fract_y
 _atom_site_fract_z
 _atom_site_occupancy
  Ba  Ba0  1  0.66450683  0.87430895  0.33673228  1
  Ba  Ba1  1  0.66278659  0.87488217  0.00139569  1
  Ba  Ba2  1  0.33341386  0.37411714  0.33391030  1
  Ba  Ba3  1  0.83596924  0.37711801  0.83648516  1
  Ba  Ba4  1  0.00120350  0.12416136  0.66420380  1
  Ba  Ba5  1  0.16784659  0.62619999  0.16363671  1
  Ba  Ba6  1  0.49921814  0.87459589  0.49996732  1
  Ba  Ba7  1  0.16559900  0.87417407  0.82858647  1
  Ba  Ba8  1  0.83348778  0.12513137  0.83445351  1
  Ba  Ba9  1  0.66676650  0.12723809  0.66780276  1
  Ba  Ba10  1  0.66433818  0.87333839  0.67077162  1
  Ba  Ba11  1  0.16319073  0.87667247  0.16313681  1
  Ba  Ba12  1  0.16454197  0.87389057  0.49615073  1
  Ba  Ba13  1  0.33388033  0.62178582  0.99810376  1
  Ba  Ba14  1  0.83436446  0.12685944  0.50479532  1
  Ba  Ba15  1  0.16900680  0.37529776  0.49605964  1
  Ba  Ba16  1  -0.00139160  0.37484881  -0.00042133  1
  Sr  Sr17  1  0.83457514  0.62660296  0.50290235  1
  Sr  Sr18  1  0.49611531  0.87487828  0.83073694  1
  Sr  Sr19  1  0.33394966  0.12622095  0.99547147  1
  Sr  Sr20  1  0.33210721  0.37219938  0.00196211  1
  Sr  Sr21  1  0.82747908  0.87569164  0.83376144  1
  La  La22  1  0.33391497  0.62679138  0.66740468  1
  La  La23  1  0.50315740  0.62594184  0.83823293  1
  La  La24  1  0.67013549  0.37681358  0.33770162  1
  La  La25  1  0.83270209  0.37840191  0.16333674  1
  La  La26  1  0.49786592  0.37439490  0.16431779  1
  La  La27  1  0.50128773  0.12599160  0.16622074  1
  La  La28  1  0.00325386  0.62685026  0.99810279  1
  La  La29  1  0.67009769  0.62668606  0.33652809  1
  Pr  Pr30  1  0.50399682  0.37339544  0.49755407  1
  Pr  Pr31  1  -0.01102161  0.87687143  0.00101225  1
  Pr  Pr32  1  0.00224260  0.37752936  0.33229099  1
  Pr  Pr33  1  0.16806967  0.12438468  0.83303879  1
  Pr  Pr34  1  0.67042699  0.12282185  0.33692966  1
  Pr  Pr35  1  0.00339564  0.37149856  0.67070039  1
  Pr  Pr36  1  0.50021616  0.12383951  0.50281351  1
  Pr  Pr37  1  0.16755197  0.37531849  0.15926573  1
  Pr  Pr38  1  0.82625186  0.87440098  0.16566665  1
  Pr  Pr39  1  0.50195237  0.62465025  0.16919065  1
  Pr  Pr40  1  -0.00966047  0.87142162  0.33489370  1
  Pr  Pr41  1  0.17153524  0.37550826  0.82742491  1
  Pr  Pr42  1  0.84057079  0.37412044  0.50391585  1
  Pr  Pr43  1  0.00550757  0.12422127  0.33248425  1
  Pr  Pr44  1  0.50267598  0.12316541  0.83650230  1
  Pr  Pr45  1  0.67259666  0.37707490  0.67127373  1
  Pr  Pr46  1  0.17043779  0.12568150  0.50022039  1
  Pr  Pr47  1  0.49950127  0.37456859  0.83426244  1
  Pr  Pr48  1  0.50187761  0.62413265  0.50136533  1
  Pr  Pr49  1  0.16967418  0.62311334  0.49460092  1
  Pr  Pr50  1  0.83596057  0.62580942  0.17288375  1
  Pr  Pr51  1  0.33619359  0.62509011  0.32900092  1
  Pr  Pr52  1  0.66763530  0.37294972  0.00486483  1
  Pr  Pr53  1  0.66753611  0.12530209  0.99574466  1
  Pr  Pr54  1  0.17242227  0.12714569  0.16278810  1
  Pr  Pr55  1  0.32917653  0.87650575  -0.00028893  1
  Pr  Pr56  1  0.66850501  0.62431193  1.00088107  1
  Pr  Pr57  1  0.32776368  0.87535715  0.33363146  1
  Pr  Pr58  1  0.49363982  0.87526737  0.16293932  1
  Pr  Pr59  1  0.00547419  0.12268406  0.99280625  1
  Pr  Pr60  1  0.16831560  0.62510568  0.83668796  1
  Pr  Pr61  1  0.83461524  0.12618493  0.17182729  1
  Pr  Pr62  1  0.33388560  0.12046111  0.66539141  1
  Pr  Pr63  1  0.00467221  0.62586836  0.32914466  1
  Pr  Pr64  1  0.83409134  0.62918955  0.83765917  1
  Pr  Pr65  1  0.00392203  0.62440763  0.66441413  1
  Pr  Pr66  1  0.82776776  0.87944157  0.50279193  1
  Pr  Pr67  1  0.33197557  0.87545721  0.66852057  1
  Pr  Pr68  1  0.33580527  0.12394260  0.33284278  1
  Pr  Pr69  1  0.33614028  0.37308628  0.66634690  1
  Pr  Pr70  1  0.67135512  0.62419353  0.66911595  1
  Pr  Pr71  1  -0.01046971  0.87484348  0.66826006  1
  Mn  Mn72  1  -0.00264677  0.00209098  0.16458049  1
  Mn  Mn73  1  -0.00011498  -0.00254815  0.49786200  1
  Mn  Mn74  1  -0.00055927  -0.00196623  0.83229260  1
  Mn  Mn75  1  -0.00047276  0.50006882  0.16692301  1
  Mn  Mn76  1  0.00078440  0.50206485  0.49892826  1
  Mn  Mn77  1  0.00257499  0.50114150  0.83087148  1
  Mn  Mn78  1  0.33342513  0.00306561  0.16484902  1
  Mn  Mn79  1  0.33377272  0.00009512  0.49791214  1
  Mn  Mn80  1  0.33391747  0.00171791  0.83235642  1
  Mn  Mn81  1  0.33390485  0.49843054  0.16540471  1
  Mn  Mn82  1  0.33671573  0.50190949  0.49957666  1
  Mn  Mn83  1  0.33508348  0.49628047  0.83118742  1
  Mn  Mn84  1  0.66468620  0.00223610  0.16837895  1
  Mn  Mn85  1  0.66554840  0.00073106  0.50171413  1
  Mn  Mn86  1  0.66512845  0.00009103  0.83513616  1
  Mn  Mn87  1  0.66576169  0.50026711  0.17009043  1
  Mn  Mn88  1  0.66790910  0.50031163  0.50356881  1
  Mn  Mn89  1  0.66634112  0.49983731  0.83615606  1
  Mn  Mn90  1  -0.00047186  0.24699601  0.16635192  1
  Mn  Mn91  1  0.00230977  0.25243839  0.49787589  1
  Mn  Mn92  1  0.00242741  0.24960150  0.83310995  1
  Mn  Mn93  1  -0.00244713  0.75236687  0.16589062  1
  Mn  Mn94  1  -0.00084413  0.74788039  0.49942875  1
  Mn  Mn95  1  -0.00121067  0.75033968  0.83122675  1
  Mn  Mn96  1  0.33362546  0.24888272  0.16511269  1
  Mn  Mn97  1  0.33627622  0.24881573  0.50035129  1
  Mn  Mn98  1  0.33479905  0.25053815  0.83238846  1
  Mn  Mn99  1  0.33471445  0.75026628  0.16531506  1
  Mn  Mn100  1  0.33408327  0.74710863  0.49753139  1
  Mn  Mn101  1  0.33403214  0.74934315  0.83148904  1
  Mn  Mn102  1  0.66683502  0.24930730  0.16969554  1
  Mn  Mn103  1  0.66676885  0.25466469  0.50182894  1
  Mn  Mn104  1  0.66572455  0.25256416  0.83570452  1
  Mn  Mn105  1  0.66447466  0.74870315  0.16932489  1
  Mn  Mn106  1  0.66738974  0.74600807  0.50285245  1
  Mn  Mn107  1  0.66500745  0.74857061  0.83531733  1
  Mn  Mn108  1  0.16704688  0.24961073  -0.00258600  1
  Mn  Mn109  1  0.16608824  0.24717991  0.32993519  1
  Mn  Mn110  1  0.16980988  0.24956067  0.66424449  1
  Mn  Mn111  1  0.16562634  0.75107254  -0.00370372  1
  Mn  Mn112  1  0.16570434  0.75065785  0.33124762  1
  Mn  Mn113  1  0.16675346  0.74782158  0.66309699  1
  Mn  Mn114  1  0.49988637  0.25061462  0.00038919  1
  Mn  Mn115  1  0.50234674  0.24972838  0.33363448  1
  Mn  Mn116  1  0.49889969  0.25254993  0.66674242  1
  Mn  Mn117  1  0.49857840  0.75011533  0.00076509  1
  Mn  Mn118  1  0.49904884  0.74928419  0.33271222  1
  Mn  Mn119  1  0.49875189  0.74706836  0.66920878  1
  Mn  Mn120  1  0.83242687  0.25022277  0.00539858  1
  Mn  Mn121  1  0.83528909  0.25162742  0.33435268  1
  Mn  Mn122  1  0.83488736  0.25234685  0.66778240  1
  Mn  Mn123  1  0.83175983  0.74899990  0.00315023  1
  Mn  Mn124  1  0.83287510  0.74796707  0.33728830  1
  Mn  Mn125  1  0.83429843  0.74647616  0.66946751  1
  Mn  Mn126  1  0.16624110  -0.00005564  -0.00309338  1
  Mn  Mn127  1  0.16489089  0.00140847  0.33052053  1
  Mn  Mn128  1  0.16675570  -0.00153369  0.66303914  1
  Mn  Mn129  1  0.16627306  0.49843936  -0.00353321  1
  Mn  Mn130  1  0.16707246  0.50065235  0.32980474  1
  Mn  Mn131  1  0.16913976  0.50142932  0.66431759  1
  Mn  Mn132  1  0.49770213  0.00043036  0.00008022  1
  Mn  Mn133  1  0.49970364  0.00279751  0.33242274  1
  Mn  Mn134  1  0.49889822  0.00047876  0.66880931  1
  Mn  Mn135  1  0.50125093  0.49797546  0.00161556  1
  Mn  Mn136  1  0.50163095  0.49946025  0.33428376  1
  Mn  Mn137  1  0.49915483  0.49928892  0.66818477  1
  Mn  Mn138  1  0.83097235  0.00038661  0.00411110  1
  Mn  Mn139  1  0.83352742  0.00190422  0.33450257  1
  Mn  Mn140  1  0.83199847  -0.00092431  0.66839182  1
  Mn  Mn141  1  0.83291738  0.50264236  0.00256889  1
  Mn  Mn142  1  0.83543070  0.49909360  0.33595668  1
  Mn  Mn143  1  0.83697745  0.50207292  0.66768083  1
  O  O144  1  0.15926742  0.12438877  0.01928861  1
  O  O145  1  0.15640760  0.12422872  0.35622816  1
  O  O146  1  0.17347654  0.12650313  0.68840123  1
  O  O147  1  0.16127430  0.62381659  0.00638519  1
  O  O148  1  0.15677199  0.62579622  0.34756488  1
  O  O149  1  0.16446773  0.62363285  0.69242771  1
  O  O150  1  0.50223932  0.12720426  0.02264932  1
  O  O151  1  0.49203619  0.12738702  0.35785371  1
  O  O152  1  0.49199402  0.13061140  0.69169046  1
  O  O153  1  0.50413417  0.62114055  0.02484857  1
  O  O154  1  0.48851596  0.62122933  0.35468704  1
  O  O155  1  0.49064768  0.61880417  0.69622476  1
  O  O156  1  0.82509789  0.12658957  0.02732502  1
  O  O157  1  0.83173398  0.12768662  0.34973379  1
  O  O158  1  0.83390451  0.13044343  0.67416494  1
  O  O159  1  0.83218654  0.62610511  0.02878925  1
  O  O160  1  0.83516115  0.61951264  0.35500794  1
  O  O161  1  0.83878662  0.62275007  0.69351842  1
  O  O162  1  0.16200846  0.37129625  0.30529886  1
  O  O163  1  0.16768145  0.37615238  0.65082317  1
  O  O164  1  0.16780653  0.37315064  0.97450772  1
  O  O165  1  0.17767914  0.87732014  0.32079458  1
  O  O166  1  0.17807040  0.87080386  0.65031226  1
  O  O167  1  0.17384063  0.87748701  0.98609700  1
  O  O168  1  0.51055792  0.37447902  0.30924757  1
  O  O169  1  0.49552955  0.37751117  0.63844125  1
  O  O170  1  0.50918903  0.37447774  0.97895832  1
  O  O171  1  0.49870551  0.87918008  0.30753579  1
  O  O172  1  0.49395262  0.87422790  0.65668826  1
  O  O173  1  0.49449876  0.87727802  0.98221927  1
  O  O174  1  0.83594855  0.37510715  0.30568843  1
  O  O175  1  0.83516035  0.38104148  0.65005583  1
  O  O176  1  0.82673715  0.37773715  0.99288140  1
  O  O177  1  0.83807395  0.87746744  0.30868821  1
  O  O178  1  0.83778885  0.86673678  0.64744292  1
  O  O179  1  0.83787542  0.87154467  0.98363686  1
  O  O180  1  0.00036739  0.37012586  0.18921481  1
  O  O181  1  0.00049092  0.38167415  0.52492512  1
  O  O182  1  0.01097401  0.37598702  0.84327062  1
  O  O183  1  -0.00839457  0.87808058  0.19096327  1
  O  O184  1  -0.00125377  0.86880734  0.52358222  1
  O  O185  1  -0.00295033  0.87321023  0.85736295  1
  O  O186  1  0.32707537  0.37136373  0.17787057  1
  O  O187  1  0.33737273  0.37455415  0.52212564  1
  O  O188  1  0.32989164  0.37289122  0.85345858  1
  O  O189  1  0.34023977  0.87932148  0.19079182  1
  O  O190  1  0.33169084  0.87145483  0.52227812  1
  O  O191  1  0.33616597  0.87977090  0.85477535  1
  O  O192  1  0.66550502  0.37393405  0.19562598  1
  O  O193  1  0.65465220  0.37991166  0.52649128  1
  O  O194  1  0.65917727  0.37773099  0.86022828  1
  O  O195  1  0.66412518  0.87219985  0.18171937  1
  O  O196  1  0.67088378  0.86770376  0.51131168  1
  O  O197  1  0.66444202  0.87076920  0.84414566  1
  O  O198  1  -0.01065910  0.12410033  0.13651734  1
  O  O199  1  0.00335414  0.12519376  0.47686675  1
  O  O200  1  0.00553438  0.12324826  0.82246870  1
  O  O201  1  -0.00843652  0.62963349  0.14500101  1
  O  O202  1  0.00038755  0.62424204  0.47147299  1
  O  O203  1  -0.00129459  0.62598384  0.80866071  1
  O  O204  1  0.33571752  0.12623619  0.14485613  1
  O  O205  1  0.34383306  0.12586012  0.47766355  1
  O  O206  1  0.33683427  0.12843641  0.80814080  1
  O  O207  1  0.34452687  0.62452365  0.15570130  1
  O  O208  1  0.34733335  0.62556047  0.47383817  1
  O  O209  1  0.33572153  0.61797528  0.81234968  1
  O  O210  1  0.66925466  0.12960212  0.14011592  1
  O  O211  1  0.66457162  0.13312724  0.48209491  1
  O  O212  1  0.66068759  0.13009507  0.82650315  1
  O  O213  1  0.66520646  0.62444757  0.14456321  1
  O  O214  1  0.66737736  0.62055316  0.48017764  1
  O  O215  1  0.66237833  0.62067413  0.81411518  1
  O  O216  1  0.08635959  0.02552315  0.23658805  1
  O  O217  1  0.09199381  0.01510972  0.56925814  1
  O  O218  1  0.08877304  0.01810067  0.90951431  1
  O  O219  1  0.07783424  0.51186567  0.25182996  1
  O  O220  1  0.08451647  0.52516262  0.58118350  1
  O  O221  1  0.08098791  0.52184005  0.91399697  1
  O  O222  1  0.42190690  0.02410417  0.24511549  1
  O  O223  1  0.41738189  0.01996532  0.58180911  1
  O  O224  1  0.42093137  0.02204069  0.91166767  1
  O  O225  1  0.42139981  0.51239690  0.25109419  1
  O  O226  1  0.41648686  0.52121039  0.58779062  1
  O  O227  1  0.42638069  0.50755940  0.90987871  1
  O  O228  1  0.75177543  0.02172487  0.25061620  1
  O  O229  1  0.75159466  0.00036750  0.58271831  1
  O  O230  1  0.74704057  0.01349086  0.92562585  1
  O  O231  1  0.75188195  0.51957626  0.25198571  1
  O  O232  1  0.74772646  0.51554584  0.59090074  1
  O  O233  1  0.75201149  0.52506355  0.91855792  1
  O  O234  1  0.24902172  0.22418990  0.24969011  1
  O  O235  1  0.25294165  0.22635063  0.58184556  1
  O  O236  1  0.24766800  0.23009840  0.90840219  1
  O  O237  1  0.26260955  0.73811017  0.25693188  1
  O  O238  1  0.25337687  0.72073372  0.58106259  1
  O  O239  1  0.25010342  0.73598431  0.90978611  1
  O  O240  1  0.58559368  0.22283431  0.25011621  1
  O  O241  1  0.57181728  0.23763643  0.57486577  1
  O  O242  1  0.58030004  0.23145569  0.91803001  1
  O  O243  1  0.58736873  0.72373868  0.25688178  1
  O  O244  1  0.58516506  0.72316347  0.59044294  1
  O  O245  1  0.58821409  0.72738531  0.92571053  1
  O  O246  1  0.92196046  0.22735999  0.25315331  1
  O  O247  1  0.91920178  0.25354075  0.58245530  1
  O  O248  1  0.91954228  0.23566230  0.92801610  1
  O  O249  1  0.91815082  0.73006830  0.25572112  1
  O  O250  1  0.92558173  0.72958501  0.59150870  1
  O  O251  1  0.91823082  0.72646644  0.92285950  1
  O  O252  1  0.08562614  0.48538128  0.08622885  1
  O  O253  1  0.07996630  0.48620905  0.40999738  1
  O  O254  1  0.09149016  0.48335088  0.75033213  1
  O  O255  1  0.06847878  0.98650122  0.06990291  1
  O  O256  1  0.06996476  0.98385032  0.39897445  1
  O  O257  1  0.07839098  0.98217986  0.73542078  1
  O  O258  1  0.42047576  0.47931246  0.08368205  1
  O  O259  1  0.42753950  0.48071467  0.42298440  1
  O  O260  1  0.41774662  0.47088711  0.74876799  1
  O  O261  1  0.41124854  0.97914441  0.07864071  1
  O  O262  1  0.40824533  0.98430248  0.40560799  1
  O  O263  1  0.40856203  0.98575259  0.74264976  1
  O  O264  1  0.74280355  0.48280697  0.08507112  1
  O  O265  1  0.75471651  0.47532451  0.41842103  1
  O  O266  1  0.74500209  0.48843044  0.74976104  1
  O  O267  1  0.75060089  0.98482610  0.09023175  1
  O  O268  1  0.75100595  0.99070111  0.41722463  1
  O  O269  1  0.74988078  0.99189377  0.75351381  1
  O  O270  1  0.24504694  0.26241823  0.08350262  1
  O  O271  1  0.25233111  0.24901425  0.41484506  1
  O  O272  1  0.25508897  0.27095602  0.74582164  1
  O  O273  1  0.25296855  0.76326506  0.08170443  1
  O  O274  1  0.24715009  0.74946384  0.41839040  1
  O  O275  1  0.25248435  0.75693359  0.74341871  1
  O  O276  1  0.58565955  0.27126423  0.08677305  1
  O  O277  1  0.59031564  0.27102234  0.41259933  1
  O  O278  1  0.58219206  0.27635027  0.74595304  1
  O  O279  1  0.57025340  0.76028647  0.09649243  1
  O  O280  1  0.57691319  0.74678415  0.42075635  1
  O  O281  1  0.57447635  0.75081545  0.75827154  1
  O  O282  1  0.90705504  0.26484012  0.09606087  1
  O  O283  1  0.91804221  0.27612600  0.41702148  1
  O  O284  1  0.92326216  0.26574943  0.74705087  1
  O  O285  1  0.91002351  0.77249222  0.08963350  1
  O  O286  1  0.91111870  0.77290045  0.42333492  1
  O  O287  1  0.91255393  0.76799429  0.75517547  1
  O  O288  1  0.24662721  0.48284898  0.07961098  1
  O  O289  1  0.25098622  0.50273899  0.41361578  1
  O  O290  1  0.25630109  0.47954074  0.74218297  1
  O  O291  1  0.24909108  0.99191624  0.08017248  1
  O  O292  1  0.25043980  0.99713866  0.41576103  1
  O  O293  1  0.25274397  0.98959161  0.74437781  1
  O  O294  1  0.58160118  0.47763279  0.08853118  1
  O  O295  1  0.58661517  0.48412342  0.41511375  1
  O  O296  1  0.58024536  0.47752616  0.75131033  1
  O  O297  1  0.57109596  0.99019293  0.09422144  1
  O  O298  1  0.57964728  1.00149799  0.41781931  1
  O  O299  1  0.57304726  0.99681103  0.75794989  1
  O  O300  1  0.91034996  0.48918830  0.09183505  1
  O  O301  1  0.91836769  0.47388212  0.41552391  1
  O  O302  1  0.92948675  0.48567235  0.74099429  1
  O  O303  1  0.90786759  0.97755747  0.09253788  1
  O  O304  1  0.91280305  0.97523714  0.41983705  1
  O  O305  1  0.91541637  0.98073875  0.75290751  1
  O  O306  1  0.08558488  0.26311468  0.08755975  1
  O  O307  1  0.07625855  0.26623340  0.40373865  1
  O  O308  1  0.09017354  0.26662457  0.74731592  1
  O  O309  1  0.07060477  0.76384199  0.07043987  1
  O  O310  1  0.07040367  0.76326193  0.40606943  1
  O  O311  1  0.07324539  0.76212596  0.73382868  1
  O  O312  1  0.42230495  0.26726819  0.08569664  1
  O  O313  1  0.42722220  0.26629039  0.42695256  1
  O  O314  1  0.41912465  0.27669030  0.75093106  1
  O  O315  1  0.41089181  0.77407473  0.07774281  1
  O  O316  1  0.40580970  0.76773397  0.40176757  1
  O  O317  1  0.40797857  0.76439164  0.74132507  1
  O  O318  1  0.74767018  0.27406919  0.09058695  1
  O  O319  1  0.75256644  0.27753084  0.42077038  1
  O  O320  1  0.74696301  0.26889528  0.75046421  1
  O  O321  1  0.74927490  0.76120383  0.08917201  1
  O  O322  1  0.75153418  0.75764527  0.42027424  1
  O  O323  1  0.74927251  0.74900247  0.75473813  1
  O  O324  1  0.25319977  0.02416773  0.25167018  1
  O  O325  1  0.25332453  0.02269496  0.58231453  1
  O  O326  1  0.25117531  0.02154997  0.91229837  1
  O  O327  1  0.25256486  0.51453808  0.25216695  1
  O  O328  1  0.24974265  0.52502402  0.58099143  1
  O  O329  1  0.24247092  0.51039432  0.90336414  1
  O  O330  1  0.58663291  0.02832082  0.25465067  1
  O  O331  1  0.57781612  0.01589345  0.58307525  1
  O  O332  1  0.58335317  0.02089626  0.92346224  1
  O  O333  1  0.58497428  0.52506241  0.25364916  1
  O  O334  1  0.58048573  0.52608876  0.58930988  1
  O  O335  1  0.58812670  0.52116178  0.92377228  1
  O  O336  1  0.92050915  0.02381992  0.25450438  1
  O  O337  1  0.91916582  -0.00098640  0.58459628  1
  O  O338  1  0.92270919  0.01306981  0.93269641  1
  O  O339  1  0.91715397  0.52007437  0.25275130  1
  O  O340  1  0.91851144  0.51998591  0.58032707  1
  O  O341  1  0.91698255  0.52216417  0.91511578  1
  O  O342  1  0.08455964  0.22165644  0.24319433  1
  O  O343  1  0.09101925  0.23527122  0.57360006  1
  O  O344  1  0.08654111  0.22863188  0.91481981  1
  O  O345  1  0.07970069  0.74062908  0.24728558  1
  O  O346  1  0.08903065  0.72314814  0.57421235  1
  O  O347  1  0.08429516  0.73038607  0.90659071  1
  O  O348  1  0.41725938  0.23319940  0.25182303  1
  O  O349  1  0.41194705  0.23057730  0.59017107  1
  O  O350  1  0.41926842  0.23570702  0.91163990  1
  O  O351  1  0.42728090  0.73555627  0.23950984  1
  O  O352  1  0.42113647  0.72752665  0.57861118  1
  O  O353  1  0.42461814  0.73430594  0.90900600  1
  O  O354  1  0.74921221  0.22927113  0.25241021  1
  O  O355  1  0.74720681  0.25693314  0.58544709  1
  O  O356  1  0.74319537  0.24116032  0.93079679  1
  O  O357  1  0.75227628  0.72875658  0.25073898  1
  O  O358  1  0.75134849  0.72689098  0.58949527  1
  O  O359  1  0.75166245  0.72608674  0.91958520  1
