# generated using pymatgen
data_Ba17Sr5La8Pr42Mn72O216
_symmetry_space_group_name_H-M   'P 1'
_cell_length_a   16.67264786
_cell_length_b   15.70636494
_cell_length_c   16.82026711
_cell_angle_alpha   89.99160290
_cell_angle_beta   90.00744847
_cell_angle_gamma   90.00649588
_symmetry_Int_Tables_number   1
_chemical_formula_structural   Ba17Sr5La8Pr42Mn72O216
_chemical_formula_sum   'Ba17 Sr5 La8 Pr42 Mn72 O216'
_cell_volume   4404.66759300
_cell_formula_units_Z   1
loop_
 _symmetry_equiv_pos_site_id
 _symmetry_equiv_pos_as_xyz
  1  'x, y, z'
loop_
 _atom_site_type_symbol
 _atom_site_label
 _atom_site_symmetry_multiplicity
 _atom_site_fract_x
 _atom_site_fract_y
 _atom_site_fract_z
 _atom_site_occupancy
  Ba  Ba0  1  0.00026057  0.62217610  0.33318733  1
  Ba  Ba1  1  0.16355607  0.87568996  0.83625679  1
  Ba  Ba2  1  0.16799910  0.12857765  0.16843500  1
  Ba  Ba3  1  0.49792245  0.87297377  0.16332733  1
  Ba  Ba4  1  0.49770756  0.87425124  0.83039660  1
  Ba  Ba5  1  0.66749292  0.37685534  0.66840491  1
  Ba  Ba6  1  0.49795192  0.87441332  0.49702703  1
  Ba  Ba7  1  0.16775092  0.12795910  0.83528946  1
  Ba  Ba8  1  -0.00012718  0.87347621  0.00166437  1
  Ba  Ba9  1  0.66879535  0.12605988  0.99947471  1
  Ba  Ba10  1  0.33196848  0.87331523  0.33232696  1
  Ba  Ba11  1  0.50158813  0.62398329  0.16456992  1
  Ba  Ba12  1  0.83267228  0.12527043  0.16841782  1
  Ba  Ba13  1  0.66883852  0.37549983  -0.00192838  1
  Ba  Ba14  1  0.16711376  0.12911770  0.50170915  1
  Ba  Ba15  1  0.16520315  0.87448674  0.16712883  1
  Ba  Ba16  1  -0.00175370  0.87514722  0.66833006  1
  Sr  Sr17  1  0.83337886  0.37327439  0.83167023  1
  Sr  Sr18  1  0.32923654  0.87605681  0.00322348  1
  Sr  Sr19  1  0.16842120  0.62680926  0.16787731  1
  Sr  Sr20  1  -0.00094421  0.87552142  0.33455139  1
  Sr  Sr21  1  0.66798932  0.62415975  0.66388666  1
  La  La22  1  0.66724089  0.62633831  0.99667341  1
  La  La23  1  0.50291410  0.12646765  0.83364399  1
  La  La24  1  0.66418746  0.87541137  0.33186080  1
  La  La25  1  0.66365032  0.12294310  0.32757485  1
  La  La26  1  0.16200534  0.87569270  0.49448585  1
  La  La27  1  0.33576360  0.11996912  0.99917620  1
  La  La28  1  0.83077442  0.87113431  0.49777643  1
  La  La29  1  0.33579276  0.12325153  0.33007323  1
  Pr  Pr30  1  0.00012190  0.37248430  0.67156098  1
  Pr  Pr31  1  0.83378099  0.62415600  0.16855301  1
  Pr  Pr32  1  0.49754880  0.12345614  0.49875016  1
  Pr  Pr33  1  0.16272484  0.37684942  0.83290810  1
  Pr  Pr34  1  0.83630293  0.62527072  0.50462475  1
  Pr  Pr35  1  0.50431843  0.62655124  0.49869756  1
  Pr  Pr36  1  0.83607565  0.12685308  0.83897762  1
  Pr  Pr37  1  0.83172085  0.37889852  0.50017553  1
  Pr  Pr38  1  0.50161906  0.12428432  0.16425824  1
  Pr  Pr39  1  0.83427571  0.12404119  0.50205557  1
  Pr  Pr40  1  0.33107968  0.37488735  0.00314876  1
  Pr  Pr41  1  0.66788100  0.37387119  0.33404701  1
  Pr  Pr42  1  0.83470959  0.62214294  0.83304282  1
  Pr  Pr43  1  0.49999380  0.37511359  0.16080522  1
  Pr  Pr44  1  0.33313908  0.62739642  0.32922092  1
  Pr  Pr45  1  0.17052343  0.62684882  0.50159706  1
  Pr  Pr46  1  0.16857966  0.62685896  0.83778082  1
  Pr  Pr47  1  0.83676984  0.37645700  0.16326567  1
  Pr  Pr48  1  0.82941854  0.87605564  0.83060014  1
  Pr  Pr49  1  0.83445051  0.87217602  0.16542328  1
  Pr  Pr50  1  0.00046102  0.37208847  0.33512533  1
  Pr  Pr51  1  0.66679194  0.62740999  0.33067107  1
  Pr  Pr52  1  0.00256813  0.12381538  0.32971079  1
  Pr  Pr53  1  0.33561660  0.12178213  0.66530879  1
  Pr  Pr54  1  0.00479431  0.62429063  1.00084699  1
  Pr  Pr55  1  0.66167751  0.87294420  0.66816660  1
  Pr  Pr56  1  0.00275256  0.62477135  0.66335499  1
  Pr  Pr57  1  0.66698663  0.12499271  0.66560488  1
  Pr  Pr58  1  0.16106316  0.38081649  0.16737265  1
  Pr  Pr59  1  0.00152468  0.12419104  0.66784559  1
  Pr  Pr60  1  0.32450739  0.87677737  0.66964465  1
  Pr  Pr61  1  0.50743477  0.62238583  0.83452659  1
  Pr  Pr62  1  0.16181349  0.37782451  0.49959444  1
  Pr  Pr63  1  0.33152570  0.37262629  0.67112267  1
  Pr  Pr64  1  0.33195403  0.37830455  0.33542605  1
  Pr  Pr65  1  0.33506786  0.63110803  0.99880623  1
  Pr  Pr66  1  0.00037569  0.37202494  0.00170268  1
  Pr  Pr67  1  0.50155917  0.37577144  0.49704425  1
  Pr  Pr68  1  0.50176132  0.37345020  0.82795798  1
  Pr  Pr69  1  0.66496404  0.87543114  0.00177958  1
  Pr  Pr70  1  0.00296884  0.12269860  1.00039974  1
  Pr  Pr71  1  0.33683300  0.62691881  0.66531292  1
  Mn  Mn72  1  -0.00137249  0.00032745  0.16886393  1
  Mn  Mn73  1  -0.00211274  0.00190162  0.50025051  1
  Mn  Mn74  1  -0.00202102  0.00067185  0.83398575  1
  Mn  Mn75  1  -0.00075752  0.49994002  0.16641271  1
  Mn  Mn76  1  -0.00076318  0.49913232  0.50185186  1
  Mn  Mn77  1  -0.00091976  0.50048247  0.83290701  1
  Mn  Mn78  1  0.33380659  0.00165799  0.16463282  1
  Mn  Mn79  1  0.33208381  0.00084829  0.49989745  1
  Mn  Mn80  1  0.33303582  -0.00000595  0.83215116  1
  Mn  Mn81  1  0.33393440  0.49879002  0.16793953  1
  Mn  Mn82  1  0.33462050  0.49891855  0.50145152  1
  Mn  Mn83  1  0.33374675  0.49993756  0.83301718  1
  Mn  Mn84  1  0.66688971  -0.00099045  0.16609100  1
  Mn  Mn85  1  0.66748371  0.00234584  0.49905362  1
  Mn  Mn86  1  0.66771398  -0.00056539  0.83111829  1
  Mn  Mn87  1  0.66840713  0.49940288  0.16747440  1
  Mn  Mn88  1  0.66671783  0.49834174  0.49839806  1
  Mn  Mn89  1  0.66846800  0.50041638  0.83169076  1
  Mn  Mn90  1  -0.00065977  0.25166916  0.16921998  1
  Mn  Mn91  1  -0.00352885  0.25190212  0.50205876  1
  Mn  Mn92  1  -0.00071551  0.25170971  0.83508752  1
  Mn  Mn93  1  -0.00114597  0.74813140  0.16852323  1
  Mn  Mn94  1  -0.00015665  0.74816131  0.50061320  1
  Mn  Mn95  1  -0.00267566  0.74679517  0.83286244  1
  Mn  Mn96  1  0.33541934  0.25387475  0.16817712  1
  Mn  Mn97  1  0.33542765  0.25435317  0.50114292  1
  Mn  Mn98  1  0.33513280  0.25273250  0.83514559  1
  Mn  Mn99  1  0.33247650  0.74799758  0.16448486  1
  Mn  Mn100  1  0.33243188  0.74605717  0.50031159  1
  Mn  Mn101  1  0.33290172  0.74900702  0.83062859  1
  Mn  Mn102  1  0.66696914  0.25127560  0.16835482  1
  Mn  Mn103  1  0.66754507  0.24919002  0.49890543  1
  Mn  Mn104  1  0.66856890  0.25055972  0.83126236  1
  Mn  Mn105  1  0.66870479  0.74896553  0.16437212  1
  Mn  Mn106  1  0.66704174  0.74887964  0.49881031  1
  Mn  Mn107  1  0.66771006  0.74847174  0.83095588  1
  Mn  Mn108  1  0.16806760  0.25306819  0.00223143  1
  Mn  Mn109  1  0.16841647  0.25291628  0.33591762  1
  Mn  Mn110  1  0.16766793  0.25208263  0.66812443  1
  Mn  Mn111  1  0.16692600  0.74718693  0.00219522  1
  Mn  Mn112  1  0.16473459  0.74860420  0.33447589  1
  Mn  Mn113  1  0.16674093  0.74658504  0.66766413  1
  Mn  Mn114  1  0.49898381  0.25211543  -0.00233217  1
  Mn  Mn115  1  0.50006424  0.25274588  0.33090394  1
  Mn  Mn116  1  0.49953196  0.24935242  0.66417603  1
  Mn  Mn117  1  0.49997704  0.74859313  -0.00367054  1
  Mn  Mn118  1  0.50066997  0.74791418  0.33276363  1
  Mn  Mn119  1  0.49911876  0.74808037  0.66430103  1
  Mn  Mn120  1  0.83538274  0.25165444  -0.00014757  1
  Mn  Mn121  1  0.83234984  0.25190610  0.33644694  1
  Mn  Mn122  1  0.83342798  0.24830071  0.66763693  1
  Mn  Mn123  1  0.83410353  0.74741973  -0.00054191  1
  Mn  Mn124  1  0.83242680  0.74896670  0.33359400  1
  Mn  Mn125  1  0.83211689  0.74937470  0.66695856  1
  Mn  Mn126  1  0.16683400  0.00213828  0.00175474  1
  Mn  Mn127  1  0.16528137  0.00072280  0.33519791  1
  Mn  Mn128  1  0.16541128  0.00201112  0.66598123  1
  Mn  Mn129  1  0.16794565  0.49921847  0.00011075  1
  Mn  Mn130  1  0.16748050  0.49880552  0.33414340  1
  Mn  Mn131  1  0.16816151  0.49911254  0.66840098  1
  Mn  Mn132  1  0.50060386  0.00014792  -0.00260221  1
  Mn  Mn133  1  0.49978752  0.00126426  0.33224384  1
  Mn  Mn134  1  0.49914038  0.00066849  0.66434202  1
  Mn  Mn135  1  0.49959842  0.49971649  -0.00295651  1
  Mn  Mn136  1  0.50107025  0.49831124  0.33220813  1
  Mn  Mn137  1  0.49828708  0.50140002  0.66471546  1
  Mn  Mn138  1  0.83458448  -0.00113309  -0.00035886  1
  Mn  Mn139  1  0.83299953  -0.00108286  0.33633245  1
  Mn  Mn140  1  0.83139112  0.00138564  0.66763921  1
  Mn  Mn141  1  0.83550341  0.50053635  0.00013017  1
  Mn  Mn142  1  0.83093224  0.49895242  0.33308491  1
  Mn  Mn143  1  0.83491123  0.49948725  0.66763437  1
  O  O144  1  0.16654404  0.13289182  0.01117588  1
  O  O145  1  0.16782966  0.13156479  0.34540251  1
  O  O146  1  0.16834225  0.13147277  0.67786968  1
  O  O147  1  0.16812613  0.61860051  0.01719358  1
  O  O148  1  0.17519057  0.61887023  0.35760273  1
  O  O149  1  0.17028930  0.61862956  0.69421435  1
  O  O150  1  0.49589034  0.13047070  0.01943558  1
  O  O151  1  0.50225245  0.13196154  0.35559161  1
  O  O152  1  0.49352368  0.12457463  0.68919282  1
  O  O153  1  0.50360504  0.62239339  0.00830999  1
  O  O154  1  0.50818095  0.61931744  0.35477666  1
  O  O155  1  0.49254213  0.62356433  0.69116434  1
  O  O156  1  0.84066982  0.12751966  0.01127271  1
  O  O157  1  0.83401709  0.12890156  0.35900692  1
  O  O158  1  0.83053780  0.12334671  0.69382565  1
  O  O159  1  0.83150792  0.62393827  0.02600140  1
  O  O160  1  0.82413661  0.62180645  0.36132201  1
  O  O161  1  0.83731215  0.62311001  0.68722900  1
  O  O162  1  0.16572445  0.37550466  0.31214835  1
  O  O163  1  0.16537685  0.37643235  0.64241629  1
  O  O164  1  0.16693766  0.37725542  0.97531648  1
  O  O165  1  0.16170194  0.87365820  0.32960980  1
  O  O166  1  0.17217028  0.87196108  0.64282873  1
  O  O167  1  0.16917954  0.87092994  0.99402308  1
  O  O168  1  0.49737162  0.37489801  0.30439482  1
  O  O169  1  0.49391725  0.37640504  0.64070007  1
  O  O170  1  0.49081041  0.37697592  0.97214980  1
  O  O171  1  0.50580832  0.87478813  0.32303459  1
  O  O172  1  0.50547874  0.87601583  0.65169989  1
  O  O173  1  0.50504104  0.87152789  0.98704146  1
  O  O174  1  0.82687099  0.37665943  0.30663420  1
  O  O175  1  0.84123085  0.37397656  0.64338454  1
  O  O176  1  0.84311496  0.37731706  0.98048580  1
  O  O177  1  0.83137901  0.87175893  0.31119473  1
  O  O178  1  0.82880054  0.87792949  0.64140391  1
  O  O179  1  0.82961487  0.86975803  0.97363248  1
  O  O180  1  -0.00423495  0.37601445  0.19069557  1
  O  O181  1  -0.00223654  0.37657607  0.52893859  1
  O  O182  1  0.00358012  0.37869800  0.85813650  1
  O  O183  1  -0.00842303  0.87201523  0.18262941  1
  O  O184  1  0.00232086  0.87071246  0.51125374  1
  O  O185  1  -0.00946671  0.87227257  0.84392902  1
  O  O186  1  0.34727489  0.37595518  0.19292444  1
  O  O187  1  0.34670744  0.37757473  0.52966197  1
  O  O188  1  0.34419052  0.37812183  0.86022239  1
  O  O189  1  0.33341938  0.87365691  0.17143053  1
  O  O190  1  0.32959171  0.86742677  0.52444746  1
  O  O191  1  0.33349236  0.87060084  0.84811061  1
  O  O192  1  0.66865371  0.37579444  0.18997568  1
  O  O193  1  0.66397263  0.37330253  0.51566408  1
  O  O194  1  0.66107219  0.37756368  0.84080159  1
  O  O195  1  0.67418703  0.87216450  0.18695072  1
  O  O196  1  0.67051153  0.88040174  0.52599419  1
  O  O197  1  0.67295155  0.87222385  0.85620120  1
  O  O198  1  -0.00187910  0.13158432  0.14778449  1
  O  O199  1  -0.01021502  0.13261943  0.47225396  1
  O  O200  1  -0.00851486  0.12893527  0.81268360  1
  O  O201  1  -0.00932656  0.62038214  0.14565515  1
  O  O202  1  -0.00485097  0.62189713  0.48869332  1
  O  O203  1  -0.00515868  0.62016090  0.80639341  1
  O  O204  1  0.33862568  0.13376679  0.14479072  1
  O  O205  1  0.33748676  0.13582822  0.47453282  1
  O  O206  1  0.33810932  0.13104812  0.80862734  1
  O  O207  1  0.32922198  0.61788877  0.14549870  1
  O  O208  1  0.32262107  0.61861889  0.47389449  1
  O  O209  1  0.32251237  0.62148061  0.80640511  1
  O  O210  1  0.66116347  0.12680172  0.15718479  1
  O  O211  1  0.67431952  0.12738419  0.47082450  1
  O  O212  1  0.67065211  0.12356294  0.81115617  1
  O  O213  1  0.67535677  0.62422847  0.14156202  1
  O  O214  1  0.66845662  0.61879971  0.47418933  1
  O  O215  1  0.66758757  0.62515969  0.81351785  1
  O  O216  1  0.08053786  0.01415367  0.25396783  1
  O  O217  1  0.07980750  0.01521172  0.58352441  1
  O  O218  1  0.08052775  0.01461254  0.91938070  1
  O  O219  1  0.08592594  0.50736577  0.24390916  1
  O  O220  1  0.08858285  0.52083983  0.58567005  1
  O  O221  1  0.08406331  0.52221348  0.91197040  1
  O  O222  1  0.41899646  0.02311606  0.24635356  1
  O  O223  1  0.41928841  0.02268173  0.57879759  1
  O  O224  1  0.41974868  0.02120486  0.91056870  1
  O  O225  1  0.41383229  0.51811266  0.25732876  1
  O  O226  1  0.41762318  0.52865713  0.57946101  1
  O  O227  1  0.41585472  0.52735372  0.90893898  1
  O  O228  1  0.74493714  0.01043661  0.25828163  1
  O  O229  1  0.74989629  0.02680920  0.58293212  1
  O  O230  1  0.76025646  0.01176932  0.90648403  1
  O  O231  1  0.74805012  0.52366952  0.25269066  1
  O  O232  1  0.75620849  0.51363856  0.57686612  1
  O  O233  1  0.75213750  0.52052460  0.92038313  1
  O  O234  1  0.26454704  0.24415730  0.26011493  1
  O  O235  1  0.26211627  0.24239974  0.59298229  1
  O  O236  1  0.26225889  0.24298530  0.92653095  1
  O  O237  1  0.25206154  0.73200647  0.25643087  1
  O  O238  1  0.25339653  0.72271457  0.58751496  1
  O  O239  1  0.25148226  0.72679753  0.91660169  1
  O  O240  1  0.58122670  0.23371020  0.25077251  1
  O  O241  1  0.58452035  0.22445880  0.57892573  1
  O  O242  1  0.57936284  0.23975754  0.91035388  1
  O  O243  1  0.59141530  0.73700942  0.25352377  1
  O  O244  1  0.58301576  0.72937483  0.58116323  1
  O  O245  1  0.58654308  0.73007546  0.91350556  1
  O  O246  1  0.91873288  0.23940792  0.25910471  1
  O  O247  1  0.91216854  0.22545636  0.58214191  1
  O  O248  1  0.91764744  0.23321323  0.91575496  1
  O  O249  1  0.91109191  0.73250387  0.24970025  1
  O  O250  1  0.92006679  0.73016646  0.58898229  1
  O  O251  1  0.91993875  0.72141979  0.92244463  1
  O  O252  1  0.08162425  0.47813442  0.07908038  1
  O  O253  1  0.08206469  0.47731973  0.41804538  1
  O  O254  1  0.08362637  0.47717533  0.74883915  1
  O  O255  1  0.07782504  1.00070473  0.08117152  1
  O  O256  1  0.07783490  0.99396178  0.41459162  1
  O  O257  1  0.07520813  0.99980812  0.74679414  1
  O  O258  1  0.41456461  0.48007267  0.08100537  1
  O  O259  1  0.41801481  0.47911686  0.41817376  1
  O  O260  1  0.41162177  0.47907536  0.74616138  1
  O  O261  1  0.41574156  0.99813998  0.07863062  1
  O  O262  1  0.41485690  0.99976750  0.41374225  1
  O  O263  1  0.40806452  0.98709884  0.73846177  1
  O  O264  1  0.75932408  0.48395997  0.09255277  1
  O  O265  1  0.74826795  0.47411317  0.41443653  1
  O  O266  1  0.75684743  0.49264540  0.75379435  1
  O  O267  1  0.74988703  0.97762452  0.07922402  1
  O  O268  1  0.74981159  0.97705878  0.41906725  1
  O  O269  1  0.74444634  0.97509626  0.74337448  1
  O  O270  1  0.24956108  0.27922879  0.09334375  1
  O  O271  1  0.24983508  0.28062148  0.42576986  1
  O  O272  1  0.24971159  0.27769173  0.75908814  1
  O  O273  1  0.25112775  0.75066761  0.08063823  1
  O  O274  1  0.24177535  0.76060494  0.42951663  1
  O  O275  1  0.24882763  0.76492226  0.74743615  1
  O  O276  1  0.57420694  0.26656789  0.08691599  1
  O  O277  1  0.58187065  0.27278601  0.41228394  1
  O  O278  1  0.57719680  0.25844716  0.74968052  1
  O  O279  1  0.59134387  0.75939381  0.07530813  1
  O  O280  1  0.58649425  0.75780615  0.41443003  1
  O  O281  1  0.58405719  0.76026805  0.74381146  1
  O  O282  1  0.92007546  0.27257746  0.08286418  1
  O  O283  1  0.91526016  0.28076932  0.41900779  1
  O  O284  1  0.92307005  0.26668302  0.74490871  1
  O  O285  1  0.90662852  0.76079897  0.09102898  1
  O  O286  1  0.90734043  0.76019553  0.42477612  1
  O  O287  1  0.90328418  0.75950355  0.76075075  1
  O  O288  1  0.24916161  0.47297073  0.08805557  1
  O  O289  1  0.25055723  0.47172351  0.42418517  1
  O  O290  1  0.24806222  0.47136361  0.75348749  1
  O  O291  1  0.25209437  0.99890767  0.08293875  1
  O  O292  1  0.24286744  0.98686014  0.42645647  1
  O  O293  1  0.25005968  0.98841396  0.74871122  1
  O  O294  1  0.58225227  0.48308946  0.08973039  1
  O  O295  1  0.58116509  0.47494310  0.41582237  1
  O  O296  1  0.57268781  0.48921801  0.75350746  1
  O  O297  1  0.58784547  0.98678297  0.07744015  1
  O  O298  1  0.58982327  0.99212233  0.41126843  1
  O  O299  1  0.58721864  0.99117862  0.74093434  1
  O  O300  1  0.92087843  0.47876134  0.08007710  1
  O  O301  1  0.91294097  0.47598812  0.41490800  1
  O  O302  1  0.92128241  0.47935846  0.74763107  1
  O  O303  1  0.90826052  0.98433532  0.09159252  1
  O  O304  1  0.90709788  0.98414986  0.42707433  1
  O  O305  1  0.90352396  0.98896348  0.76008258  1
  O  O306  1  0.08390027  0.27659935  0.08865367  1
  O  O307  1  0.08060004  0.27546008  0.42309845  1
  O  O308  1  0.08416269  0.27316518  0.75570274  1
  O  O309  1  0.07736849  0.74631206  0.08017266  1
  O  O310  1  0.08324178  0.75576554  0.42088026  1
  O  O311  1  0.07905623  0.74960879  0.74743055  1
  O  O312  1  0.41255005  0.27474182  0.07960765  1
  O  O313  1  0.41673555  0.27694811  0.41304501  1
  O  O314  1  0.41405953  0.27387320  0.74846183  1
  O  O315  1  0.41289489  0.75076403  0.07183498  1
  O  O316  1  0.41364154  0.74509714  0.41573851  1
  O  O317  1  0.40682076  0.76164566  0.73608997  1
  O  O318  1  0.75686418  0.26638775  0.09009692  1
  O  O319  1  0.75389539  0.27511627  0.42196391  1
  O  O320  1  0.75510454  0.25970043  0.75043495  1
  O  O321  1  0.74906210  0.77203059  0.07850566  1
  O  O322  1  0.74564692  0.77150830  0.41125397  1
  O  O323  1  0.74575444  0.77162421  0.74481738  1
  O  O324  1  0.25660047  0.01399065  0.25832280  1
  O  O325  1  0.25961116  0.01381562  0.59110968  1
  O  O326  1  0.25732824  0.01332112  0.92201825  1
  O  O327  1  0.25500714  0.50980049  0.25610579  1
  O  O328  1  0.25231659  0.51764324  0.58729520  1
  O  O329  1  0.25256681  0.51752341  0.91725944  1
  O  O330  1  0.57996904  0.01746068  0.24814121  1
  O  O331  1  0.58428957  0.02786204  0.57972179  1
  O  O332  1  0.58343206  0.01377552  0.90958548  1
  O  O333  1  0.59124854  0.51229573  0.25665898  1
  O  O334  1  0.58037613  0.51793311  0.57835793  1
  O  O335  1  0.58626292  0.51792200  0.91506795  1
  O  O336  1  0.92122921  0.01559831  0.26185958  1
  O  O337  1  0.91673839  0.02543822  0.58932827  1
  O  O338  1  0.92141427  0.02042192  0.92174679  1
  O  O339  1  0.90681658  0.51207868  0.24443131  1
  O  O340  1  0.91689712  0.51981293  0.58502327  1
  O  O341  1  0.91772089  0.52485571  0.91669666  1
  O  O342  1  0.07686800  0.24252395  0.25757341  1
  O  O343  1  0.07153712  0.23818519  0.59069146  1
  O  O344  1  0.07475867  0.24017388  0.92409769  1
  O  O345  1  0.08381803  0.73682959  0.24766388  1
  O  O346  1  0.08832570  0.72516327  0.58308662  1
  O  O347  1  0.08435296  0.72593903  0.91476480  1
  O  O348  1  0.42345744  0.22745746  0.24514969  1
  O  O349  1  0.42118190  0.22658574  0.57885519  1
  O  O350  1  0.42021761  0.22830322  0.91226432  1
  O  O351  1  0.41478184  0.73335389  0.25219764  1
  O  O352  1  0.41911499  0.72267754  0.57766091  1
  O  O353  1  0.41846640  0.72458992  0.90672720  1
  O  O354  1  0.74311345  0.23758363  0.26425836  1
  O  O355  1  0.75057624  0.22742280  0.58565458  1
  O  O356  1  0.75581194  0.23994242  0.91296583  1
  O  O357  1  0.75244568  0.72759467  0.24756230  1
  O  O358  1  0.75633387  0.73198142  0.57580822  1
  O  O359  1  0.75552129  0.72518537  0.91341499  1
