# generated using pymatgen
data_Ba17Sr5La8Pr42Mn72O216
_symmetry_space_group_name_H-M   'P 1'
_cell_length_a   16.67425640
_cell_length_b   15.70292020
_cell_length_c   16.81798877
_cell_angle_alpha   89.98151886
_cell_angle_beta   89.99028365
_cell_angle_gamma   90.00417632
_symmetry_Int_Tables_number   1
_chemical_formula_structural   Ba17Sr5La8Pr42Mn72O216
_chemical_formula_sum   'Ba17 Sr5 La8 Pr42 Mn72 O216'
_cell_volume   4403.52967276
_cell_formula_units_Z   1
loop_
 _symmetry_equiv_pos_site_id
 _symmetry_equiv_pos_as_xyz
  1  'x, y, z'
loop_
 _atom_site_type_symbol
 _atom_site_label
 _atom_site_symmetry_multiplicity
 _atom_site_fract_x
 _atom_site_fract_y
 _atom_site_fract_z
 _atom_site_occupancy
  Ba  Ba0  1  0.16471998  0.12373991  0.50063111  1
  Ba  Ba1  1  0.66542280  0.12477091  0.66610739  1
  Ba  Ba2  1  0.50241346  0.37442896  0.83489591  1
  Ba  Ba3  1  -0.00394654  0.12622132  0.33513861  1
  Ba  Ba4  1  0.49892419  0.62666609  0.50079237  1
  Ba  Ba5  1  0.16962133  0.37540133  0.16764114  1
  Ba  Ba6  1  0.16862534  0.37439241  0.83598493  1
  Ba  Ba7  1  0.33381556  0.62457635  0.66549298  1
  Ba  Ba8  1  0.33361404  0.12411517  0.33160937  1
  Ba  Ba9  1  0.16755341  0.62328931  0.83412468  1
  Ba  Ba10  1  -0.00085025  0.62563013  0.99839324  1
  Ba  Ba11  1  0.33429243  0.37385901  0.33055607  1
  Ba  Ba12  1  -0.00182669  0.12496500  0.66390353  1
  Ba  Ba13  1  0.66598239  0.62743318  1.00122540  1
  Ba  Ba14  1  0.33248849  0.12425093  0.66433950  1
  Ba  Ba15  1  0.83225779  0.87666336  0.16524877  1
  Ba  Ba16  1  0.00078027  0.87460372  0.00242690  1
  Sr  Sr17  1  0.33284587  0.62502604  0.99673837  1
  Sr  Sr18  1  0.66712057  0.87492360  0.00347992  1
  Sr  Sr19  1  0.50185398  0.87535823  0.49987580  1
  Sr  Sr20  1  -0.00172377  0.62314507  0.66603014  1
  Sr  Sr21  1  -0.00484934  0.62348679  0.33104519  1
  La  La22  1  0.50115301  0.12437305  0.83424064  1
  La  La23  1  0.33073821  0.62604325  0.33185441  1
  La  La24  1  0.17129417  0.37296066  0.49987464  1
  La  La25  1  0.50269506  0.87294675  0.83206686  1
  La  La26  1  0.00671095  0.37635271  0.33562786  1
  La  La27  1  0.33142177  0.12707360  0.99515101  1
  La  La28  1  0.16849155  0.86933539  0.83302039  1
  La  La29  1  -0.00425872  0.12662980  0.99946638  1
  Pr  Pr30  1  0.33350679  0.37460584  0.66658373  1
  Pr  Pr31  1  0.83050171  0.12427435  0.83350359  1
  Pr  Pr32  1  0.82972901  0.12487137  0.50526389  1
  Pr  Pr33  1  0.83669323  0.37774055  0.83000767  1
  Pr  Pr34  1  0.50007821  0.12473659  0.16937618  1
  Pr  Pr35  1  0.49823536  0.37437811  0.16208923  1
  Pr  Pr36  1  0.00310252  0.87405579  0.33540623  1
  Pr  Pr37  1  0.66398568  0.62349397  0.66885272  1
  Pr  Pr38  1  0.16855940  0.87788709  0.16411346  1
  Pr  Pr39  1  0.33498656  0.38306536  0.00486621  1
  Pr  Pr40  1  0.00429978  0.87526973  0.67077349  1
  Pr  Pr41  1  0.01109775  0.37799159  0.00222279  1
  Pr  Pr42  1  0.83328995  0.62612869  0.83815587  1
  Pr  Pr43  1  0.66516961  0.12228885  0.33417340  1
  Pr  Pr44  1  0.16157926  0.12411453  0.83439731  1
  Pr  Pr45  1  0.49580544  0.62656160  0.16997610  1
  Pr  Pr46  1  0.49981432  0.37410314  0.50132314  1
  Pr  Pr47  1  0.33323472  0.87090913  0.00041137  1
  Pr  Pr48  1  0.82785925  0.62452600  0.50128975  1
  Pr  Pr49  1  0.66828517  0.37849836  0.33778604  1
  Pr  Pr50  1  0.67046684  0.87182185  0.33727847  1
  Pr  Pr51  1  0.83665250  0.37356696  0.49746484  1
  Pr  Pr52  1  0.82839972  0.63244237  0.16794697  1
  Pr  Pr53  1  0.66758189  0.87317175  0.66888215  1
  Pr  Pr54  1  0.66155225  0.62767038  0.32959450  1
  Pr  Pr55  1  0.83457288  0.87112725  0.83339318  1
  Pr  Pr56  1  0.82908282  0.12081359  0.16809680  1
  Pr  Pr57  1  0.83612684  0.87687890  0.49716884  1
  Pr  Pr58  1  0.66692496  0.12123141  0.99713677  1
  Pr  Pr59  1  0.66846958  0.37634226  0.67052390  1
  Pr  Pr60  1  0.15769465  0.12471197  0.17531603  1
  Pr  Pr61  1  0.15795320  0.62466375  0.16796331  1
  Pr  Pr62  1  0.00756006  0.37464672  0.66736390  1
  Pr  Pr63  1  0.33386819  0.87420197  0.66601830  1
  Pr  Pr64  1  0.17104390  0.87510173  0.50113649  1
  Pr  Pr65  1  0.49881277  0.87584039  0.16526693  1
  Pr  Pr66  1  0.49715698  0.62459227  0.83876147  1
  Pr  Pr67  1  0.66818338  0.37474590  0.00535503  1
  Pr  Pr68  1  0.33548434  0.87576038  0.33618188  1
  Pr  Pr69  1  0.49446157  0.12548731  0.50418413  1
  Pr  Pr70  1  0.83856782  0.37567553  0.16333799  1
  Pr  Pr71  1  0.16193737  0.62121865  0.50700752  1
  Mn  Mn72  1  -0.00118378  0.00019174  0.16746572  1
  Mn  Mn73  1  -0.00174658  -0.00414798  0.50166393  1
  Mn  Mn74  1  -0.00106379  0.00006368  0.83411626  1
  Mn  Mn75  1  -0.00252418  0.50117493  0.16737595  1
  Mn  Mn76  1  -0.00229104  0.50155182  0.49989967  1
  Mn  Mn77  1  -0.00128564  0.49879555  0.83188536  1
  Mn  Mn78  1  0.33412083  -0.00083696  0.16334338  1
  Mn  Mn79  1  0.33471714  -0.00270827  0.49960079  1
  Mn  Mn80  1  0.33415998  0.00014514  0.83318589  1
  Mn  Mn81  1  0.33384546  0.50494308  0.16580204  1
  Mn  Mn82  1  0.33366013  0.49975343  0.49870362  1
  Mn  Mn83  1  0.33562007  0.49814894  0.83417597  1
  Mn  Mn84  1  0.66415182  0.00120462  0.16670750  1
  Mn  Mn85  1  0.66603324  -0.00171825  0.49966297  1
  Mn  Mn86  1  0.66758731  -0.00151905  0.83436608  1
  Mn  Mn87  1  0.66694128  0.49928944  0.16910791  1
  Mn  Mn88  1  0.66728434  0.50039152  0.50165201  1
  Mn  Mn89  1  0.66854484  0.50002727  0.83462698  1
  Mn  Mn90  1  -0.00231920  0.25169490  0.16513302  1
  Mn  Mn91  1  -0.00248243  0.25234975  0.50063303  1
  Mn  Mn92  1  -0.00181125  0.24897403  0.83350161  1
  Mn  Mn93  1  -0.00056696  0.74870129  0.16969271  1
  Mn  Mn94  1  -0.00151105  0.74844921  0.50055962  1
  Mn  Mn95  1  -0.00098673  0.75072120  0.83200737  1
  Mn  Mn96  1  0.33578968  0.24844565  0.16175675  1
  Mn  Mn97  1  0.33409640  0.25057312  0.49983714  1
  Mn  Mn98  1  0.33409374  0.24846431  0.83242291  1
  Mn  Mn99  1  0.33191752  0.75007852  0.16677221  1
  Mn  Mn100  1  0.33259696  0.75123375  0.49827544  1
  Mn  Mn101  1  0.33565984  0.75132047  0.83440413  1
  Mn  Mn102  1  0.66746529  0.25029272  0.16911296  1
  Mn  Mn103  1  0.66641875  0.25212784  0.49930177  1
  Mn  Mn104  1  0.66852820  0.24973320  0.83540993  1
  Mn  Mn105  1  0.66405441  0.75113632  0.16748087  1
  Mn  Mn106  1  0.66799756  0.74893861  0.50223788  1
  Mn  Mn107  1  0.66761267  0.75182122  0.83354218  1
  Mn  Mn108  1  0.16870003  0.24706331  0.00133087  1
  Mn  Mn109  1  0.16630062  0.24981787  0.33346777  1
  Mn  Mn110  1  0.16691589  0.25065176  0.66750624  1
  Mn  Mn111  1  0.16819434  0.75171037  0.00084747  1
  Mn  Mn112  1  0.16549409  0.74943712  0.33427526  1
  Mn  Mn113  1  0.16508781  0.74828118  0.66452601  1
  Mn  Mn114  1  0.50156642  0.24882645  0.00114485  1
  Mn  Mn115  1  0.50311464  0.25068847  0.33322439  1
  Mn  Mn116  1  0.50153563  0.25081736  0.66640615  1
  Mn  Mn117  1  0.49975181  0.75175618  0.00088470  1
  Mn  Mn118  1  0.49995169  0.75119547  0.33318823  1
  Mn  Mn119  1  0.50174777  0.75227146  0.66718175  1
  Mn  Mn120  1  0.83256907  0.25166031  -0.00086417  1
  Mn  Mn121  1  0.83085191  0.25082429  0.33143295  1
  Mn  Mn122  1  0.83225796  0.25271924  0.66538469  1
  Mn  Mn123  1  0.83229339  0.75043434  0.00085071  1
  Mn  Mn124  1  0.83352994  0.74969581  0.33543372  1
  Mn  Mn125  1  0.83327242  0.74799722  0.66551857  1
  Mn  Mn126  1  0.16835250  0.00274569  0.00175669  1
  Mn  Mn127  1  0.16604892  -0.00261594  0.33166035  1
  Mn  Mn128  1  0.16687704  -0.00338560  0.66803845  1
  Mn  Mn129  1  0.16878884  0.50143697  0.00125473  1
  Mn  Mn130  1  0.16569643  0.50298635  0.33665589  1
  Mn  Mn131  1  0.16599429  0.50022724  0.66635834  1
  Mn  Mn132  1  0.49997414  -0.00051330  0.00106487  1
  Mn  Mn133  1  0.50221713  -0.00099353  0.33366298  1
  Mn  Mn134  1  0.50121229  -0.00312887  0.66530189  1
  Mn  Mn135  1  0.50164651  0.50154223  0.00089492  1
  Mn  Mn136  1  0.50045823  0.49958822  0.33289313  1
  Mn  Mn137  1  0.50195580  0.49930933  0.66762001  1
  Mn  Mn138  1  0.83218665  0.00190405  -0.00032911  1
  Mn  Mn139  1  0.83231106  -0.00022357  0.33433181  1
  Mn  Mn140  1  0.83206150  -0.00354560  0.66526162  1
  Mn  Mn141  1  0.83300599  0.49720269  -0.00147401  1
  Mn  Mn142  1  0.83150032  0.50008639  0.33160379  1
  Mn  Mn143  1  0.83338001  0.50092159  0.66579230  1
  O  O144  1  0.17464141  0.12415213  0.03062474  1
  O  O145  1  0.16508172  0.12390973  0.34044437  1
  O  O146  1  0.16595045  0.12087122  0.68806003  1
  O  O147  1  0.17127343  0.62771264  0.02090425  1
  O  O148  1  0.16804229  0.62877023  0.36277550  1
  O  O149  1  0.16415725  0.62538846  0.67529400  1
  O  O150  1  0.50487344  0.12295349  0.02699802  1
  O  O151  1  0.50865779  0.12232240  0.36131652  1
  O  O152  1  0.49873314  0.12171251  0.68788129  1
  O  O153  1  0.49817226  0.62590058  0.02503428  1
  O  O154  1  0.50129441  0.62517597  0.34553354  1
  O  O155  1  0.50539721  0.62730719  0.69313030  1
  O  O156  1  0.83218341  0.13060589  0.02507173  1
  O  O157  1  0.82574412  0.12251356  0.36215692  1
  O  O158  1  0.83303087  0.12397094  0.68866268  1
  O  O159  1  0.83347075  0.61809717  0.02227521  1
  O  O160  1  0.82909990  0.62413857  0.35801446  1
  O  O161  1  0.82999256  0.62426816  0.69613080  1
  O  O162  1  0.16293768  0.37649463  0.32543288  1
  O  O163  1  0.16501640  0.37847029  0.64852994  1
  O  O164  1  0.16704688  0.37183273  0.99367730  1
  O  O165  1  0.16828636  0.87125123  0.30639037  1
  O  O166  1  0.16461226  0.86999494  0.64710938  1
  O  O167  1  0.17178415  0.88077151  0.97807051  1
  O  O168  1  0.50902507  0.37748893  0.30574537  1
  O  O169  1  0.51170110  0.37601249  0.64633973  1
  O  O170  1  0.50133771  0.37568324  0.99023924  1
  O  O171  1  0.50383512  0.87528544  0.30859990  1
  O  O172  1  0.51287163  0.87464430  0.64835844  1
  O  O173  1  0.49746790  0.87807381  0.97582275  1
  O  O174  1  0.82355803  0.37843369  0.30539840  1
  O  O175  1  0.82457887  0.37995886  0.63988339  1
  O  O176  1  0.82238097  0.37237233  0.97303509  1
  O  O177  1  0.82897466  0.87490020  0.32041556  1
  O  O178  1  0.82742958  0.86971357  0.63922977  1
  O  O179  1  0.83009996  0.88025520  0.98025612  1
  O  O180  1  -0.00863370  0.37679440  0.18942284  1
  O  O181  1  -0.01267247  0.37905538  0.52316517  1
  O  O182  1  -0.00862391  0.36905672  0.85914268  1
  O  O183  1  0.00408223  0.87175103  0.18917789  1
  O  O184  1  -0.01225232  0.86962332  0.52731425  1
  O  O185  1  -0.00447525  0.87795278  0.84605736  1
  O  O186  1  0.34122136  0.37707185  0.17375322  1
  O  O187  1  0.33199014  0.37507858  0.51770649  1
  O  O188  1  0.33552126  0.36861784  0.86060358  1
  O  O189  1  0.33032635  0.87307628  0.19374842  1
  O  O190  1  0.32637082  0.87296815  0.51882828  1
  O  O191  1  0.33585844  0.87853399  0.85746373  1
  O  O192  1  0.66850262  0.37274992  0.19548318  1
  O  O193  1  0.66480449  0.37820557  0.52690354  1
  O  O194  1  0.67350655  0.37152440  0.86085066  1
  O  O195  1  0.65826399  0.87503504  0.19326928  1
  O  O196  1  0.67125768  0.87038041  0.52508348  1
  O  O197  1  0.66780740  0.87612441  0.85465158  1
  O  O198  1  0.00237315  0.12843651  0.14724625  1
  O  O199  1  -0.00733345  0.12421258  0.49050703  1
  O  O200  1  0.00019380  0.12423673  0.81929679  1
  O  O201  1  0.00234168  0.62407515  0.15642231  1
  O  O202  1  0.00553734  0.62506612  0.47843612  1
  O  O203  1  -0.00978832  0.62694373  0.81678504  1
  O  O204  1  0.34543752  0.12145025  0.13974605  1
  O  O205  1  0.34381724  0.12323967  0.49041358  1
  O  O206  1  0.33722195  0.12228351  0.81837713  1
  O  O207  1  0.34307332  0.62948188  0.14520392  1
  O  O208  1  0.32923752  0.62803977  0.47854295  1
  O  O209  1  0.34339728  0.62836895  0.82258972  1
  O  O210  1  0.66585752  0.12947915  0.14042241  1
  O  O211  1  0.67130948  0.12782824  0.47611888  1
  O  O212  1  0.66839402  0.12427968  0.82134153  1
  O  O213  1  0.66946605  0.62545748  0.15661722  1
  O  O214  1  0.67392310  0.62361737  0.47338961  1
  O  O215  1  0.67133994  0.62878476  0.81128100  1
  O  O216  1  0.08056086  0.00863894  0.25178398  1
  O  O217  1  0.07854086  -0.00277786  0.58689280  1
  O  O218  1  0.08329890  0.02567582  0.92514869  1
  O  O219  1  0.08221522  0.51527696  0.25681362  1
  O  O220  1  0.07924147  0.51122084  0.58411685  1
  O  O221  1  0.08047871  0.50224084  0.92078861  1
  O  O222  1  0.42300640  0.01101036  0.24227660  1
  O  O223  1  0.42067136  0.00468134  0.58009614  1
  O  O224  1  0.42075992  0.02220179  0.91801358  1
  O  O225  1  0.41473082  0.52176589  0.25018368  1
  O  O226  1  0.41741283  0.50025357  0.58368509  1
  O  O227  1  0.42002621  0.51561278  0.91861653  1
  O  O228  1  0.74549537  0.02089663  0.25231706  1
  O  O229  1  0.75042321  0.01351537  0.57968701  1
  O  O230  1  0.75182006  0.02246811  0.91620786  1
  O  O231  1  0.74376683  0.52291862  0.25712416  1
  O  O232  1  0.74772334  0.52511965  0.58785700  1
  O  O233  1  0.75139207  0.51641931  0.91445078  1
  O  O234  1  0.24890542  0.23339007  0.23493337  1
  O  O235  1  0.24905150  0.24874888  0.58194122  1
  O  O236  1  0.24516559  0.22399452  0.91061768  1
  O  O237  1  0.24726111  0.72334438  0.24624418  1
  O  O238  1  0.23994582  0.73795275  0.57164920  1
  O  O239  1  0.25439531  0.74631605  0.91869441  1
  O  O240  1  0.58520856  0.22467821  0.25050908  1
  O  O241  1  0.57649574  0.23477492  0.57168954  1
  O  O242  1  0.58340489  0.22881161  0.92051787  1
  O  O243  1  0.57966889  0.73029561  0.24781662  1
  O  O244  1  0.58996495  0.73292152  0.59012442  1
  O  O245  1  0.57919492  0.73658183  0.90778577  1
  O  O246  1  0.90515404  0.23595796  0.23566379  1
  O  O247  1  0.90582913  0.23939163  0.57337360  1
  O  O248  1  0.91069339  0.22696505  0.91185467  1
  O  O249  1  0.91028863  0.73186425  0.24947121  1
  O  O250  1  0.90920377  0.72561449  0.57775313  1
  O  O251  1  0.91030958  0.74126420  0.90785616  1
  O  O252  1  0.08389212  0.49102496  0.08524012  1
  O  O253  1  0.08342837  0.47996644  0.42393442  1
  O  O254  1  0.07870582  0.48517825  0.74695371  1
  O  O255  1  0.09423082  0.98870489  0.09150395  1
  O  O256  1  0.08242312  0.97252220  0.42154279  1
  O  O257  1  0.08843091  0.97906943  0.75508548  1
  O  O258  1  0.42265517  0.48459786  0.08589520  1
  O  O259  1  0.42339435  0.48358218  0.41851774  1
  O  O260  1  0.41746783  0.48292199  0.74621074  1
  O  O261  1  0.41599747  0.97352412  0.08118648  1
  O  O262  1  0.41777243  0.97981395  0.41111587  1
  O  O263  1  0.41950363  0.97447417  0.74657556  1
  O  O264  1  0.75254810  0.47629086  0.08683372  1
  O  O265  1  0.75403336  0.47773388  0.42139110  1
  O  O266  1  0.75409265  0.47793117  0.75128186  1
  O  O267  1  0.74488820  0.99519782  0.07998258  1
  O  O268  1  0.75106996  0.97809886  0.41840485  1
  O  O269  1  0.75324644  0.97658978  0.75006596  1
  O  O270  1  0.26446511  0.26183948  0.06869184  1
  O  O271  1  0.24893535  0.26012765  0.41933853  1
  O  O272  1  0.25545741  0.26501239  0.74619776  1
  O  O273  1  0.25142928  0.77474112  0.08540321  1
  O  O274  1  0.25292741  0.77344215  0.40923352  1
  O  O275  1  0.25369449  0.77044251  0.74797044  1
  O  O276  1  0.58747606  0.27318903  0.08777284  1
  O  O277  1  0.58848094  0.27591528  0.41390039  1
  O  O278  1  0.59042631  0.26364669  0.74574856  1
  O  O279  1  0.57755508  0.76882006  0.08688551  1
  O  O280  1  0.59128154  0.76522903  0.41169215  1
  O  O281  1  0.58776211  0.77101645  0.75025736  1
  O  O282  1  0.91951757  0.27477064  0.07407750  1
  O  O283  1  0.91628042  0.27428825  0.40915410  1
  O  O284  1  0.91720058  0.27450770  0.74457318  1
  O  O285  1  0.91502700  0.75382222  0.08669721  1
  O  O286  1  0.92016653  0.77042016  0.41384809  1
  O  O287  1  0.91581905  0.77292829  0.74471964  1
  O  O288  1  0.25685167  0.49174124  0.08068703  1
  O  O289  1  0.24893550  0.49052286  0.41682047  1
  O  O290  1  0.25586897  0.48458056  0.74307080  1
  O  O291  1  0.25660465  0.97655630  0.07660010  1
  O  O292  1  0.25111048  0.97846454  0.41204598  1
  O  O293  1  0.25022299  0.97435811  0.74908864  1
  O  O294  1  0.58756361  0.47835018  0.08461377  1
  O  O295  1  0.58717880  0.48004907  0.41553321  1
  O  O296  1  0.59402908  0.48748538  0.74536551  1
  O  O297  1  0.57710599  0.98144058  0.08837237  1
  O  O298  1  0.59147204  0.97924830  0.41030639  1
  O  O299  1  0.58450127  0.98132202  0.75134249  1
  O  O300  1  0.91826231  0.47262382  0.07345505  1
  O  O301  1  0.91799874  0.47891536  0.40789424  1
  O  O302  1  0.91804408  0.47484700  0.74182233  1
  O  O303  1  0.91777264  0.99950935  0.08043505  1
  O  O304  1  0.91978809  0.97670903  0.41303034  1
  O  O305  1  0.91514264  0.97667895  0.74324896  1
  O  O306  1  0.07931703  0.26084317  0.08119693  1
  O  O307  1  0.07922984  0.27081501  0.42203979  1
  O  O308  1  0.08086018  0.26298985  0.75079282  1
  O  O309  1  0.09207117  0.76161567  0.09369839  1
  O  O310  1  0.08508653  0.77749829  0.41986301  1
  O  O311  1  0.08245425  0.76906554  0.74953406  1
  O  O312  1  0.42145147  0.26747419  0.08210704  1
  O  O313  1  0.42614718  0.26426781  0.42170283  1
  O  O314  1  0.41534242  0.26697166  0.74544365  1
  O  O315  1  0.41472204  0.77553151  0.08614804  1
  O  O316  1  0.41520396  0.76888709  0.41170145  1
  O  O317  1  0.41984706  0.77474988  0.75090338  1
  O  O318  1  0.75195529  0.27347464  0.08752631  1
  O  O319  1  0.74979707  0.27577519  0.41874463  1
  O  O320  1  0.75488807  0.27109422  0.75290911  1
  O  O321  1  0.74666350  0.75951241  0.08653540  1
  O  O322  1  0.75483938  0.76906789  0.42301907  1
  O  O323  1  0.75084850  0.77338168  0.74957293  1
  O  O324  1  0.24477863  0.01411953  0.23489918  1
  O  O325  1  0.24710382  0.00024458  0.58365991  1
  O  O326  1  0.24474618  0.02382495  0.91554655  1
  O  O327  1  0.24810887  0.52581310  0.24810750  1
  O  O328  1  0.24175478  0.50941312  0.57553678  1
  O  O329  1  0.25412359  0.50566697  0.92128900  1
  O  O330  1  0.58290799  0.02560298  0.25009400  1
  O  O331  1  0.57832233  0.01605768  0.57445061  1
  O  O332  1  0.58283956  0.01982311  0.92038430  1
  O  O333  1  0.58031547  0.52135028  0.24817743  1
  O  O334  1  0.58750152  0.51835095  0.58737018  1
  O  O335  1  0.57939183  0.51741513  0.91274617  1
  O  O336  1  0.90735355  0.01666397  0.24640719  1
  O  O337  1  0.90589658  0.01076742  0.57425879  1
  O  O338  1  0.91090786  0.02282530  0.91418939  1
  O  O339  1  0.90282441  0.51751200  0.23906591  1
  O  O340  1  0.90792324  0.52082945  0.57481666  1
  O  O341  1  0.90755479  0.50993627  0.90587165  1
  O  O342  1  0.08064659  0.24151837  0.24839754  1
  O  O343  1  0.07907373  0.25202514  0.58461031  1
  O  O344  1  0.08196567  0.22874049  0.92092898  1
  O  O345  1  0.08205610  0.73044905  0.25514180  1
  O  O346  1  0.07907177  0.73441454  0.58157702  1
  O  O347  1  0.08620492  0.74719606  0.91448004  1
  O  O348  1  0.42427494  0.23644386  0.24273454  1
  O  O349  1  0.42013705  0.24596967  0.58040895  1
  O  O350  1  0.41740465  0.22582426  0.91584123  1
  O  O351  1  0.41394167  0.73363171  0.24951601  1
  O  O352  1  0.41396498  0.74944505  0.58614589  1
  O  O353  1  0.42107654  0.73743077  0.91533630  1
  O  O354  1  0.74632082  0.22259319  0.25242362  1
  O  O355  1  0.74977238  0.23758523  0.57980125  1
  O  O356  1  0.74881666  0.22487645  0.92103856  1
  O  O357  1  0.74443006  0.73360404  0.25795804  1
  O  O358  1  0.74852481  0.72246184  0.58714923  1
  O  O359  1  0.75432139  0.73840130  0.90937475  1
