# generated using pymatgen
data_Ba17Sr5La8Pr42Mn72O216
_symmetry_space_group_name_H-M   'P 1'
_cell_length_a   16.67705053
_cell_length_b   15.71038353
_cell_length_c   16.82806058
_cell_angle_alpha   89.99881478
_cell_angle_beta   90.02327115
_cell_angle_gamma   89.99912420
_symmetry_Int_Tables_number   1
_chemical_formula_structural   Ba17Sr5La8Pr42Mn72O216
_chemical_formula_sum   'Ba17 Sr5 La8 Pr42 Mn72 O216'
_cell_volume   4408.99963364
_cell_formula_units_Z   1
loop_
 _symmetry_equiv_pos_site_id
 _symmetry_equiv_pos_as_xyz
  1  'x, y, z'
loop_
 _atom_site_type_symbol
 _atom_site_label
 _atom_site_symmetry_multiplicity
 _atom_site_fract_x
 _atom_site_fract_y
 _atom_site_fract_z
 _atom_site_occupancy
  Ba  Ba0  1  0.49863446  0.12518984  0.16598497  1
  Ba  Ba1  1  0.00217383  0.62459548  0.33382506  1
  Ba  Ba2  1  0.83676410  0.62387653  0.16894240  1
  Ba  Ba3  1  0.33502015  0.62597569  0.33045797  1
  Ba  Ba4  1  0.33309639  0.62484629  0.99609408  1
  Ba  Ba5  1  0.66592597  0.87300689  0.00077966  1
  Ba  Ba6  1  0.16805666  0.87663460  0.16396126  1
  Ba  Ba7  1  -0.00136234  0.37429698  0.66658309  1
  Ba  Ba8  1  0.49575872  0.12415399  0.83573347  1
  Ba  Ba9  1  0.83340740  0.37434184  0.16974584  1
  Ba  Ba10  1  0.83248113  0.12281307  0.83528370  1
  Ba  Ba11  1  0.66531237  0.12492521  1.00093981  1
  Ba  Ba12  1  0.66462659  0.37481985  0.00008711  1
  Ba  Ba13  1  0.49865066  0.37385704  0.16775430  1
  Ba  Ba14  1  0.83214541  0.12516055  0.16815629  1
  Ba  Ba15  1  0.00142843  0.62531629  1.00298085  1
  Ba  Ba16  1  0.00253171  0.87498438  0.00058275  1
  Sr  Sr17  1  0.17052415  0.62661214  0.49801087  1
  Sr  Sr18  1  0.33146055  0.12678446  0.99727412  1
  Sr  Sr19  1  0.82712462  0.37541580  0.49970312  1
  Sr  Sr20  1  0.83317827  0.87573202  0.83572630  1
  Sr  Sr21  1  0.16160477  0.12279104  0.50232332  1
  La  La22  1  0.66549471  0.12663159  0.33031835  1
  La  La23  1  0.50319197  0.62436207  0.83454173  1
  La  La24  1  0.16530518  0.37721017  0.83054710  1
  La  La25  1  0.33728467  0.62606576  0.65708839  1
  La  La26  1  0.33633830  0.87599831  0.32984391  1
  La  La27  1  0.32958182  0.37496501  0.33063231  1
  La  La28  1  0.83725708  0.87238989  0.16285832  1
  La  La29  1  -0.00117474  0.37270370  0.00110244  1
  Pr  Pr30  1  0.50088705  0.87225248  0.49889120  1
  Pr  Pr31  1  -0.00899950  0.37482378  0.34014395  1
  Pr  Pr32  1  0.84039982  0.62381764  0.83838414  1
  Pr  Pr33  1  -0.00449650  0.12620885  0.33339984  1
  Pr  Pr34  1  0.16120867  0.12698834  0.83346479  1
  Pr  Pr35  1  0.48965959  0.37118246  0.83406926  1
  Pr  Pr36  1  0.16700296  0.63112462  0.16950080  1
  Pr  Pr37  1  0.50941836  0.62435333  0.50564438  1
  Pr  Pr38  1  0.49591168  0.37755467  0.49597191  1
  Pr  Pr39  1  -0.00478801  0.12325816  1.00096017  1
  Pr  Pr40  1  0.16409171  0.62335775  0.83222336  1
  Pr  Pr41  1  0.00933744  0.87845801  0.67398837  1
  Pr  Pr42  1  0.66146593  0.37553283  0.67393995  1
  Pr  Pr43  1  0.16354445  0.37392727  0.49017561  1
  Pr  Pr44  1  0.33557180  0.37257918  -0.00080073  1
  Pr  Pr45  1  0.33475871  0.87886479  0.00044765  1
  Pr  Pr46  1  0.50052809  0.12485141  0.50528368  1
  Pr  Pr47  1  0.66481643  0.37060254  0.33396616  1
  Pr  Pr48  1  0.33169359  0.12483583  0.66065318  1
  Pr  Pr49  1  0.84430134  0.62429201  0.50222778  1
  Pr  Pr50  1  0.33369854  0.87694287  0.66409620  1
  Pr  Pr51  1  0.00004947  0.87332944  0.33347951  1
  Pr  Pr52  1  0.49739487  0.87683046  0.83459490  1
  Pr  Pr53  1  0.67162032  0.62235120  0.33507640  1
  Pr  Pr54  1  0.32679789  0.37439634  0.66264032  1
  Pr  Pr55  1  0.16475138  0.12227242  0.16600561  1
  Pr  Pr56  1  0.82891543  0.37145832  0.83545993  1
  Pr  Pr57  1  0.49857366  0.87236546  0.16319348  1
  Pr  Pr58  1  0.00520801  0.62601229  0.66239795  1
  Pr  Pr59  1  -0.00881556  0.12440043  0.66475942  1
  Pr  Pr60  1  0.50818402  0.62326596  0.16766364  1
  Pr  Pr61  1  0.67013315  0.12296551  0.66987668  1
  Pr  Pr62  1  0.68142646  0.62764382  0.66449913  1
  Pr  Pr63  1  0.83558960  0.87420116  0.50166584  1
  Pr  Pr64  1  0.17213351  0.87516064  0.49253494  1
  Pr  Pr65  1  0.66567812  0.87462305  0.67714954  1
  Pr  Pr66  1  0.32980115  0.12551573  0.32623207  1
  Pr  Pr67  1  0.17040233  0.87296628  0.83414804  1
  Pr  Pr68  1  0.16787498  0.37839442  0.16473109  1
  Pr  Pr69  1  0.67242055  0.62038349  1.00111763  1
  Pr  Pr70  1  0.66889122  0.87687833  0.33532762  1
  Pr  Pr71  1  0.83164506  0.12695069  0.50527127  1
  Mn  Mn72  1  0.00023605  0.00266207  0.16887682  1
  Mn  Mn73  1  -0.00107578  -0.00194742  0.50244408  1
  Mn  Mn74  1  0.00227574  -0.00014663  0.83358677  1
  Mn  Mn75  1  0.00361280  0.49644437  0.16919287  1
  Mn  Mn76  1  0.00219385  0.50040869  0.50123727  1
  Mn  Mn77  1  -0.00114011  0.49955635  0.83218415  1
  Mn  Mn78  1  0.33329862  0.00146150  0.16496144  1
  Mn  Mn79  1  0.33468185  0.00072503  0.49676401  1
  Mn  Mn80  1  0.33035080  -0.00097792  0.83100964  1
  Mn  Mn81  1  0.33355751  0.50031322  0.16392329  1
  Mn  Mn82  1  0.33462257  0.49985103  0.49756064  1
  Mn  Mn83  1  0.33184469  0.50024179  0.82656489  1
  Mn  Mn84  1  0.66527776  -0.00149376  0.17093179  1
  Mn  Mn85  1  0.66667265  -0.00148113  0.50256949  1
  Mn  Mn86  1  0.66562898  -0.00248517  0.83499131  1
  Mn  Mn87  1  0.66701264  0.50056865  0.16886070  1
  Mn  Mn88  1  0.66725549  0.50075121  0.50446344  1
  Mn  Mn89  1  0.66446936  0.50234885  0.83069118  1
  Mn  Mn90  1  0.00275162  0.25023064  0.16951019  1
  Mn  Mn91  1  -0.00051344  0.24837449  0.50110520  1
  Mn  Mn92  1  -0.00004044  0.24982621  0.83443243  1
  Mn  Mn93  1  0.00193411  0.75005479  0.16878380  1
  Mn  Mn94  1  0.00251123  0.75267780  0.50350685  1
  Mn  Mn95  1  0.00094387  0.75228935  0.83081194  1
  Mn  Mn96  1  0.33074288  0.24978187  0.16403107  1
  Mn  Mn97  1  0.33255961  0.24853231  0.49667777  1
  Mn  Mn98  1  0.32878472  0.25044588  0.82913970  1
  Mn  Mn99  1  0.33503136  0.74950140  0.16323472  1
  Mn  Mn100  1  0.33679954  0.75069051  0.49767408  1
  Mn  Mn101  1  0.33292395  0.75026397  0.82749457  1
  Mn  Mn102  1  0.66580653  0.24904144  0.16805635  1
  Mn  Mn103  1  0.66413875  0.24886184  0.50373097  1
  Mn  Mn104  1  0.66356539  0.25140505  0.83319256  1
  Mn  Mn105  1  0.66638394  0.74946614  0.17087422  1
  Mn  Mn106  1  0.66965379  0.75236558  0.50324214  1
  Mn  Mn107  1  0.66533010  0.74778638  0.83344319  1
  Mn  Mn108  1  0.16593934  0.25068880  -0.00143485  1
  Mn  Mn109  1  0.16558519  0.24670978  0.33183499  1
  Mn  Mn110  1  0.16595497  0.24823175  0.66335432  1
  Mn  Mn111  1  0.16876783  0.74823664  -0.00218695  1
  Mn  Mn112  1  0.16786705  0.75212293  0.33262919  1
  Mn  Mn113  1  0.16998622  0.75160232  0.66426438  1
  Mn  Mn114  1  0.49703475  0.24976123  -0.00118341  1
  Mn  Mn115  1  0.49844673  0.25032020  0.33839318  1
  Mn  Mn116  1  0.49879802  0.24942410  0.66509778  1
  Mn  Mn117  1  0.49957549  0.74810695  -0.00045654  1
  Mn  Mn118  1  0.50271486  0.74979389  0.33342669  1
  Mn  Mn119  1  0.50097875  0.75114333  0.66757857  1
  Mn  Mn120  1  0.83389491  0.24983913  0.00041105  1
  Mn  Mn121  1  0.83137105  0.25017376  0.33944114  1
  Mn  Mn122  1  0.82998034  0.25137494  0.66682484  1
  Mn  Mn123  1  0.83345931  0.74964756  -0.00033011  1
  Mn  Mn124  1  0.83294877  0.75332536  0.33593370  1
  Mn  Mn125  1  0.83657748  0.75182156  0.66799303  1
  Mn  Mn126  1  0.16801752  0.00376472  -0.00244474  1
  Mn  Mn127  1  0.16648806  0.00175761  0.33442509  1
  Mn  Mn128  1  0.16794552  0.00135503  0.66515405  1
  Mn  Mn129  1  0.16654731  0.49844939  -0.00235949  1
  Mn  Mn130  1  0.16691369  0.49894492  0.33045791  1
  Mn  Mn131  1  0.16803717  0.50020002  0.66270049  1
  Mn  Mn132  1  0.49754095  -0.00084833  -0.00048898  1
  Mn  Mn133  1  0.50059455  -0.00189585  0.33616174  1
  Mn  Mn134  1  0.49970387  0.00031524  0.66631024  1
  Mn  Mn135  1  0.49928021  0.50191509  -0.00029821  1
  Mn  Mn136  1  0.50072712  0.50194506  0.33586804  1
  Mn  Mn137  1  0.50092474  0.49891258  0.66724687  1
  Mn  Mn138  1  0.83335616  -0.00249181  0.00115375  1
  Mn  Mn139  1  0.83328919  -0.00218527  0.33760097  1
  Mn  Mn140  1  0.83229559  -0.00148747  0.66625354  1
  Mn  Mn141  1  0.83488371  0.49975198  0.00031292  1
  Mn  Mn142  1  0.83174383  0.49882334  0.33836566  1
  Mn  Mn143  1  0.83320762  0.50006978  0.66739922  1
  O  O144  1  0.17273715  0.12980106  0.02182190  1
  O  O145  1  0.17786808  0.12427395  0.35591111  1
  O  O146  1  0.17592430  0.12423773  0.68973196  1
  O  O147  1  0.16887159  0.61837635  0.02367145  1
  O  O148  1  0.16873026  0.62677632  0.34675359  1
  O  O149  1  0.17388394  0.63060600  0.68889536  1
  O  O150  1  0.49483623  0.12233283  0.00592775  1
  O  O151  1  0.49889254  0.12409481  0.36193232  1
  O  O152  1  0.48991897  0.12560650  0.68087335  1
  O  O153  1  0.49970101  0.62631775  0.02152502  1
  O  O154  1  0.50425856  0.62752637  0.36292273  1
  O  O155  1  0.48905334  0.62942265  0.69062216  1
  O  O156  1  0.84265307  0.12473113  0.00867384  1
  O  O157  1  0.83354682  0.12213544  0.36149876  1
  O  O158  1  0.83609982  0.12425250  0.67856577  1
  O  O159  1  0.82855586  0.62512410  0.00744411  1
  O  O160  1  0.82613374  0.62777938  0.35926070  1
  O  O161  1  0.83846708  0.62844418  0.69261091  1
  O  O162  1  0.16506184  0.36867799  0.31098891  1
  O  O163  1  0.17030540  0.36975200  0.63398582  1
  O  O164  1  0.16233546  0.37393593  0.97148412  1
  O  O165  1  0.16034153  0.87928008  0.32220295  1
  O  O166  1  0.16333536  0.87727723  0.63629888  1
  O  O167  1  0.17269367  0.87763366  0.97736610  1
  O  O168  1  0.51165974  0.37894342  0.32654019  1
  O  O169  1  0.50782454  0.36952696  0.63782015  1
  O  O170  1  0.49119020  0.37932623  0.97921772  1
  O  O171  1  0.50547251  0.87159692  0.30730316  1
  O  O172  1  0.50521885  0.87552754  0.64080990  1
  O  O173  1  0.49277028  0.87090368  0.97893599  1
  O  O174  1  0.83399045  0.37411575  0.33060867  1
  O  O175  1  0.81916594  0.37572318  0.64976504  1
  O  O176  1  0.83945330  0.37669980  0.97981787  1
  O  O177  1  0.82998357  0.87660020  0.31054312  1
  O  O178  1  0.82388174  0.87424634  0.64353583  1
  O  O179  1  0.83317545  0.87075809  0.98925816  1
  O  O180  1  0.01325976  0.37026250  0.19555461  1
  O  O181  1  0.01049700  0.37387004  0.51000586  1
  O  O182  1  0.00709764  0.37255530  0.85339986  1
  O  O183  1  -0.00169640  0.87937028  0.18808106  1
  O  O184  1  -0.00330963  0.87555458  0.53135625  1
  O  O185  1  0.01272874  0.87657235  0.84348327  1
  O  O186  1  0.32813108  0.37270677  0.18667005  1
  O  O187  1  0.33187815  0.37256895  0.52072798  1
  O  O188  1  0.33148927  0.37810452  0.85272692  1
  O  O189  1  0.34081427  0.87634638  0.18592983  1
  O  O190  1  0.33231779  0.87592184  0.52115679  1
  O  O191  1  0.32950651  0.87217565  0.85600402  1
  O  O192  1  0.66512535  0.37739001  0.18856170  1
  O  O193  1  0.66123030  0.37662453  0.52981025  1
  O  O194  1  0.67921580  0.38022517  0.83814061  1
  O  O195  1  0.65965765  0.87294645  0.19252740  1
  O  O196  1  0.66821415  0.87478708  0.53393121  1
  O  O197  1  0.66544851  0.86966007  0.84120875  1
  O  O198  1  0.00418972  0.12798780  0.14624817  1
  O  O199  1  -0.00839785  0.12100631  0.47751096  1
  O  O200  1  0.00520007  0.12468964  0.80725355  1
  O  O201  1  0.00752761  0.62176989  0.16129545  1
  O  O202  1  -0.00324115  0.62863341  0.48982097  1
  O  O203  1  -0.00382976  0.62902168  0.80662395  1
  O  O204  1  0.32661188  0.12654810  0.14944595  1
  O  O205  1  0.34380238  0.12469176  0.46971973  1
  O  O206  1  0.32535978  0.12428152  0.80378974  1
  O  O207  1  0.32559864  0.62404917  0.15345235  1
  O  O208  1  0.34182173  0.62682759  0.48853085  1
  O  O209  1  0.32982421  0.62540423  0.80044520  1
  O  O210  1  0.66625574  0.12250947  0.16419722  1
  O  O211  1  0.66393536  0.11989663  0.47352309  1
  O  O212  1  0.66232948  0.12467558  0.81493555  1
  O  O213  1  0.66157812  0.62587086  0.14878648  1
  O  O214  1  0.66281169  0.62930420  0.47801988  1
  O  O215  1  0.65373931  0.62555891  0.80526213  1
  O  O216  1  0.08099934  0.02477135  0.25664485  1
  O  O217  1  0.07300904  0.01989113  0.59534500  1
  O  O218  1  0.08195096  0.02684912  0.91923558  1
  O  O219  1  0.09743095  0.51209600  0.23832783  1
  O  O220  1  0.08963470  0.52090650  0.58081825  1
  O  O221  1  0.08784627  0.51619032  0.91039341  1
  O  O222  1  0.40754097  0.01280888  0.26045701  1
  O  O223  1  0.41410985  0.01770845  0.58316319  1
  O  O224  1  0.40433128  0.00497841  0.91980813  1
  O  O225  1  0.42556154  0.51457129  0.24215543  1
  O  O226  1  0.43162409  0.51399552  0.57467164  1
  O  O227  1  0.42362885  0.51328194  0.89848013  1
  O  O228  1  0.74357961  0.00977419  0.26528338  1
  O  O229  1  0.74619283  0.02485716  0.58321272  1
  O  O230  1  0.74798899  0.00293131  0.91576088  1
  O  O231  1  0.74833266  0.51243858  0.25640207  1
  O  O232  1  0.76030329  0.52702496  0.57563748  1
  O  O233  1  0.75088832  0.52065885  0.90312809  1
  O  O234  1  0.24566118  0.23047852  0.24665144  1
  O  O235  1  0.25395074  0.22675345  0.57866832  1
  O  O236  1  0.24038674  0.23692479  0.90476295  1
  O  O237  1  0.25153831  0.74320351  0.24422519  1
  O  O238  1  0.25695052  0.73782443  0.58573872  1
  O  O239  1  0.24531779  0.73308217  0.90196455  1
  O  O240  1  0.58476913  0.23896969  0.26445532  1
  O  O241  1  0.58582105  0.22075353  0.58874638  1
  O  O242  1  0.57761291  0.25306910  0.91078390  1
  O  O243  1  0.58682630  0.72319287  0.25748877  1
  O  O244  1  0.59052671  0.72813637  0.59170199  1
  O  O245  1  0.58617258  0.72726590  0.92221046  1
  O  O246  1  0.92292070  0.23851224  0.26112720  1
  O  O247  1  0.91416036  0.23301423  0.58539687  1
  O  O248  1  0.92244390  0.24139990  0.92044248  1
  O  O249  1  0.91867194  0.75012931  0.25648665  1
  O  O250  1  0.91938842  0.73131028  0.58597113  1
  O  O251  1  0.91362240  0.73931462  0.90611949  1
  O  O252  1  0.08475721  0.47407337  0.07989476  1
  O  O253  1  0.08115220  0.47987110  0.40875269  1
  O  O254  1  0.08264171  0.49362554  0.74873381  1
  O  O255  1  0.08770855  1.00092471  0.08442357  1
  O  O256  1  0.08509697  0.98173103  0.42681542  1
  O  O257  1  0.09382283  0.98303743  0.75482010  1
  O  O258  1  0.40836247  0.48505138  0.07270253  1
  O  O259  1  0.41009543  0.47759776  0.41037270  1
  O  O260  1  0.40796238  0.47531586  0.73734904  1
  O  O261  1  0.41881898  0.97906201  0.08664436  1
  O  O262  1  0.42239520  0.97259666  0.41922364  1
  O  O263  1  0.41684534  0.97519191  0.75098228  1
  O  O264  1  0.74714498  0.49689223  0.07879293  1
  O  O265  1  0.73554743  0.48349164  0.41380247  1
  O  O266  1  0.73548361  0.49536567  0.73437386  1
  O  O267  1  0.75195456  0.98390552  0.09607929  1
  O  O268  1  0.75348247  0.97426695  0.42501496  1
  O  O269  1  0.74644731  0.98669858  0.74480598  1
  O  O270  1  0.24895230  0.27528328  0.07597698  1
  O  O271  1  0.25029203  0.27145586  0.41259801  1
  O  O272  1  0.25041437  0.27360004  0.74201310  1
  O  O273  1  0.25658862  0.76517553  0.07459679  1
  O  O274  1  0.25017796  0.77088637  0.41521925  1
  O  O275  1  0.25067345  0.77919685  0.74431171  1
  O  O276  1  0.58038597  0.25494887  0.08330462  1
  O  O277  1  0.57832859  0.26776146  0.42765666  1
  O  O278  1  0.57827815  0.27186693  0.75060859  1
  O  O279  1  0.57532095  0.76089033  0.09646769  1
  O  O280  1  0.58459551  0.77428163  0.42434938  1
  O  O281  1  0.57506688  0.77132680  0.75532020  1
  O  O282  1  0.92625716  0.26411294  0.08074896  1
  O  O283  1  0.91681375  0.26370817  0.42094618  1
  O  O284  1  0.90900113  0.26659218  0.75607818  1
  O  O285  1  0.91641735  0.76136368  0.09094888  1
  O  O286  1  0.91529080  0.77309621  0.42132773  1
  O  O287  1  0.92095365  0.77544701  0.74423635  1
  O  O288  1  0.24796800  0.47408084  0.07814183  1
  O  O289  1  0.24352203  0.47885246  0.41688046  1
  O  O290  1  0.24601086  0.47510146  0.74643959  1
  O  O291  1  0.25835087  0.98782065  0.07100354  1
  O  O292  1  0.25567720  0.97877677  0.41119200  1
  O  O293  1  0.25465467  0.97464006  0.74111984  1
  O  O294  1  0.57934781  0.49766417  0.09011996  1
  O  O295  1  0.57361275  0.48961594  0.43500558  1
  O  O296  1  0.57045278  0.47749364  0.76031121  1
  O  O297  1  0.57889993  0.98449872  0.09093704  1
  O  O298  1  0.58659373  0.97220943  0.42205024  1
  O  O299  1  0.58393002  0.98200063  0.74701360  1
  O  O300  1  0.92497857  0.48336416  0.08486683  1
  O  O301  1  0.91061805  0.48918951  0.42667559  1
  O  O302  1  0.90172640  0.48309466  0.75906778  1
  O  O303  1  0.91562062  0.98815195  0.09079141  1
  O  O304  1  0.91931174  0.97094580  0.41733688  1
  O  O305  1  0.92558847  0.98486124  0.74125037  1
  O  O306  1  0.08936522  0.27007944  0.08625514  1
  O  O307  1  0.08383690  0.26255138  0.41418711  1
  O  O308  1  0.08896147  0.26182229  0.75822146  1
  O  O309  1  0.08790111  0.75282504  0.08656566  1
  O  O310  1  0.08214625  0.77421295  0.42188071  1
  O  O311  1  0.08741036  0.76845967  0.74669186  1
  O  O312  1  0.41040229  0.26286586  0.07734924  1
  O  O313  1  0.41502035  0.27534790  0.41783234  1
  O  O314  1  0.41257454  0.27353300  0.74375859  1
  O  O315  1  0.41447456  0.77090049  0.07778840  1
  O  O316  1  0.41786613  0.77580913  0.41128927  1
  O  O317  1  0.41202922  0.77657781  0.74134721  1
  O  O318  1  0.75326612  0.25567173  0.08215870  1
  O  O319  1  0.74231227  0.26592405  0.41947698  1
  O  O320  1  0.74035878  0.25996763  0.74119649  1
  O  O321  1  0.74960707  0.76107722  0.09222662  1
  O  O322  1  0.75000827  0.77716354  0.42055284  1
  O  O323  1  0.74376968  0.76013057  0.74189851  1
  O  O324  1  0.24714638  0.01835751  0.24403606  1
  O  O325  1  0.24966503  0.01847953  0.57963025  1
  O  O326  1  0.23933586  0.01587422  0.90205386  1
  O  O327  1  0.25186031  0.50501303  0.24870314  1
  O  O328  1  0.26208830  0.51479638  0.58694450  1
  O  O329  1  0.24596152  0.51478527  0.90580722  1
  O  O330  1  0.58483630  0.01399998  0.26088975  1
  O  O331  1  0.58298043  0.02315462  0.58292014  1
  O  O332  1  0.57601266  -0.00161932  0.91210310  1
  O  O333  1  0.58814286  0.52172870  0.26069023  1
  O  O334  1  0.59508350  0.52523494  0.59697838  1
  O  O335  1  0.58857031  0.52131339  0.92174380  1
  O  O336  1  0.92095203  0.01480658  0.26133147  1
  O  O337  1  0.90968561  0.01744451  0.57685267  1
  O  O338  1  0.92296064  0.00892388  0.91730938  1
  O  O339  1  0.92361954  0.49828327  0.25959821  1
  O  O340  1  0.92243380  0.51935670  0.59357713  1
  O  O341  1  0.91596976  0.51059332  0.91325268  1
  O  O342  1  0.08496579  0.21930754  0.25291492  1
  O  O343  1  0.07867129  0.22489408  0.58788466  1
  O  O344  1  0.07932666  0.22501541  0.92283496  1
  O  O345  1  0.08754698  0.74084319  0.24949009  1
  O  O346  1  0.08569985  0.73170370  0.58697551  1
  O  O347  1  0.08819170  0.73437960  0.90737387  1
  O  O348  1  0.40961939  0.23967187  0.26124475  1
  O  O349  1  0.41687481  0.23056996  0.57914409  1
  O  O350  1  0.40833055  0.24629312  0.91445475  1
  O  O351  1  0.42616442  0.73713215  0.23784819  1
  O  O352  1  0.42804267  0.73741455  0.57713099  1
  O  O353  1  0.42304795  0.73608659  0.90080161  1
  O  O354  1  0.74569662  0.24228324  0.26152101  1
  O  O355  1  0.74787256  0.22511629  0.58140674  1
  O  O356  1  0.75187442  0.24792644  0.91043299  1
  O  O357  1  0.74438541  0.73764149  0.26089644  1
  O  O358  1  0.75870375  0.72626232  0.57878505  1
  O  O359  1  0.74759488  0.72550726  0.91064783  1
