# generated using pymatgen
data_Ba17Sr5La8Pr42Mn72O216
_symmetry_space_group_name_H-M   'P 1'
_cell_length_a   16.67578644
_cell_length_b   15.70866569
_cell_length_c   16.81977656
_cell_angle_alpha   90.00805359
_cell_angle_beta   90.00716204
_cell_angle_gamma   90.00085034
_symmetry_Int_Tables_number   1
_chemical_formula_structural   Ba17Sr5La8Pr42Mn72O216
_chemical_formula_sum   'Ba17 Sr5 La8 Pr42 Mn72 O216'
_cell_volume   4406.01363033
_cell_formula_units_Z   1
loop_
 _symmetry_equiv_pos_site_id
 _symmetry_equiv_pos_as_xyz
  1  'x, y, z'
loop_
 _atom_site_type_symbol
 _atom_site_label
 _atom_site_symmetry_multiplicity
 _atom_site_fract_x
 _atom_site_fract_y
 _atom_site_fract_z
 _atom_site_occupancy
  Ba  Ba0  1  0.66549646  0.12518464  0.66565918  1
  Ba  Ba1  1  0.83520783  0.37495955  0.83366487  1
  Ba  Ba2  1  0.83229657  0.37535845  0.49819038  1
  Ba  Ba3  1  0.66709823  0.62743503  0.99646300  1
  Ba  Ba4  1  0.00336081  0.87428738  0.00439202  1
  Ba  Ba5  1  0.50154120  0.37276854  0.16415810  1
  Ba  Ba6  1  -0.00084006  0.62643796  0.67075925  1
  Ba  Ba7  1  0.33282675  0.62603459  0.66274754  1
  Ba  Ba8  1  0.33060270  0.12504981  0.33185289  1
  Ba  Ba9  1  0.66693619  0.37655653  0.66545930  1
  Ba  Ba10  1  0.66696352  0.62590585  0.66474873  1
  Ba  Ba11  1  0.00063994  0.87432406  0.33590401  1
  Ba  Ba12  1  0.50030020  0.37402269  0.83310893  1
  Ba  Ba13  1  0.83189291  0.12480316  0.83516035  1
  Ba  Ba14  1  0.33626983  0.37526670  -0.00165447  1
  Ba  Ba15  1  0.16480131  0.12659963  0.17037265  1
  Ba  Ba16  1  0.49813013  0.12360617  0.83175874  1
  Sr  Sr17  1  0.49683167  0.62540319  0.50262350  1
  Sr  Sr18  1  0.49877159  0.12585709  0.16681239  1
  Sr  Sr19  1  0.00045102  0.37501037  0.00256715  1
  Sr  Sr20  1  0.83320038  0.12151759  0.16613530  1
  Sr  Sr21  1  0.83235970  0.62118060  0.83333440  1
  La  La22  1  0.00419999  0.87629272  0.67259464  1
  La  La23  1  0.49424675  0.12586107  0.50245650  1
  La  La24  1  0.83410514  0.62771224  0.16465111  1
  La  La25  1  0.16200442  0.62285257  0.16653170  1
  La  La26  1  0.50744626  0.87369977  0.83185756  1
  La  La27  1  0.16914460  0.37911693  0.50234940  1
  La  La28  1  0.33573506  0.87936584  0.33356527  1
  La  La29  1  0.83050289  0.12157740  0.50205933  1
  Pr  Pr30  1  0.50438984  0.87620457  0.16316645  1
  Pr  Pr31  1  0.33890765  0.87731555  0.00247477  1
  Pr  Pr32  1  0.17266303  0.37289180  0.16432204  1
  Pr  Pr33  1  0.67036884  0.87586189  0.66677788  1
  Pr  Pr34  1  0.83655830  0.87448936  0.16289412  1
  Pr  Pr35  1  0.34104093  0.37600774  0.67027737  1
  Pr  Pr36  1  0.66962369  0.87552894  0.33132541  1
  Pr  Pr37  1  -0.00768379  0.12504163  1.00094974  1
  Pr  Pr38  1  0.16421789  0.62518551  0.83795024  1
  Pr  Pr39  1  0.33913961  0.37021331  0.33243318  1
  Pr  Pr40  1  0.00285276  0.37518246  0.67558899  1
  Pr  Pr41  1  0.66283087  0.37440453  0.33500318  1
  Pr  Pr42  1  -0.00869391  0.12620773  0.66947181  1
  Pr  Pr43  1  0.16238854  0.12517526  0.83982284  1
  Pr  Pr44  1  0.15644668  0.12356411  0.50210935  1
  Pr  Pr45  1  0.32916793  0.62377062  0.33186876  1
  Pr  Pr46  1  -0.00623442  0.12676515  0.33076008  1
  Pr  Pr47  1  0.33002039  0.13106710  1.00171543  1
  Pr  Pr48  1  -0.00551259  0.62432503  0.99425944  1
  Pr  Pr49  1  0.83422486  0.37544026  0.16083790  1
  Pr  Pr50  1  0.49782614  0.62166146  0.16775067  1
  Pr  Pr51  1  0.50415457  0.37887981  0.49893655  1
  Pr  Pr52  1  0.32892603  0.12758668  0.66231071  1
  Pr  Pr53  1  0.83530213  0.87070320  0.83221910  1
  Pr  Pr54  1  0.66226067  0.12804104  0.99399660  1
  Pr  Pr55  1  -0.00687743  0.62332061  0.33656394  1
  Pr  Pr56  1  0.67297191  0.87864287  0.00028058  1
  Pr  Pr57  1  0.34287271  0.87452086  0.66791041  1
  Pr  Pr58  1  0.17340153  0.87761800  0.16449963  1
  Pr  Pr59  1  0.83205601  0.87308184  0.49968630  1
  Pr  Pr60  1  0.66835965  0.37261694  -0.00213389  1
  Pr  Pr61  1  0.17240168  0.37512960  0.83118453  1
  Pr  Pr62  1  0.17102326  0.87049673  0.49863496  1
  Pr  Pr63  1  0.16047947  0.62743034  0.50555024  1
  Pr  Pr64  1  0.66533673  0.62265069  0.32852634  1
  Pr  Pr65  1  0.50182559  0.62145736  0.83268789  1
  Pr  Pr66  1  0.00278387  0.37373749  0.33684880  1
  Pr  Pr67  1  0.33352782  0.62052291  0.99406936  1
  Pr  Pr68  1  0.17453916  0.87622894  0.83216411  1
  Pr  Pr69  1  0.66602669  0.12650301  0.32695915  1
  Pr  Pr70  1  0.50644832  0.87118255  0.49806471  1
  Pr  Pr71  1  0.83280924  0.62828761  0.50568739  1
  Mn  Mn72  1  0.00065987  -0.00008029  0.16969909  1
  Mn  Mn73  1  0.00007859  0.00014584  0.50296759  1
  Mn  Mn74  1  0.00202330  -0.00107754  0.83669853  1
  Mn  Mn75  1  -0.00108041  0.50087154  0.16865347  1
  Mn  Mn76  1  -0.00037015  0.49856887  0.50198918  1
  Mn  Mn77  1  0.00300838  0.49922637  0.83631617  1
  Mn  Mn78  1  0.33551445  -0.00169040  0.16778561  1
  Mn  Mn79  1  0.33057737  -0.00079125  0.50159261  1
  Mn  Mn80  1  0.33242985  -0.00080811  0.83377783  1
  Mn  Mn81  1  0.33206960  0.50311333  0.16545693  1
  Mn  Mn82  1  0.33209955  0.49862813  0.49750255  1
  Mn  Mn83  1  0.33312232  0.50162983  0.82989789  1
  Mn  Mn84  1  0.66715920  0.00051454  0.16560875  1
  Mn  Mn85  1  0.66456138  -0.00138644  0.49552532  1
  Mn  Mn86  1  0.66763462  -0.00185068  0.83434640  1
  Mn  Mn87  1  0.66755595  0.50106857  0.16546830  1
  Mn  Mn88  1  0.66625818  0.50178810  0.49588283  1
  Mn  Mn89  1  0.66723810  0.50126645  0.83254198  1
  Mn  Mn90  1  -0.00224884  0.25124723  0.16889466  1
  Mn  Mn91  1  -0.00053806  0.25040020  0.50175708  1
  Mn  Mn92  1  0.00346840  0.24965491  0.83702240  1
  Mn  Mn93  1  0.00212364  0.74795774  0.16862264  1
  Mn  Mn94  1  0.00030995  0.75182212  0.50236348  1
  Mn  Mn95  1  0.00263512  0.75151073  0.83664617  1
  Mn  Mn96  1  0.33359931  0.24965881  0.16709426  1
  Mn  Mn97  1  0.33034250  0.25098771  0.50059138  1
  Mn  Mn98  1  0.33126599  0.24778020  0.83023516  1
  Mn  Mn99  1  0.33427359  0.74818205  0.16583073  1
  Mn  Mn100  1  0.33327873  0.75147231  0.49750689  1
  Mn  Mn101  1  0.33417561  0.75051408  0.83423153  1
  Mn  Mn102  1  0.66915971  0.24818181  0.16569163  1
  Mn  Mn103  1  0.66488960  0.24920988  0.49455316  1
  Mn  Mn104  1  0.66625077  0.24950469  0.83205705  1
  Mn  Mn105  1  0.66544109  0.74981182  0.16545776  1
  Mn  Mn106  1  0.66615103  0.75082991  0.49641923  1
  Mn  Mn107  1  0.66798794  0.75090047  0.83184269  1
  Mn  Mn108  1  0.16494302  0.25061282  0.00105743  1
  Mn  Mn109  1  0.16455232  0.25364906  0.33605118  1
  Mn  Mn110  1  0.16589614  0.24717602  0.66790860  1
  Mn  Mn111  1  0.17063173  0.75001681  0.00249555  1
  Mn  Mn112  1  0.16732010  0.74704410  0.33319882  1
  Mn  Mn113  1  0.16788158  0.75257000  0.66735095  1
  Mn  Mn114  1  0.50090919  0.24797283  0.00039309  1
  Mn  Mn115  1  0.50008749  0.24936165  0.33357683  1
  Mn  Mn116  1  0.49826284  0.24823240  0.66419334  1
  Mn  Mn117  1  0.49905718  0.75138060  -0.00090574  1
  Mn  Mn118  1  0.49907346  0.74868271  0.33171917  1
  Mn  Mn119  1  0.50138870  0.75202922  0.66460338  1
  Mn  Mn120  1  0.83360939  0.25091622  0.00253288  1
  Mn  Mn121  1  0.83209422  0.25011078  0.32935645  1
  Mn  Mn122  1  0.83390290  0.24993873  0.66568377  1
  Mn  Mn123  1  0.83427505  0.75094957  -0.00102502  1
  Mn  Mn124  1  0.83171346  0.74897326  0.33397095  1
  Mn  Mn125  1  0.83497733  0.75163420  0.66580618  1
  Mn  Mn126  1  0.16856503  -0.00003157  0.00078653  1
  Mn  Mn127  1  0.16521372  -0.00128213  0.33540243  1
  Mn  Mn128  1  0.16739027  0.00096549  0.66796608  1
  Mn  Mn129  1  0.16585482  0.49891581  0.00211033  1
  Mn  Mn130  1  0.16596960  0.50071669  0.33449544  1
  Mn  Mn131  1  0.16692525  0.50032618  0.66614344  1
  Mn  Mn132  1  0.49926094  -0.00087335  0.00009458  1
  Mn  Mn133  1  0.50110934  -0.00198959  0.33212142  1
  Mn  Mn134  1  0.49864760  -0.00066965  0.66477809  1
  Mn  Mn135  1  0.50199923  0.50118622  0.00029701  1
  Mn  Mn136  1  0.49819046  0.50235108  0.33392828  1
  Mn  Mn137  1  0.49976468  0.50230478  0.66381589  1
  Mn  Mn138  1  0.83338817  0.00032397  0.00241822  1
  Mn  Mn139  1  0.83227233  -0.00080210  0.33388502  1
  Mn  Mn140  1  0.83462361  -0.00103431  0.66583970  1
  Mn  Mn141  1  0.83358592  0.49902563  -0.00005010  1
  Mn  Mn142  1  0.83209177  0.50131603  0.33070045  1
  Mn  Mn143  1  0.83523849  0.50128429  0.66664342  1
  O  O144  1  0.17955322  0.12459520  0.01373363  1
  O  O145  1  0.16129895  0.13006163  0.35806825  1
  O  O146  1  0.17620459  0.12332956  0.69656139  1
  O  O147  1  0.17806497  0.62694724  0.02357047  1
  O  O148  1  0.17617614  0.62237548  0.36393421  1
  O  O149  1  0.16878126  0.63088231  0.69225787  1
  O  O150  1  0.51134556  0.12024293  0.01596630  1
  O  O151  1  0.50686448  0.12499341  0.35783796  1
  O  O152  1  0.49090721  0.12071981  0.67165429  1
  O  O153  1  0.49814148  0.63052579  0.02333214  1
  O  O154  1  0.50039947  0.62698849  0.35535245  1
  O  O155  1  0.49874790  0.63281084  0.68623587  1
  O  O156  1  0.83494586  0.12488124  0.01729565  1
  O  O157  1  0.83124582  0.12250625  0.35872910  1
  O  O158  1  0.83713748  0.12189524  0.67682744  1
  O  O159  1  0.83947656  0.62495182  0.01904081  1
  O  O160  1  0.83099524  0.62569211  0.36238297  1
  O  O161  1  0.83299622  0.63018031  0.68024557  1
  O  O162  1  0.15407392  0.38052456  0.30748062  1
  O  O163  1  0.15660348  0.36869745  0.64470099  1
  O  O164  1  0.16161130  0.37296796  0.97606818  1
  O  O165  1  0.16831583  0.86667259  0.30814385  1
  O  O166  1  0.15984304  0.87886408  0.64136841  1
  O  O167  1  0.17312910  0.87385978  0.97635164  1
  O  O168  1  0.49999374  0.37713223  0.32017002  1
  O  O169  1  0.49175952  0.37210002  0.64571612  1
  O  O170  1  0.50507332  0.37410519  0.99157076  1
  O  O171  1  0.49919279  0.86928068  0.30567818  1
  O  O172  1  0.49956013  0.87662731  0.64342333  1
  O  O173  1  0.48764395  0.87451000  0.97502901  1
  O  O174  1  0.83288068  0.37832235  0.30574609  1
  O  O175  1  0.84533052  0.37322898  0.65701034  1
  O  O176  1  0.83213826  0.37558682  0.99201536  1
  O  O177  1  0.82784969  0.87240583  0.30534685  1
  O  O178  1  0.83609796  0.87733588  0.64283611  1
  O  O179  1  0.83052979  0.87583973  0.97884021  1
  O  O180  1  -0.00996931  0.37912801  0.19541273  1
  O  O181  1  0.00383220  0.37449398  0.52955905  1
  O  O182  1  0.01143731  0.37368297  0.85130148  1
  O  O183  1  0.00026729  0.87158549  0.18046377  1
  O  O184  1  -0.00094888  0.87921656  0.52625967  1
  O  O185  1  0.00027564  0.87628403  0.84844923  1
  O  O186  1  0.32926174  0.38182620  0.18690581  1
  O  O187  1  0.32480551  0.37234538  0.52700690  1
  O  O188  1  0.32767040  0.37560802  0.84145933  1
  O  O189  1  0.33562129  0.86936456  0.19010546  1
  O  O190  1  0.32036495  0.87804095  0.52471586  1
  O  O191  1  0.32835687  0.87428729  0.86018527  1
  O  O192  1  0.67542166  0.37717517  0.19228148  1
  O  O193  1  0.65834494  0.37571525  0.50621722  1
  O  O194  1  0.66614869  0.37623743  0.85033944  1
  O  O195  1  0.66601046  0.87302208  0.18993147  1
  O  O196  1  0.66337774  0.87569839  0.52189003  1
  O  O197  1  0.66937767  0.87410572  0.85457428  1
  O  O198  1  -0.00052967  0.12598481  0.14540590  1
  O  O199  1  0.00455074  0.12402187  0.47441229  1
  O  O200  1  0.00874361  0.12211353  0.81329035  1
  O  O201  1  0.00325727  0.62470321  0.13985083  1
  O  O202  1  0.00345814  0.62300288  0.48011815  1
  O  O203  1  0.00843267  0.62686826  0.82623111  1
  O  O204  1  0.33421730  0.11890877  0.14821758  1
  O  O205  1  0.33828874  0.12403168  0.48674522  1
  O  O206  1  0.32299631  0.12096607  0.80691341  1
  O  O207  1  0.33059966  0.62825691  0.13900851  1
  O  O208  1  0.33190043  0.62441243  0.47484612  1
  O  O209  1  0.33301842  0.62778284  0.81881494  1
  O  O210  1  0.66920127  0.12076254  0.13864271  1
  O  O211  1  0.66567803  0.12089031  0.47147155  1
  O  O212  1  0.66622941  0.11976990  0.82804647  1
  O  O213  1  0.66301463  0.62757306  0.15150309  1
  O  O214  1  0.67348684  0.62885171  0.47291182  1
  O  O215  1  0.66187617  0.63066174  0.82284452  1
  O  O216  1  0.07686739  0.01598151  0.26265992  1
  O  O217  1  0.07770591  0.02565159  0.59514246  1
  O  O218  1  0.08037811  0.02209409  0.92521081  1
  O  O219  1  0.07796050  0.52600514  0.25917048  1
  O  O220  1  0.08496086  0.51551308  0.58375817  1
  O  O221  1  0.08385920  0.52302425  0.92362638  1
  O  O222  1  0.41725950  0.00649840  0.25357440  1
  O  O223  1  0.40062600  0.00988174  0.59349011  1
  O  O224  1  0.40181132  0.01789874  0.93070195  1
  O  O225  1  0.41314162  0.52391682  0.25272986  1
  O  O226  1  0.41539465  0.50630361  0.57755082  1
  O  O227  1  0.41621091  0.52077519  0.91586764  1
  O  O228  1  0.74469672  0.01622052  0.25477081  1
  O  O229  1  0.75024505  0.00878240  0.57549407  1
  O  O230  1  0.74188095  0.01016797  0.92839660  1
  O  O231  1  0.75087284  0.52672555  0.24698129  1
  O  O232  1  0.75225484  0.51420561  0.57125639  1
  O  O233  1  0.74973485  0.50730848  0.91765243  1
  O  O234  1  0.24597390  0.25194675  0.25112035  1
  O  O235  1  0.24148746  0.22698500  0.57821214  1
  O  O236  1  0.24457309  0.23408602  0.90809082  1
  O  O237  1  0.24608905  0.72479924  0.24646802  1
  O  O238  1  0.24141971  0.73686160  0.57309878  1
  O  O239  1  0.24653335  0.72897987  0.91352881  1
  O  O240  1  0.58804510  0.23267917  0.25020395  1
  O  O241  1  0.57162494  0.23753997  0.57120512  1
  O  O242  1  0.58491623  0.23977922  0.92004244  1
  O  O243  1  0.57750549  0.72872080  0.24667938  1
  O  O244  1  0.58006908  0.74204912  0.57408611  1
  O  O245  1  0.57085456  0.74117962  0.90634981  1
  O  O246  1  0.91349890  0.22859272  0.24841251  1
  O  O247  1  0.91492521  0.22664737  0.57768190  1
  O  O248  1  0.92083048  0.23623133  0.92192060  1
  O  O249  1  0.91389698  0.72528827  0.25430071  1
  O  O250  1  0.91286534  0.73917046  0.57994150  1
  O  O251  1  0.91930935  0.73503455  0.92047645  1
  O  O252  1  0.08581522  0.48200278  0.09578375  1
  O  O253  1  0.08627337  0.48016490  0.42172075  1
  O  O254  1  0.09075570  0.48214977  0.75761477  1
  O  O255  1  0.09539984  0.98503020  0.09125920  1
  O  O256  1  0.09235657  0.98392306  0.43299879  1
  O  O257  1  0.09357164  0.98035748  0.75747493  1
  O  O258  1  0.41806671  0.50003594  0.08487316  1
  O  O259  1  0.41423302  0.47700891  0.41646144  1
  O  O260  1  0.41327304  0.48990772  0.74625367  1
  O  O261  1  0.42257490  0.97800533  0.08952610  1
  O  O262  1  0.41976112  0.97765850  0.42747469  1
  O  O263  1  0.41989255  0.97519328  0.75987340  1
  O  O264  1  0.75246107  0.48232205  0.08637052  1
  O  O265  1  0.74159010  0.48582124  0.40230197  1
  O  O266  1  0.75251648  0.49639318  0.75032110  1
  O  O267  1  0.75252647  0.97410005  0.08818717  1
  O  O268  1  0.74951578  0.97422079  0.41585423  1
  O  O269  1  0.75515281  0.97554427  0.75220463  1
  O  O270  1  0.24780539  0.26494612  0.08295846  1
  O  O271  1  0.25186792  0.27562689  0.41404178  1
  O  O272  1  0.25237796  0.27252642  0.74096449  1
  O  O273  1  0.25699784  0.77629484  0.08021106  1
  O  O274  1  0.25571444  0.77100046  0.40877636  1
  O  O275  1  0.25381423  0.77711706  0.74499817  1
  O  O276  1  0.59451459  0.26185527  0.07779770  1
  O  O277  1  0.58181081  0.26899012  0.41279125  1
  O  O278  1  0.58040239  0.25424134  0.74340267  1
  O  O279  1  0.58408574  0.77714052  0.07560926  1
  O  O280  1  0.58615975  0.77208904  0.40989042  1
  O  O281  1  0.58816367  0.77486216  0.74355607  1
  O  O282  1  0.91737706  0.26674876  0.08623441  1
  O  O283  1  0.92223665  0.26387296  0.40554170  1
  O  O284  1  0.93391779  0.25816741  0.74460546  1
  O  O285  1  0.91037632  0.76087419  0.08987299  1
  O  O286  1  0.91098781  0.76285196  0.42159784  1
  O  O287  1  0.91750223  0.77218392  0.74938296  1
  O  O288  1  0.24554638  0.48431921  0.08624817  1
  O  O289  1  0.25399280  0.47343148  0.40803112  1
  O  O290  1  0.25105391  0.47910925  0.74303271  1
  O  O291  1  0.25844057  0.97821164  0.07709329  1
  O  O292  1  0.25264194  0.97874891  0.41346050  1
  O  O293  1  0.25645602  0.97277470  0.74135464  1
  O  O294  1  0.59082100  0.48666803  0.07976963  1
  O  O295  1  0.58175602  0.48527717  0.41281188  1
  O  O296  1  0.58058075  0.49863315  0.75076011  1
  O  O297  1  0.58719156  0.97395885  0.07943208  1
  O  O298  1  0.58654437  0.97257997  0.40904635  1
  O  O299  1  0.58955933  0.97870883  0.74435711  1
  O  O300  1  0.91538001  0.48722398  0.08842071  1
  O  O301  1  0.92444743  0.48645369  0.40700784  1
  O  O302  1  0.92852294  0.48755313  0.74855417  1
  O  O303  1  0.91298288  0.98670915  0.08937624  1
  O  O304  1  0.91050121  0.98548445  0.42503548  1
  O  O305  1  0.92329320  0.98266096  0.74879784  1
  O  O306  1  0.08475147  0.27114774  0.09359379  1
  O  O307  1  0.08798513  0.27400429  0.42637690  1
  O  O308  1  0.09427245  0.26532034  0.75984772  1
  O  O309  1  0.09877466  0.76177071  0.09345474  1
  O  O310  1  0.09235409  0.76155278  0.42527216  1
  O  O311  1  0.09026899  0.77207305  0.75573832  1
  O  O312  1  0.41658593  0.24734912  0.08116375  1
  O  O313  1  0.41695866  0.27131289  0.42283305  1
  O  O314  1  0.41014571  0.25765530  0.74335888  1
  O  O315  1  0.42281616  0.77162796  0.08816044  1
  O  O316  1  0.41888024  0.77498878  0.41610096  1
  O  O317  1  0.42149436  0.77298878  0.75476741  1
  O  O318  1  0.75278560  0.27177267  0.08733537  1
  O  O319  1  0.74268165  0.26374868  0.40339103  1
  O  O320  1  0.75243014  0.25549474  0.74842174  1
  O  O321  1  0.75186094  0.77101049  0.08311362  1
  O  O322  1  0.74909860  0.77660941  0.41428435  1
  O  O323  1  0.75242796  0.77539501  0.74602029  1
  O  O324  1  0.24811279  -0.00031851  0.24552604  1
  O  O325  1  0.23981908  0.02388626  0.57698631  1
  O  O326  1  0.24075402  0.01429551  0.90611164  1
  O  O327  1  0.24626565  0.52231027  0.24836181  1
  O  O328  1  0.24197924  0.51391770  0.57062307  1
  O  O329  1  0.24795402  0.51798535  0.91016242  1
  O  O330  1  0.58555000  0.01711566  0.24522119  1
  O  O331  1  0.57286519  0.01175919  0.56635994  1
  O  O332  1  0.58029007  0.00140049  0.91635442  1
  O  O333  1  0.58198840  0.52027312  0.24913148  1
  O  O334  1  0.57897542  0.50962966  0.57520856  1
  O  O335  1  0.57792893  0.51501929  0.91188010  1
  O  O336  1  0.91512452  0.01722740  0.25626772  1
  O  O337  1  0.91786528  0.02100852  0.58334320  1
  O  O338  1  0.91847074  0.01404586  0.92262370  1
  O  O339  1  0.91363739  0.52966507  0.24849098  1
  O  O340  1  0.91262984  0.51761855  0.57482320  1
  O  O341  1  0.92059012  0.51473063  0.92003670  1
  O  O342  1  0.07154486  0.23907837  0.26432342  1
  O  O343  1  0.07920852  0.22164685  0.59468576  1
  O  O344  1  0.07934105  0.22372753  0.92499156  1
  O  O345  1  0.08132702  0.72060417  0.25916432  1
  O  O346  1  0.08497822  0.73878717  0.58549891  1
  O  O347  1  0.08636540  0.72884236  0.92590408  1
  O  O348  1  0.41658499  0.24291164  0.25438320  1
  O  O349  1  0.40761578  0.23397142  0.58523423  1
  O  O350  1  0.40866236  0.23187894  0.91951984  1
  O  O351  1  0.41262719  0.72195153  0.25121416  1
  O  O352  1  0.41485403  0.74804925  0.58143179  1
  O  O353  1  0.41190584  0.72859706  0.92363848  1
  O  O354  1  0.74912302  0.22650238  0.24875160  1
  O  O355  1  0.74889223  0.23546935  0.56981492  1
  O  O356  1  0.74397886  0.24112055  0.92835263  1
  O  O357  1  0.74876089  0.72763281  0.25374779  1
  O  O358  1  0.75416684  0.74312856  0.57484345  1
  O  O359  1  0.75639276  0.74438578  0.91110205  1
