# generated using pymatgen
data_Ba17Sr5La8Pr42Mn72O216
_symmetry_space_group_name_H-M   'P 1'
_cell_length_a   16.67197758
_cell_length_b   15.70246158
_cell_length_c   16.81989670
_cell_angle_alpha   90.01320947
_cell_angle_beta   90.06591778
_cell_angle_gamma   89.99875083
_symmetry_Int_Tables_number   1
_chemical_formula_structural   Ba17Sr5La8Pr42Mn72O216
_chemical_formula_sum   'Ba17 Sr5 La8 Pr42 Mn72 O216'
_cell_volume   4403.29601686
_cell_formula_units_Z   1
loop_
 _symmetry_equiv_pos_site_id
 _symmetry_equiv_pos_as_xyz
  1  'x, y, z'
loop_
 _atom_site_type_symbol
 _atom_site_label
 _atom_site_symmetry_multiplicity
 _atom_site_fract_x
 _atom_site_fract_y
 _atom_site_fract_z
 _atom_site_occupancy
  Ba  Ba0  1  0.67010480  0.87595043  0.00224031  1
  Ba  Ba1  1  0.33276104  0.62395995  0.33091137  1
  Ba  Ba2  1  0.00259689  0.87455570  0.66488094  1
  Ba  Ba3  1  0.66715464  0.37378192  0.00263518  1
  Ba  Ba4  1  0.16474134  0.37522066  0.49734655  1
  Ba  Ba5  1  0.50342771  0.87479053  0.83373003  1
  Ba  Ba6  1  0.16368752  0.87542268  0.16258715  1
  Ba  Ba7  1  0.00150282  0.62828219  0.66454418  1
  Ba  Ba8  1  0.83766987  0.62476635  0.83431938  1
  Ba  Ba9  1  0.33026315  0.37649708  0.33589240  1
  Ba  Ba10  1  0.50051131  0.12168781  0.49991553  1
  Ba  Ba11  1  0.66389910  0.12425846  0.33686063  1
  Ba  Ba12  1  0.66689025  0.37411890  0.67014830  1
  Ba  Ba13  1  0.33371859  0.62554478  0.99956369  1
  Ba  Ba14  1  -0.00189816  0.12670979  0.33163697  1
  Ba  Ba15  1  0.50037972  0.62452569  0.16923003  1
  Ba  Ba16  1  0.33163487  0.37394343  0.66637112  1
  Sr  Sr17  1  0.50066375  0.87558106  0.49988879  1
  Sr  Sr18  1  -0.00146982  0.62206633  0.33139435  1
  Sr  Sr19  1  0.66552227  0.62728235  0.33190402  1
  Sr  Sr20  1  -0.00363384  0.37501345  0.33637863  1
  Sr  Sr21  1  0.83170941  0.87654382  0.16722194  1
  La  La22  1  0.16561130  0.12574009  0.16870710  1
  La  La23  1  0.83673273  0.12584518  0.83497035  1
  La  La24  1  0.83246043  0.37820214  0.49861653  1
  La  La25  1  0.83096177  0.12449633  0.17018207  1
  La  La26  1  0.33003616  0.37461037  0.00290747  1
  La  La27  1  0.83314145  0.62413842  0.50323889  1
  La  La28  1  0.49662852  0.37708370  0.83108352  1
  La  La29  1  0.50143259  0.12499516  0.17387769  1
  Pr  Pr30  1  0.66701693  0.62846155  0.99904681  1
  Pr  Pr31  1  -0.00312131  0.87544923  0.33477107  1
  Pr  Pr32  1  -0.00389316  0.37609879  -0.00057335  1
  Pr  Pr33  1  0.33659283  0.12220279  0.66269688  1
  Pr  Pr34  1  0.17056451  0.12548962  0.83108293  1
  Pr  Pr35  1  0.16918044  0.62482550  0.83256543  1
  Pr  Pr36  1  0.00341038  0.12540350  0.99990312  1
  Pr  Pr37  1  0.17147143  0.62153296  0.49859534  1
  Pr  Pr38  1  0.17008794  0.12802190  0.49892180  1
  Pr  Pr39  1  0.16752542  0.62419160  0.16953231  1
  Pr  Pr40  1  0.83323397  0.87391942  0.83129921  1
  Pr  Pr41  1  0.66664585  0.12298560  1.00332130  1
  Pr  Pr42  1  0.33424458  0.87105834  0.33415836  1
  Pr  Pr43  1  0.33283183  0.12063513  0.99876875  1
  Pr  Pr44  1  0.83074255  0.37363741  0.17082006  1
  Pr  Pr45  1  0.49827689  0.62516902  0.49962812  1
  Pr  Pr46  1  0.83338446  0.87163265  0.49670965  1
  Pr  Pr47  1  0.33784668  0.87479167  0.00404383  1
  Pr  Pr48  1  0.17098242  0.87382338  0.83029194  1
  Pr  Pr49  1  0.83037639  0.62503766  0.16715960  1
  Pr  Pr50  1  0.66667145  0.87287220  0.33274336  1
  Pr  Pr51  1  0.16295131  0.87135031  0.49161329  1
  Pr  Pr52  1  0.33174340  0.12656055  0.33140813  1
  Pr  Pr53  1  0.66875566  0.87931623  0.67152816  1
  Pr  Pr54  1  0.66564737  0.62899465  0.66438836  1
  Pr  Pr55  1  0.50158188  0.87237902  0.16534153  1
  Pr  Pr56  1  0.66485539  0.12213680  0.66166818  1
  Pr  Pr57  1  0.66298630  0.37774935  0.33942581  1
  Pr  Pr58  1  0.83459751  0.12630979  0.50470428  1
  Pr  Pr59  1  0.49336053  0.37573578  0.17035449  1
  Pr  Pr60  1  0.00025707  0.37736083  0.66783988  1
  Pr  Pr61  1  0.33802328  0.87729762  0.66705089  1
  Pr  Pr62  1  0.00392533  0.12373497  0.65886869  1
  Pr  Pr63  1  0.16515590  0.37724617  0.82689571  1
  Pr  Pr64  1  0.83309852  0.37603020  0.82931077  1
  Pr  Pr65  1  0.33631544  0.62830300  0.66480006  1
  Pr  Pr66  1  0.15822026  0.37793077  0.16878335  1
  Pr  Pr67  1  0.50539757  0.62135944  0.83919076  1
  Pr  Pr68  1  0.00407715  0.62651632  0.99518168  1
  Pr  Pr69  1  -0.00402415  0.87372457  0.00208852  1
  Pr  Pr70  1  0.49763932  0.37377982  0.49665056  1
  Pr  Pr71  1  0.50353032  0.12744002  0.83365321  1
  Mn  Mn72  1  -0.00268418  -0.00044444  0.16517278  1
  Mn  Mn73  1  -0.00010651  -0.00023277  0.49822808  1
  Mn  Mn74  1  0.00328472  0.00175627  0.83260597  1
  Mn  Mn75  1  -0.00313583  0.49951285  0.16502722  1
  Mn  Mn76  1  -0.00145055  0.50126713  0.49771441  1
  Mn  Mn77  1  0.00259637  0.49935218  0.83418736  1
  Mn  Mn78  1  0.33249807  0.00091989  0.16621376  1
  Mn  Mn79  1  0.33132769  -0.00322439  0.49864657  1
  Mn  Mn80  1  0.33440853  0.00047461  0.83272206  1
  Mn  Mn81  1  0.33043612  0.49719756  0.16606796  1
  Mn  Mn82  1  0.33470718  0.50256057  0.50108534  1
  Mn  Mn83  1  0.33326583  0.50038005  0.83332652  1
  Mn  Mn84  1  0.66585975  0.00048553  0.16798796  1
  Mn  Mn85  1  0.66873671  -0.00326707  0.50146827  1
  Mn  Mn86  1  0.66955630  0.00360588  0.83401999  1
  Mn  Mn87  1  0.66694942  0.49872619  0.17005271  1
  Mn  Mn88  1  0.66472094  0.50223251  0.50100536  1
  Mn  Mn89  1  0.66912596  0.49966456  0.83548389  1
  Mn  Mn90  1  -0.00225331  0.25314688  0.16471886  1
  Mn  Mn91  1  -0.00088585  0.24936915  0.49964367  1
  Mn  Mn92  1  0.00281122  0.24828261  0.83148351  1
  Mn  Mn93  1  -0.00367635  0.74823430  0.16557525  1
  Mn  Mn94  1  -0.00069919  0.74953433  0.49550248  1
  Mn  Mn95  1  0.00384049  0.75194677  0.83454784  1
  Mn  Mn96  1  0.33027047  0.24978123  0.16493243  1
  Mn  Mn97  1  0.33379075  0.24805501  0.50032681  1
  Mn  Mn98  1  0.33347607  0.24715841  0.83566025  1
  Mn  Mn99  1  0.33184211  0.75132406  0.16649179  1
  Mn  Mn100  1  0.33337316  0.75125504  0.50015983  1
  Mn  Mn101  1  0.33496157  0.75150290  0.83129138  1
  Mn  Mn102  1  0.66494205  0.25131098  0.16967215  1
  Mn  Mn103  1  0.66745587  0.25043276  0.50347721  1
  Mn  Mn104  1  0.66821879  0.24813816  0.83563141  1
  Mn  Mn105  1  0.66742227  0.74923458  0.16746216  1
  Mn  Mn106  1  0.66520692  0.75016355  0.49941846  1
  Mn  Mn107  1  0.66996153  0.75026984  0.83244656  1
  Mn  Mn108  1  0.16578557  0.24997829  -0.00156287  1
  Mn  Mn109  1  0.16452302  0.24871359  0.33259342  1
  Mn  Mn110  1  0.16665976  0.24866795  0.66702741  1
  Mn  Mn111  1  0.16641153  0.75048512  -0.00268350  1
  Mn  Mn112  1  0.16299691  0.74956290  0.32932474  1
  Mn  Mn113  1  0.17068455  0.75178462  0.66359349  1
  Mn  Mn114  1  0.49846388  0.24806049  0.00195629  1
  Mn  Mn115  1  0.49837379  0.24946275  0.33456182  1
  Mn  Mn116  1  0.49977892  0.25031537  0.66858489  1
  Mn  Mn117  1  0.50101244  0.75008172  -0.00021653  1
  Mn  Mn118  1  0.50011430  0.75313642  0.33438430  1
  Mn  Mn119  1  0.50189195  0.74994853  0.66637270  1
  Mn  Mn120  1  0.83512699  0.24921302  0.00118366  1
  Mn  Mn121  1  0.83017903  0.25062761  0.33553550  1
  Mn  Mn122  1  0.83732992  0.24948641  0.66940463  1
  Mn  Mn123  1  0.83559220  0.74951772  0.00225274  1
  Mn  Mn124  1  0.83245441  0.74851219  0.33170850  1
  Mn  Mn125  1  0.83299560  0.75137442  0.66490144  1
  Mn  Mn126  1  0.16545289  0.00189487  -0.00355547  1
  Mn  Mn127  1  0.16560247  -0.00114566  0.33106383  1
  Mn  Mn128  1  0.16934497  -0.00096229  0.66389502  1
  Mn  Mn129  1  0.16577598  0.49765150  -0.00146052  1
  Mn  Mn130  1  0.16179652  0.50102662  0.33255044  1
  Mn  Mn131  1  0.16747717  0.50174913  0.66594561  1
  Mn  Mn132  1  0.49997344  0.00205550  0.00303035  1
  Mn  Mn133  1  0.49753254  -0.00218591  0.33341974  1
  Mn  Mn134  1  0.50133288  -0.00185114  0.66740278  1
  Mn  Mn135  1  0.50080464  0.49721150  0.00072999  1
  Mn  Mn136  1  0.50105603  0.50057768  0.33479536  1
  Mn  Mn137  1  0.50001112  0.50223735  0.66822666  1
  Mn  Mn138  1  0.83659169  0.00385362  0.00087543  1
  Mn  Mn139  1  0.83125219  -0.00144911  0.33359971  1
  Mn  Mn140  1  0.83634559  0.00040334  0.66847934  1
  Mn  Mn141  1  0.83497947  0.49852183  0.00256992  1
  Mn  Mn142  1  0.83068247  0.50207248  0.33359840  1
  Mn  Mn143  1  0.83364219  0.50069538  0.66654431  1
  O  O144  1  0.16846117  0.12739643  0.02575654  1
  O  O145  1  0.17138488  0.12041449  0.35334099  1
  O  O146  1  0.16716672  0.12369049  0.68901763  1
  O  O147  1  0.16070561  0.61959815  0.02577685  1
  O  O148  1  0.16221631  0.62770294  0.35185195  1
  O  O149  1  0.17483100  0.62883642  0.68944509  1
  O  O150  1  0.49795794  0.12580353  0.03000521  1
  O  O151  1  0.49301658  0.12243111  0.34305317  1
  O  O152  1  0.49992165  0.12189494  0.68727064  1
  O  O153  1  0.50981182  0.62414109  0.01078977  1
  O  O154  1  0.50461337  0.62986188  0.35445503  1
  O  O155  1  0.50056773  0.62657878  0.69473155  1
  O  O156  1  0.84941518  0.12781116  0.02589123  1
  O  O157  1  0.83179442  0.12250800  0.36015677  1
  O  O158  1  0.84597760  0.12458812  0.69175183  1
  O  O159  1  0.84699638  0.62041713  0.02238048  1
  O  O160  1  0.83280341  0.62575189  0.36033156  1
  O  O161  1  0.82965622  0.62632915  0.67648174  1
  O  O162  1  0.16027542  0.37481528  0.31465274  1
  O  O163  1  0.16062472  0.37332962  0.65438584  1
  O  O164  1  0.16478945  0.37077263  0.96932949  1
  O  O165  1  0.16235103  0.87548340  0.31825518  1
  O  O166  1  0.17593277  0.87615100  0.63618967  1
  O  O167  1  0.16013726  0.88113059  0.97322970  1
  O  O168  1  0.50301766  0.37287482  0.31807228  1
  O  O169  1  0.50007707  0.37999259  0.64197310  1
  O  O170  1  0.49283515  0.36898772  0.97361853  1
  O  O171  1  0.49226078  0.87741067  0.31032071  1
  O  O172  1  0.50235950  0.87366161  0.65001797  1
  O  O173  1  0.49241112  0.87780678  0.98903177  1
  O  O174  1  0.82327696  0.37825651  0.31421980  1
  O  O175  1  0.83899252  0.37263634  0.64552318  1
  O  O176  1  0.83610681  0.37164286  0.97206219  1
  O  O177  1  0.82981671  0.87292610  0.31429969  1
  O  O178  1  0.82450684  0.87778877  0.64325044  1
  O  O179  1  0.83789911  0.88183311  0.97492358  1
  O  O180  1  0.00726363  0.37615170  0.18709101  1
  O  O181  1  -0.00428389  0.37184679  0.52346127  1
  O  O182  1  0.01178496  0.37117538  0.85661239  1
  O  O183  1  -0.00273695  0.86956683  0.19177166  1
  O  O184  1  0.00363344  0.87590695  0.50916431  1
  O  O185  1  0.01084596  0.87825340  0.85860117  1
  O  O186  1  0.33688880  0.37140696  0.17899722  1
  O  O187  1  0.34149428  0.37834099  0.51068738  1
  O  O188  1  0.33409433  0.36872195  0.85754020  1
  O  O189  1  0.33642897  0.88018754  0.18826783  1
  O  O190  1  0.32352597  0.87350187  0.52524984  1
  O  O191  1  0.32823464  0.87857605  0.86005326  1
  O  O192  1  0.67818474  0.37474661  0.19262390  1
  O  O193  1  0.66552100  0.37645965  0.51546300  1
  O  O194  1  0.67470063  0.37159014  0.84670411  1
  O  O195  1  0.66955131  0.87555108  0.18480576  1
  O  O196  1  0.67500336  0.87268669  0.52857839  1
  O  O197  1  0.67700963  0.87825121  0.84550770  1
  O  O198  1  -0.00724880  0.13095980  0.14390968  1
  O  O199  1  -0.00618452  0.12322351  0.48805706  1
  O  O200  1  -0.00195702  0.12601477  0.80239112  1
  O  O201  1  -0.00809531  0.62155105  0.13731440  1
  O  O202  1  -0.00889112  0.62858925  0.48252442  1
  O  O203  1  0.00625113  0.62572071  0.82149015  1
  O  O204  1  0.32939601  0.12643256  0.14082432  1
  O  O205  1  0.32864856  0.11795867  0.47608207  1
  O  O206  1  0.32945810  0.12319006  0.80642798  1
  O  O207  1  0.32191768  0.62126581  0.15582928  1
  O  O208  1  0.33639201  0.62877153  0.48671169  1
  O  O209  1  0.32942789  0.62949622  0.80958207  1
  O  O210  1  0.65622679  0.12760385  0.14941094  1
  O  O211  1  0.67486074  0.12379959  0.49209528  1
  O  O212  1  0.66582872  0.12612982  0.80779355  1
  O  O213  1  0.66740831  0.62108536  0.14469746  1
  O  O214  1  0.66291300  0.62702689  0.47862266  1
  O  O215  1  0.66144373  0.62509358  0.81131980  1
  O  O216  1  0.08517824  0.01651937  0.24110004  1
  O  O217  1  0.08667758  0.02027091  0.58201097  1
  O  O218  1  0.08539601  0.03079138  0.91331216  1
  O  O219  1  0.08363894  0.51902183  0.23811770  1
  O  O220  1  0.08996979  0.51822052  0.57617142  1
  O  O221  1  0.08871364  0.52014118  0.91322127  1
  O  O222  1  0.41049079  0.02207172  0.24950057  1
  O  O223  1  0.41032802  0.00896319  0.58834654  1
  O  O224  1  0.41682241  0.02364586  0.91974294  1
  O  O225  1  0.42037735  0.50219473  0.24869785  1
  O  O226  1  0.41920910  0.52670554  0.58642152  1
  O  O227  1  0.42403533  0.51214884  0.90875337  1
  O  O228  1  0.74889795  0.01449455  0.24912789  1
  O  O229  1  0.75555085  0.02377374  0.58836456  1
  O  O230  1  0.75393969  0.02807922  0.91841714  1
  O  O231  1  0.75240362  0.52345981  0.24944842  1
  O  O232  1  0.74690954  0.51937016  0.58074374  1
  O  O233  1  0.74902275  0.51929828  0.92705264  1
  O  O234  1  0.25134054  0.22854007  0.24951175  1
  O  O235  1  0.25090882  0.22703201  0.58685276  1
  O  O236  1  0.25513630  0.22499392  0.92308090  1
  O  O237  1  0.24322665  0.73942115  0.24509148  1
  O  O238  1  0.25247695  0.72577834  0.58307457  1
  O  O239  1  0.24429745  0.73760018  0.90494610  1
  O  O240  1  0.57802991  0.24293774  0.24883535  1
  O  O241  1  0.58975839  0.23377663  0.59128402  1
  O  O242  1  0.58305295  0.22401195  0.92388406  1
  O  O243  1  0.58686807  0.74952208  0.25423060  1
  O  O244  1  0.58078201  0.72647427  0.58065035  1
  O  O245  1  0.58677960  0.73247488  0.91450225  1
  O  O246  1  0.91049259  0.24362852  0.24599879  1
  O  O247  1  0.92043555  0.22905513  0.58854744  1
  O  O248  1  0.92248669  0.23013504  0.91437895  1
  O  O249  1  0.91361841  0.72678572  0.24717781  1
  O  O250  1  0.90913910  0.74417376  0.57458532  1
  O  O251  1  0.92715291  0.74295265  0.92596741  1
  O  O252  1  0.07962285  0.47546777  0.07587251  1
  O  O253  1  0.07497909  0.49228360  0.41076868  1
  O  O254  1  0.08148126  0.48248518  0.74771853  1
  O  O255  1  0.07700843  0.99195498  0.07201043  1
  O  O256  1  0.08211265  0.98252986  0.41322068  1
  O  O257  1  0.09338208  0.98564222  0.75281642  1
  O  O258  1  0.41253143  0.47992949  0.07953012  1
  O  O259  1  0.42414677  0.49230373  0.42551465  1
  O  O260  1  0.41732803  0.48675038  0.75082949  1
  O  O261  1  0.41612095  0.98198307  0.08707046  1
  O  O262  1  0.41035939  0.97761296  0.41378621  1
  O  O263  1  0.41480489  0.98663064  0.74838646  1
  O  O264  1  0.75653383  0.48685120  0.09159110  1
  O  O265  1  0.74563935  0.48259227  0.41656663  1
  O  O266  1  0.75631188  0.48678376  0.75648732  1
  O  O267  1  0.75116942  1.00466628  0.08324704  1
  O  O268  1  0.75021855  0.97502963  0.41910681  1
  O  O269  1  0.75432157  0.98568235  0.74998423  1
  O  O270  1  0.24093225  0.27313195  0.08670428  1
  O  O271  1  0.24886893  0.25114940  0.41892099  1
  O  O272  1  0.24140264  0.26162956  0.76227178  1
  O  O273  1  0.25280380  0.76821147  0.07210774  1
  O  O274  1  0.24636704  0.76809134  0.41679990  1
  O  O275  1  0.25533722  0.77644209  0.74545197  1
  O  O276  1  0.57349448  0.26802859  0.09156915  1
  O  O277  1  0.58257303  0.26820067  0.41979780  1
  O  O278  1  0.57584743  0.26165920  0.75999895  1
  O  O279  1  0.58087175  0.76444260  0.08848760  1
  O  O280  1  0.58525182  0.77538062  0.41633483  1
  O  O281  1  0.59379039  0.76333164  0.73934353  1
  O  O282  1  0.91510443  0.27853248  0.08308529  1
  O  O283  1  0.90776099  0.26674922  0.42444146  1
  O  O284  1  0.92045821  0.27742055  0.75197837  1
  O  O285  1  0.91438579  0.77277985  0.08499179  1
  O  O286  1  0.91530144  0.77262586  0.41238847  1
  O  O287  1  0.91723189  0.76892930  0.75883725  1
  O  O288  1  0.24320425  0.47380803  0.08123316  1
  O  O289  1  0.24557539  0.49972388  0.42100148  1
  O  O290  1  0.24300536  0.48732216  0.75729625  1
  O  O291  1  0.25669611  0.98636379  0.07200640  1
  O  O292  1  0.24860835  0.97558550  0.41670455  1
  O  O293  1  0.25332659  0.97764834  0.74487216  1
  O  O294  1  0.57695952  0.47770047  0.09458900  1
  O  O295  1  0.58029093  0.47963409  0.42285349  1
  O  O296  1  0.57650240  0.48673352  0.75747610  1
  O  O297  1  0.57931225  0.98684495  0.08693611  1
  O  O298  1  0.58542604  0.97860899  0.41367569  1
  O  O299  1  0.59031563  0.99011780  0.74649882  1
  O  O300  1  0.91473290  0.46978739  0.08543435  1
  O  O301  1  0.90865349  0.48207713  0.41916440  1
  O  O302  1  0.92015621  0.47686585  0.75414376  1
  O  O303  1  0.91768970  0.97919425  0.08064051  1
  O  O304  1  0.91347708  0.97719086  0.41575813  1
  O  O305  1  0.91334923  0.97976200  0.75782014  1
  O  O306  1  0.07696772  0.26795144  0.07218337  1
  O  O307  1  0.07741503  0.25680395  0.41473815  1
  O  O308  1  0.08001458  0.26780735  0.74547033  1
  O  O309  1  0.07335950  0.76239665  0.07414700  1
  O  O310  1  0.07874072  0.76886612  0.40890705  1
  O  O311  1  0.09415343  0.76577091  0.75354807  1
  O  O312  1  0.41022446  0.26852386  0.07834732  1
  O  O313  1  0.42037167  0.26064427  0.42037170  1
  O  O314  1  0.41816693  0.26134891  0.75711721  1
  O  O315  1  0.41527106  0.76796804  0.08399695  1
  O  O316  1  0.41392586  0.77083528  0.41747587  1
  O  O317  1  0.41269416  0.76603157  0.74305649  1
  O  O318  1  0.75191266  0.25621219  0.09053110  1
  O  O319  1  0.74739717  0.27105919  0.41924908  1
  O  O320  1  0.76306583  0.25894705  0.75753817  1
  O  O321  1  0.75127354  0.75004648  0.08437315  1
  O  O322  1  0.74922585  0.77125195  0.41787913  1
  O  O323  1  0.75304873  0.77013424  0.74997634  1
  O  O324  1  0.25041686  0.02187825  0.24831564  1
  O  O325  1  0.24948076  0.02626091  0.58166760  1
  O  O326  1  0.24786348  0.02380742  0.91232950  1
  O  O327  1  0.24006318  0.50599445  0.24239249  1
  O  O328  1  0.25426230  0.52178881  0.58656087  1
  O  O329  1  0.24771592  0.51228212  0.91570628  1
  O  O330  1  0.57523955  0.00581782  0.24553089  1
  O  O331  1  0.59100668  0.00948415  0.58891006  1
  O  O332  1  0.58472840  0.02481254  0.91884975  1
  O  O333  1  0.59035670  0.50423038  0.25926155  1
  O  O334  1  0.58233104  0.52747001  0.58619543  1
  O  O335  1  0.58775570  0.51568325  0.91919197  1
  O  O336  1  0.90983751  0.01280914  0.24720808  1
  O  O337  1  0.91760081  0.01723460  0.58561457  1
  O  O338  1  0.92126772  0.02295034  0.91889364  1
  O  O339  1  0.91131760  0.51362281  0.24606197  1
  O  O340  1  0.91375397  0.50986396  0.57984455  1
  O  O341  1  0.92684442  0.50674822  0.92425333  1
  O  O342  1  0.08995696  0.23680274  0.23621321  1
  O  O343  1  0.08545467  0.22670724  0.58100059  1
  O  O344  1  0.08783133  0.22205213  0.91038084  1
  O  O345  1  0.08159219  0.72659365  0.24149631  1
  O  O346  1  0.09219017  0.73783191  0.57151019  1
  O  O347  1  0.08783553  0.72753111  0.91485571  1
  O  O348  1  0.41442178  0.23164545  0.24647175  1
  O  O349  1  0.41313171  0.23256181  0.58877638  1
  O  O350  1  0.41815901  0.22044085  0.91608517  1
  O  O351  1  0.41602833  0.74715260  0.25180068  1
  O  O352  1  0.41892873  0.73179590  0.58423514  1
  O  O353  1  0.42072673  0.73586450  0.90982151  1
  O  O354  1  0.75203328  0.23189531  0.24901483  1
  O  O355  1  0.75633242  0.22858184  0.58795058  1
  O  O356  1  0.75175347  0.22161541  0.92332098  1
  O  O357  1  0.75118895  0.73055549  0.24925317  1
  O  O358  1  0.74455731  0.72827564  0.58165487  1
  O  O359  1  0.75102000  0.73381223  0.92157165  1
