# generated using pymatgen
data_Ba17Sr5La8Pr42Mn72O216
_symmetry_space_group_name_H-M   'P 1'
_cell_length_a   16.67697032
_cell_length_b   15.70537575
_cell_length_c   16.82156542
_cell_angle_alpha   90.00933017
_cell_angle_beta   90.02146999
_cell_angle_gamma   90.02362768
_symmetry_Int_Tables_number   1
_chemical_formula_structural   Ba17Sr5La8Pr42Mn72O216
_chemical_formula_sum   'Ba17 Sr5 La8 Pr42 Mn72 O216'
_cell_volume   4405.87146520
_cell_formula_units_Z   1
loop_
 _symmetry_equiv_pos_site_id
 _symmetry_equiv_pos_as_xyz
  1  'x, y, z'
loop_
 _atom_site_type_symbol
 _atom_site_label
 _atom_site_symmetry_multiplicity
 _atom_site_fract_x
 _atom_site_fract_y
 _atom_site_fract_z
 _atom_site_occupancy
  Ba  Ba0  1  0.32915488  0.37449844  0.33580869  1
  Ba  Ba1  1  0.49792153  0.37598725  0.16567965  1
  Ba  Ba2  1  0.83190877  0.37574800  0.50127202  1
  Ba  Ba3  1  0.50073932  0.62846833  0.49801849  1
  Ba  Ba4  1  0.66589226  0.37323419  0.33512079  1
  Ba  Ba5  1  0.49952224  0.87610672  0.83223561  1
  Ba  Ba6  1  0.83362659  0.12340744  0.16873982  1
  Ba  Ba7  1  0.00293538  0.62516061  0.99961991  1
  Ba  Ba8  1  -0.00034352  0.87312250  0.00112244  1
  Ba  Ba9  1  0.32975163  0.87653638  0.33392137  1
  Ba  Ba10  1  0.66288138  0.87415928  0.00068335  1
  Ba  Ba11  1  0.83693814  0.62478759  0.50246351  1
  Ba  Ba12  1  0.50008630  0.12532290  0.83393383  1
  Ba  Ba13  1  0.49816180  0.37548943  0.49686913  1
  Ba  Ba14  1  0.33198004  0.37444288  0.66591441  1
  Ba  Ba15  1  0.17018640  0.62564508  0.83387539  1
  Ba  Ba16  1  -0.00111151  0.37708770  -0.00112958  1
  Sr  Sr17  1  0.49852439  0.37333684  0.82905187  1
  Sr  Sr18  1  0.49808706  0.87632535  0.50028864  1
  Sr  Sr19  1  0.33052279  0.87510951  0.66794035  1
  Sr  Sr20  1  0.16197302  0.37331070  0.49620957  1
  Sr  Sr21  1  0.33802632  0.12584305  0.99778339  1
  La  La22  1  0.84005737  0.62666499  0.17048205  1
  La  La23  1  0.66465434  0.12728588  0.33434864  1
  La  La24  1  0.33584025  0.12559670  0.33134514  1
  La  La25  1  0.33933042  0.62512166  0.33291311  1
  La  La26  1  0.83573652  0.12465346  0.83976593  1
  La  La27  1  0.67041672  0.61978652  0.33601677  1
  La  La28  1  0.16350171  0.87764334  0.16405656  1
  La  La29  1  0.16296714  0.37626678  0.82927453  1
  Pr  Pr30  1  -0.00500006  0.37677584  0.66843362  1
  Pr  Pr31  1  0.82658335  0.37516300  0.16575005  1
  Pr  Pr32  1  0.66628097  0.87563844  0.33491825  1
  Pr  Pr33  1  0.66697996  0.62299284  0.99904120  1
  Pr  Pr34  1  0.66682482  0.62659891  0.66191922  1
  Pr  Pr35  1  -0.00418302  0.87345840  0.67103316  1
  Pr  Pr36  1  0.32964224  0.37117767  0.00037832  1
  Pr  Pr37  1  0.50874324  0.62733028  0.17161549  1
  Pr  Pr38  1  0.66342187  0.37129553  0.00315127  1
  Pr  Pr39  1  0.17376325  0.62607382  0.50354395  1
  Pr  Pr40  1  0.17498711  0.12482802  0.83485851  1
  Pr  Pr41  1  0.16258630  0.87410087  0.83122986  1
  Pr  Pr42  1  0.00552058  0.62218079  0.33233179  1
  Pr  Pr43  1  0.16385514  0.37347701  0.16436589  1
  Pr  Pr44  1  0.83330910  0.12814389  0.50366382  1
  Pr  Pr45  1  0.15991908  0.87601448  0.49707069  1
  Pr  Pr46  1  0.00969698  0.62443912  0.66297519  1
  Pr  Pr47  1  -0.00564874  0.37377868  0.33498699  1
  Pr  Pr48  1  0.50248026  0.12346334  0.16483435  1
  Pr  Pr49  1  0.33108430  0.87832405  0.00028479  1
  Pr  Pr50  1  0.00604599  0.12607325  0.66270359  1
  Pr  Pr51  1  0.00203153  0.12805999  0.33144294  1
  Pr  Pr52  1  0.66565349  0.87046905  0.67379029  1
  Pr  Pr53  1  0.49639612  0.12533982  0.50012282  1
  Pr  Pr54  1  0.00471389  0.12485703  0.99444400  1
  Pr  Pr55  1  0.83282016  0.87314746  0.83439137  1
  Pr  Pr56  1  0.83438720  0.62505349  0.83639256  1
  Pr  Pr57  1  -0.00793222  0.87671236  0.33353793  1
  Pr  Pr58  1  0.66337142  0.12326550  0.66537124  1
  Pr  Pr59  1  0.66527607  0.12650343  0.99675211  1
  Pr  Pr60  1  0.48996178  0.87365715  0.15881120  1
  Pr  Pr61  1  0.34242497  0.12324095  0.66623286  1
  Pr  Pr62  1  0.66425258  0.37955169  0.66772803  1
  Pr  Pr63  1  0.34006365  0.62392169  0.99700665  1
  Pr  Pr64  1  0.17087627  0.62493853  0.16643467  1
  Pr  Pr65  1  0.83156658  0.37665694  0.83191700  1
  Pr  Pr66  1  0.82934930  0.87403667  0.50240008  1
  Pr  Pr67  1  0.17537535  0.12373206  0.50102362  1
  Pr  Pr68  1  0.34217987  0.62741398  0.66329168  1
  Pr  Pr69  1  0.16686555  0.12460523  0.16526636  1
  Pr  Pr70  1  0.82620684  0.87470240  0.16326574  1
  Pr  Pr71  1  0.49936279  0.62436986  0.82951116  1
  Mn  Mn72  1  -0.00040590  0.00095818  0.16698735  1
  Mn  Mn73  1  -0.00222889  0.00060600  0.50062975  1
  Mn  Mn74  1  0.00066674  0.00053335  0.83118639  1
  Mn  Mn75  1  0.00145876  0.49970997  0.16863847  1
  Mn  Mn76  1  0.00266587  0.49975046  0.49887773  1
  Mn  Mn77  1  -0.00012520  0.49992029  0.83169418  1
  Mn  Mn78  1  0.33179171  0.00270144  0.16576866  1
  Mn  Mn79  1  0.33182629  -0.00197029  0.50066363  1
  Mn  Mn80  1  0.33195376  -0.00126866  0.83292403  1
  Mn  Mn81  1  0.33215086  0.49955216  0.16407368  1
  Mn  Mn82  1  0.33095147  0.50134671  0.49946296  1
  Mn  Mn83  1  0.33432950  0.49989289  0.83301178  1
  Mn  Mn84  1  0.66408686  0.00020666  0.16875486  1
  Mn  Mn85  1  0.66728814  -0.00154080  0.50069017  1
  Mn  Mn86  1  0.67015114  0.00036481  0.83243743  1
  Mn  Mn87  1  0.66819880  0.50009452  0.16417231  1
  Mn  Mn88  1  0.66707501  0.50169460  0.50031662  1
  Mn  Mn89  1  0.66686838  0.50118629  0.83382373  1
  Mn  Mn90  1  0.00006898  0.24987772  0.16538881  1
  Mn  Mn91  1  0.00052834  0.24807192  0.49925319  1
  Mn  Mn92  1  0.00040764  0.24834204  0.83048410  1
  Mn  Mn93  1  0.00192521  0.74981330  0.17033312  1
  Mn  Mn94  1  0.00086023  0.75268266  0.50026474  1
  Mn  Mn95  1  -0.00024215  0.75074710  0.83222591  1
  Mn  Mn96  1  0.33207920  0.24818976  0.16526225  1
  Mn  Mn97  1  0.33073135  0.24830903  0.49935754  1
  Mn  Mn98  1  0.33261336  0.25039985  0.83313782  1
  Mn  Mn99  1  0.33161768  0.74934412  0.16424503  1
  Mn  Mn100  1  0.33167715  0.75343921  0.50028025  1
  Mn  Mn101  1  0.33359983  0.75067033  0.83271451  1
  Mn  Mn102  1  0.66564975  0.24821072  0.16562305  1
  Mn  Mn103  1  0.66673710  0.24624813  0.50084959  1
  Mn  Mn104  1  0.66866310  0.25135616  0.83289424  1
  Mn  Mn105  1  0.66721125  0.74917245  0.16888484  1
  Mn  Mn106  1  0.66684109  0.75414979  0.50134182  1
  Mn  Mn107  1  0.66814461  0.74671771  0.83337632  1
  Mn  Mn108  1  0.16771961  0.24911045  -0.00173153  1
  Mn  Mn109  1  0.16407199  0.24815845  0.33262911  1
  Mn  Mn110  1  0.16518638  0.24870175  0.66539477  1
  Mn  Mn111  1  0.16998452  0.75096380  0.00057801  1
  Mn  Mn112  1  0.16394002  0.75037479  0.33440093  1
  Mn  Mn113  1  0.16775674  0.75206890  0.66533887  1
  Mn  Mn114  1  0.49960476  0.25170892  -0.00185066  1
  Mn  Mn115  1  0.49863020  0.24650544  0.33314226  1
  Mn  Mn116  1  0.50150380  0.24936115  0.66586183  1
  Mn  Mn117  1  0.49826300  0.74705410  0.00015853  1
  Mn  Mn118  1  0.50159459  0.75285056  0.33153324  1
  Mn  Mn119  1  0.50042528  0.75258374  0.66591771  1
  Mn  Mn120  1  0.83469114  0.24982621  0.00084044  1
  Mn  Mn121  1  0.83350381  0.24772584  0.33503460  1
  Mn  Mn122  1  0.83237731  0.24850368  0.67044792  1
  Mn  Mn123  1  0.83184651  0.74895529  0.00208927  1
  Mn  Mn124  1  0.83456591  0.75111599  0.33483967  1
  Mn  Mn125  1  0.83556808  0.75003181  0.66872074  1
  Mn  Mn126  1  0.16827062  0.00131047  -0.00149308  1
  Mn  Mn127  1  0.16211368  0.00058673  0.33300009  1
  Mn  Mn128  1  0.16653879  0.00035329  0.66659711  1
  Mn  Mn129  1  0.16960410  0.49915955  -0.00005028  1
  Mn  Mn130  1  0.16561808  0.50144196  0.33448423  1
  Mn  Mn131  1  0.16683675  0.49945078  0.66430486  1
  Mn  Mn132  1  0.49907768  -0.00009417  0.00028645  1
  Mn  Mn133  1  0.50071217  -0.00134427  0.33253433  1
  Mn  Mn134  1  0.50118714  -0.00051640  0.66441754  1
  Mn  Mn135  1  0.49995260  0.50032865  -0.00320507  1
  Mn  Mn136  1  0.49961529  0.50173195  0.33225766  1
  Mn  Mn137  1  0.50099800  0.49940317  0.66672508  1
  Mn  Mn138  1  0.83396417  0.00016404  0.00216476  1
  Mn  Mn139  1  0.83270570  -0.00143497  0.33671950  1
  Mn  Mn140  1  0.83393656  0.00185995  0.66871623  1
  Mn  Mn141  1  0.83158572  0.49983098  0.00099248  1
  Mn  Mn142  1  0.83575802  0.50138349  0.33357885  1
  Mn  Mn143  1  0.83426083  0.49994007  0.66993386  1
  O  O144  1  0.16087944  0.12601283  0.02053882  1
  O  O145  1  0.15546851  0.12255210  0.35746127  1
  O  O146  1  0.15717672  0.12293380  0.69251483  1
  O  O147  1  0.17705553  0.62496196  0.02066673  1
  O  O148  1  0.15688556  0.62915811  0.36048349  1
  O  O149  1  0.15835389  0.62697675  0.67800709  1
  O  O150  1  0.50596586  0.12391029  0.01870999  1
  O  O151  1  0.50184602  0.11896695  0.35469644  1
  O  O152  1  0.49974918  0.12318543  0.67711563  1
  O  O153  1  0.49619993  0.62411835  0.02673452  1
  O  O154  1  0.49861516  0.62900666  0.33826302  1
  O  O155  1  0.49964444  0.62608815  0.68376025  1
  O  O156  1  0.83937499  0.12515969  0.01247854  1
  O  O157  1  0.83562970  0.11814181  0.35887595  1
  O  O158  1  0.82933975  0.12407828  0.69694653  1
  O  O159  1  0.82704126  0.62282191  0.02559417  1
  O  O160  1  0.83725518  0.62800069  0.34449311  1
  O  O161  1  0.83037180  0.62367941  0.69202727  1
  O  O162  1  0.16151623  0.37307355  0.30783675  1
  O  O163  1  0.16006487  0.37211689  0.64681780  1
  O  O164  1  0.17545928  0.37166986  0.97552793  1
  O  O165  1  0.15903395  0.87567938  0.30772594  1
  O  O166  1  0.16351855  0.87823914  0.64018432  1
  O  O167  1  0.17423878  0.87842481  0.97644712  1
  O  O168  1  0.49805467  0.37564314  0.32439153  1
  O  O169  1  0.50994670  0.37318731  0.65492494  1
  O  O170  1  0.50810253  0.37974476  0.97875372  1
  O  O171  1  0.50737532  0.87668698  0.30312539  1
  O  O172  1  0.51158114  0.87757555  0.65136852  1
  O  O173  1  0.49281889  0.87206580  0.99095639  1
  O  O174  1  0.83993681  0.37729556  0.31097770  1
  O  O175  1  0.83917119  0.37373733  0.65520250  1
  O  O176  1  0.82558180  0.37536223  0.97623333  1
  O  O177  1  0.83342057  0.87479996  0.30702609  1
  O  O178  1  0.83951671  0.87932910  0.64337201  1
  O  O179  1  0.83147299  0.87506935  0.97973359  1
  O  O180  1  0.01006384  0.37451310  0.19137959  1
  O  O181  1  0.00428529  0.36857205  0.52455661  1
  O  O182  1  0.00426555  0.37160155  0.84156639  1
  O  O183  1  0.01054274  0.87330689  0.19028039  1
  O  O184  1  0.00183715  0.87878163  0.52948561  1
  O  O185  1  0.00293398  0.87688640  0.84507077  1
  O  O186  1  0.32774656  0.37270178  0.18026883  1
  O  O187  1  0.32805801  0.37057634  0.50813688  1
  O  O188  1  0.33026075  0.37601691  0.85353674  1
  O  O189  1  0.33926571  0.87662792  0.17832043  1
  O  O190  1  0.32244289  0.87735147  0.51772679  1
  O  O191  1  0.32692003  0.87508667  0.85526894  1
  O  O192  1  0.67258679  0.37419618  0.17746807  1
  O  O193  1  0.66524124  0.36956772  0.52144741  1
  O  O194  1  0.67072022  0.37882930  0.86035591  1
  O  O195  1  0.67044185  0.87353552  0.19052834  1
  O  O196  1  0.67436976  0.87839987  0.53015718  1
  O  O197  1  0.67262254  0.87301999  0.84429922  1
  O  O198  1  0.00172991  0.12761426  0.13828051  1
  O  O199  1  -0.00847064  0.12215837  0.47383925  1
  O  O200  1  -0.00378433  0.12370252  0.80653471  1
  O  O201  1  -0.00833278  0.62550932  0.15640989  1
  O  O202  1  0.00652425  0.63155541  0.47618926  1
  O  O203  1  -0.00767611  0.62711167  0.80854178  1
  O  O204  1  0.32294346  0.12487020  0.14522439  1
  O  O205  1  0.33021508  0.12018588  0.47971856  1
  O  O206  1  0.32491193  0.12354969  0.81068164  1
  O  O207  1  0.32270924  0.62501092  0.13980255  1
  O  O208  1  0.32496126  0.63061386  0.48046132  1
  O  O209  1  0.33583346  0.62560721  0.80873606  1
  O  O210  1  0.65948719  0.12448315  0.14156984  1
  O  O211  1  0.67520605  0.11835439  0.47754922  1
  O  O212  1  0.67776409  0.12595477  0.81022221  1
  O  O213  1  0.66538857  0.62536905  0.14375068  1
  O  O214  1  0.66962568  0.63342245  0.48248739  1
  O  O215  1  0.67486961  0.62296006  0.80452630  1
  O  O216  1  0.08396003  0.02507311  0.24590005  1
  O  O217  1  0.08582115  0.02387708  0.57638770  1
  O  O218  1  0.08628683  0.02184181  0.91038146  1
  O  O219  1  0.08928482  0.52403496  0.24611212  1
  O  O220  1  0.08960698  0.52012077  0.57418488  1
  O  O221  1  0.08899784  0.50486428  0.91193207  1
  O  O222  1  0.41637120  0.02317588  0.24604525  1
  O  O223  1  0.41791515  0.01715090  0.58053882  1
  O  O224  1  0.41323284  0.00746646  0.91986957  1
  O  O225  1  0.41847231  0.52249248  0.23944625  1
  O  O226  1  0.41443290  0.51399840  0.58621622  1
  O  O227  1  0.42253310  0.52389235  0.91062643  1
  O  O228  1  0.74242657  0.01232382  0.25966573  1
  O  O229  1  0.75329583  0.02355010  0.58587871  1
  O  O230  1  0.75363418  0.01977680  0.91587939  1
  O  O231  1  0.75769977  0.51750574  0.24360501  1
  O  O232  1  0.74775538  0.51128765  0.59286978  1
  O  O233  1  0.74794030  0.52495513  0.91670018  1
  O  O234  1  0.24899084  0.22605223  0.25354403  1
  O  O235  1  0.25312052  0.22361550  0.59059004  1
  O  O236  1  0.25143417  0.23043083  0.91842351  1
  O  O237  1  0.25396744  0.72878185  0.25355880  1
  O  O238  1  0.25463121  0.73024708  0.59130413  1
  O  O239  1  0.26346661  0.73805338  0.92831617  1
  O  O240  1  0.58148591  0.22785388  0.24682134  1
  O  O241  1  0.58589366  0.22377669  0.58150830  1
  O  O242  1  0.59303130  0.23650002  0.92071614  1
  O  O243  1  0.59376215  0.72896302  0.25565617  1
  O  O244  1  0.59139340  0.73923372  0.58998119  1
  O  O245  1  0.58614749  0.72495043  0.91989894  1
  O  O246  1  0.92534555  0.23604005  0.25778508  1
  O  O247  1  0.91923641  0.22656669  0.58910342  1
  O  O248  1  0.92370975  0.23109256  0.91918159  1
  O  O249  1  0.92799436  0.73861796  0.26252697  1
  O  O250  1  0.92912223  0.73572451  0.59496139  1
  O  O251  1  0.91101194  0.73694390  0.91305638  1
  O  O252  1  0.08641142  0.48887131  0.08804718  1
  O  O253  1  0.07542849  0.48115301  0.40535150  1
  O  O254  1  0.07620766  0.48567107  0.73743178  1
  O  O255  1  0.08901214  0.98824061  0.08292927  1
  O  O256  1  0.07379654  0.97749232  0.41337976  1
  O  O257  1  0.07913648  0.97886030  0.74352014  1
  O  O258  1  0.40720772  0.48467743  0.06769744  1
  O  O259  1  0.40952965  0.50224506  0.40974687  1
  O  O260  1  0.41938640  0.49328017  0.75120666  1
  O  O261  1  0.41443902  0.98741190  0.08362135  1
  O  O262  1  0.41868920  0.98956178  0.41625664  1
  O  O263  1  0.40992421  0.99165871  0.74414104  1
  O  O264  1  0.74756574  0.47809379  0.07935153  1
  O  O265  1  0.74933505  0.49741095  0.41189254  1
  O  O266  1  0.75036013  0.47649816  0.75412238  1
  O  O267  1  0.74810287  0.98631021  0.09010157  1
  O  O268  1  0.75101055  0.97263374  0.42002197  1
  O  O269  1  0.75458784  0.97535487  0.74900984  1
  O  O270  1  0.24640784  0.26901669  0.08597192  1
  O  O271  1  0.23958312  0.25130626  0.42296140  1
  O  O272  1  0.23694997  0.26179305  0.75951942  1
  O  O273  1  0.24500659  0.77473692  0.09026865  1
  O  O274  1  0.23523802  0.76565601  0.42638307  1
  O  O275  1  0.24117294  0.77087334  0.75548863  1
  O  O276  1  0.58586571  0.26197877  0.07919920  1
  O  O277  1  0.58352621  0.24713533  0.41847778  1
  O  O278  1  0.59049596  0.26297727  0.74668844  1
  O  O279  1  0.57069469  0.76063791  0.09616240  1
  O  O280  1  0.58640448  0.77445727  0.41908584  1
  O  O281  1  0.58860174  0.75684481  0.74887957  1
  O  O282  1  0.91037022  0.27212821  0.09317443  1
  O  O283  1  0.91800713  0.26313862  0.41763296  1
  O  O284  1  0.91131247  0.26734236  0.75661888  1
  O  O285  1  0.91001257  0.76420897  0.09930228  1
  O  O286  1  0.91210935  0.77627747  0.42568752  1
  O  O287  1  0.91278538  0.77334813  0.75336576  1
  O  O288  1  0.24445598  0.47649174  0.08929046  1
  O  O289  1  0.23871651  0.49442851  0.42405462  1
  O  O290  1  0.24127382  0.48367065  0.75797986  1
  O  O291  1  0.24981983  0.98071236  0.08398608  1
  O  O292  1  0.23658110  0.98891467  0.42532602  1
  O  O293  1  0.24055125  0.98305606  0.75693063  1
  O  O294  1  0.58766858  0.49011263  0.07448592  1
  O  O295  1  0.58504374  0.50054625  0.41385534  1
  O  O296  1  0.58776768  0.48556154  0.75009867  1
  O  O297  1  0.57381054  0.98475332  0.09389717  1
  O  O298  1  0.58919673  0.98036063  0.41271333  1
  O  O299  1  0.59314160  0.99184254  0.74125658  1
  O  O300  1  0.90794419  0.48413117  0.09560158  1
  O  O301  1  0.91988726  0.48670259  0.41684135  1
  O  O302  1  0.91254471  0.48039884  0.75453666  1
  O  O303  1  0.91171318  0.98005006  0.09388258  1
  O  O304  1  0.91141060  0.97278684  0.42539863  1
  O  O305  1  0.91427235  0.97883323  0.75268797  1
  O  O306  1  0.08569930  0.26534640  0.08265622  1
  O  O307  1  0.07486022  0.26523377  0.40511399  1
  O  O308  1  0.07315096  0.26446910  0.73808132  1
  O  O309  1  0.08761078  0.75892078  0.08852448  1
  O  O310  1  0.07383326  0.77842562  0.41237728  1
  O  O311  1  0.07798594  0.76825797  0.74017708  1
  O  O312  1  0.41193130  0.26099431  0.07778778  1
  O  O313  1  0.41114226  0.24605078  0.41360285  1
  O  O314  1  0.41261486  0.25538853  0.74812957  1
  O  O315  1  0.40480922  0.76425470  0.07280159  1
  O  O316  1  0.41263871  0.76024604  0.41216352  1
  O  O317  1  0.41239710  0.75955101  0.74513442  1
  O  O318  1  0.74720016  0.26552101  0.08060013  1
  O  O319  1  0.75120071  0.25192919  0.42036794  1
  O  O320  1  0.74863246  0.27693393  0.75149175  1
  O  O321  1  0.74850423  0.76384211  0.08756029  1
  O  O322  1  0.74787144  0.77386992  0.41561275  1
  O  O323  1  0.75414996  0.77011068  0.75100700  1
  O  O324  1  0.24829761  0.01919226  0.24999280  1
  O  O325  1  0.25211961  0.02441429  0.59127895  1
  O  O326  1  0.24910550  0.01991756  0.91724278  1
  O  O327  1  0.25076623  0.52500699  0.25690572  1
  O  O328  1  0.25384782  0.52272697  0.59058381  1
  O  O329  1  0.26365101  0.51204234  0.92729306  1
  O  O330  1  0.58239568  0.02479124  0.25012467  1
  O  O331  1  0.58381638  0.02293752  0.57726679  1
  O  O332  1  0.59011971  0.01481966  0.92253320  1
  O  O333  1  0.58770159  0.51941878  0.24738559  1
  O  O334  1  0.58937288  0.51448012  0.59089514  1
  O  O335  1  0.58441267  0.52971943  0.91313177  1
  O  O336  1  0.92364481  0.01165293  0.26444376  1
  O  O337  1  0.91827614  0.02585677  0.58806369  1
  O  O338  1  0.92307732  0.01884878  0.91724443  1
  O  O339  1  0.92530455  0.51468491  0.25764414  1
  O  O340  1  0.92833318  0.51403353  0.59490725  1
  O  O341  1  0.90928965  0.51321221  0.91462718  1
  O  O342  1  0.08680057  0.22573555  0.24321898  1
  O  O343  1  0.08721004  0.22201653  0.57505269  1
  O  O344  1  0.08683448  0.22800511  0.90847804  1
  O  O345  1  0.08873321  0.72508554  0.24787616  1
  O  O346  1  0.09142269  0.73602354  0.57365627  1
  O  O347  1  0.08900625  0.74570179  0.91199939  1
  O  O348  1  0.41636955  0.22440415  0.24524114  1
  O  O349  1  0.41733730  0.22919306  0.57932541  1
  O  O350  1  0.41565301  0.24499114  0.91764064  1
  O  O351  1  0.42208122  0.73386834  0.23472209  1
  O  O352  1  0.41492893  0.74238171  0.58415459  1
  O  O353  1  0.42351690  0.72553521  0.91112458  1
  O  O354  1  0.74683080  0.23510859  0.25277053  1
  O  O355  1  0.75030657  0.22639833  0.58794695  1
  O  O356  1  0.75349489  0.23052997  0.91473416  1
  O  O357  1  0.75524448  0.73146043  0.24734084  1
  O  O358  1  0.75152552  0.73981815  0.58910388  1
  O  O359  1  0.74912447  0.72576378  0.91462150  1
