# generated using pymatgen
data_Ba17Sr5La8Pr42Mn72O216
_symmetry_space_group_name_H-M   'P 1'
_cell_length_a   16.67505230
_cell_length_b   15.70196577
_cell_length_c   16.81907733
_cell_angle_alpha   89.99500326
_cell_angle_beta   89.97154921
_cell_angle_gamma   90.02778541
_symmetry_Int_Tables_number   1
_chemical_formula_structural   Ba17Sr5La8Pr42Mn72O216
_chemical_formula_sum   'Ba17 Sr5 La8 Pr42 Mn72 O216'
_cell_volume   4403.75644760
_cell_formula_units_Z   1
loop_
 _symmetry_equiv_pos_site_id
 _symmetry_equiv_pos_as_xyz
  1  'x, y, z'
loop_
 _atom_site_type_symbol
 _atom_site_label
 _atom_site_symmetry_multiplicity
 _atom_site_fract_x
 _atom_site_fract_y
 _atom_site_fract_z
 _atom_site_occupancy
  Ba  Ba0  1  0.16198960  0.37497871  0.83157700  1
  Ba  Ba1  1  0.33376090  0.12492088  0.66251516  1
  Ba  Ba2  1  0.66322619  0.37477395  0.33664030  1
  Ba  Ba3  1  0.83306268  0.12592873  0.50706837  1
  Ba  Ba4  1  0.83383947  0.87488787  0.16952945  1
  Ba  Ba5  1  0.17038000  0.62491279  0.49826598  1
  Ba  Ba6  1  0.66888104  0.62375327  0.33393957  1
  Ba  Ba7  1  0.16875703  0.62571539  0.16877300  1
  Ba  Ba8  1  0.50260338  0.87362914  0.82980755  1
  Ba  Ba9  1  0.16797244  0.12437494  0.83081468  1
  Ba  Ba10  1  0.33331386  0.12522356  0.32931640  1
  Ba  Ba11  1  0.66571141  0.87455727  0.33262783  1
  Ba  Ba12  1  0.16376653  0.37582242  0.16535936  1
  Ba  Ba13  1  0.83360756  0.62442223  0.50369949  1
  Ba  Ba14  1  0.83282624  0.12576933  0.83675500  1
  Ba  Ba15  1  0.50034377  0.87606937  0.49630883  1
  Ba  Ba16  1  0.33323721  0.62490548  0.32841718  1
  Sr  Sr17  1  0.83543869  0.62564702  0.17660236  1
  Sr  Sr18  1  -0.00206429  0.87229315  0.66849107  1
  Sr  Sr19  1  0.49568409  0.37325631  0.49501347  1
  Sr  Sr20  1  0.16420308  0.37437092  0.49702416  1
  Sr  Sr21  1  0.49817152  0.87357311  0.16127248  1
  La  La22  1  0.00213003  0.87838388  0.00457896  1
  La  La23  1  0.83262799  0.12592482  0.17380993  1
  La  La24  1  0.33492819  0.12694423  0.99098348  1
  La  La25  1  0.66833191  0.62590584  0.66528559  1
  La  La26  1  0.32407330  0.37535554  0.66144273  1
  La  La27  1  0.00231838  0.12620286  0.33722087  1
  La  La28  1  0.00157234  0.62417775  0.33214911  1
  La  La29  1  0.67278134  0.62710859  1.00362403  1
  Pr  Pr30  1  0.33459208  0.87243578  0.33115701  1
  Pr  Pr31  1  0.32237074  0.37514713  -0.00205336  1
  Pr  Pr32  1  0.00383617  0.12570801  0.66490090  1
  Pr  Pr33  1  0.34279137  0.62425815  0.65641877  1
  Pr  Pr34  1  0.50584976  0.12424033  0.16473767  1
  Pr  Pr35  1  0.67155384  0.87551765  0.66871668  1
  Pr  Pr36  1  0.16990595  0.87476875  0.16742591  1
  Pr  Pr37  1  0.32624423  0.37658323  0.33237683  1
  Pr  Pr38  1  0.82885918  0.37547069  0.83740826  1
  Pr  Pr39  1  -0.00633275  0.37281511  0.00594985  1
  Pr  Pr40  1  0.83319805  0.87471379  0.83725483  1
  Pr  Pr41  1  -0.00183197  0.37850916  0.33755061  1
  Pr  Pr42  1  0.50569818  0.12660153  0.49756873  1
  Pr  Pr43  1  0.66452264  0.12288798  0.66766990  1
  Pr  Pr44  1  -0.00636041  0.37707023  0.66972342  1
  Pr  Pr45  1  0.16469149  0.87564383  0.82842034  1
  Pr  Pr46  1  0.16783844  0.12640469  0.16641093  1
  Pr  Pr47  1  0.00191818  0.12481406  0.99757605  1
  Pr  Pr48  1  0.50677094  0.62414320  0.83191417  1
  Pr  Pr49  1  0.82863926  0.37787698  0.17064355  1
  Pr  Pr50  1  0.32677931  0.87321486  0.66594729  1
  Pr  Pr51  1  0.16914262  0.12546630  0.50588084  1
  Pr  Pr52  1  0.66566927  0.87820616  0.00959324  1
  Pr  Pr53  1  0.83074871  0.37547293  0.50087382  1
  Pr  Pr54  1  0.83853798  0.62315160  0.83821487  1
  Pr  Pr55  1  0.00274573  0.62738817  1.00509786  1
  Pr  Pr56  1  0.17251802  0.62717196  0.83610887  1
  Pr  Pr57  1  0.00591641  0.62433881  0.66533738  1
  Pr  Pr58  1  0.16828401  0.87732510  0.49758936  1
  Pr  Pr59  1  0.83449702  0.87522646  0.49702442  1
  Pr  Pr60  1  0.49456946  0.37519842  0.82559175  1
  Pr  Pr61  1  0.00012890  0.87164658  0.33920751  1
  Pr  Pr62  1  0.50415313  0.62665051  0.16877672  1
  Pr  Pr63  1  0.33871947  0.62312828  0.99655481  1
  Pr  Pr64  1  0.50593911  0.62394240  0.49497434  1
  Pr  Pr65  1  0.50292494  0.12507475  0.83467633  1
  Pr  Pr66  1  0.66496828  0.37362492  0.66845931  1
  Pr  Pr67  1  0.66192105  0.37128521  0.00625448  1
  Pr  Pr68  1  0.49351013  0.37598437  0.16298373  1
  Pr  Pr69  1  0.66487725  0.12335779  0.33580201  1
  Pr  Pr70  1  0.32833950  0.87554949  -0.00239447  1
  Pr  Pr71  1  0.67012245  0.12105227  0.99933697  1
  Mn  Mn72  1  0.00181054  0.00244257  0.16888510  1
  Mn  Mn73  1  0.00091769  -0.00156923  0.50289630  1
  Mn  Mn74  1  -0.00081744  -0.00182742  0.83436330  1
  Mn  Mn75  1  -0.00272439  0.49942555  0.16863501  1
  Mn  Mn76  1  0.00041714  0.50026034  0.50338625  1
  Mn  Mn77  1  -0.00159715  0.50216665  0.83651355  1
  Mn  Mn78  1  0.33452091  0.00024558  0.16076033  1
  Mn  Mn79  1  0.33343340  0.00003612  0.49599613  1
  Mn  Mn80  1  0.33534841  -0.00172956  0.83026743  1
  Mn  Mn81  1  0.33451400  0.49862209  0.16167341  1
  Mn  Mn82  1  0.33503500  0.49898103  0.49694911  1
  Mn  Mn83  1  0.33442146  0.50144252  0.82781753  1
  Mn  Mn84  1  0.66628627  0.00234956  0.16680165  1
  Mn  Mn85  1  0.66713139  0.00062465  0.50264882  1
  Mn  Mn86  1  0.66788079  -0.00117003  0.83530752  1
  Mn  Mn87  1  0.66529089  0.49777391  0.16665060  1
  Mn  Mn88  1  0.66489999  0.49908966  0.50342950  1
  Mn  Mn89  1  0.66685912  0.49967179  0.83623192  1
  Mn  Mn90  1  -0.00182301  0.24785936  0.16863597  1
  Mn  Mn91  1  0.00014649  0.25155074  0.50215801  1
  Mn  Mn92  1  -0.00233448  0.25089282  0.83550490  1
  Mn  Mn93  1  0.00065449  0.75278931  0.16926363  1
  Mn  Mn94  1  0.00115426  0.74997527  0.50398984  1
  Mn  Mn95  1  -0.00011617  0.74890397  0.83528164  1
  Mn  Mn96  1  0.33362824  0.24896919  0.16080177  1
  Mn  Mn97  1  0.33265815  0.25081231  0.49556824  1
  Mn  Mn98  1  0.33470504  0.25190085  0.82909836  1
  Mn  Mn99  1  0.33561546  0.75289073  0.16149129  1
  Mn  Mn100  1  0.33540002  0.75012172  0.49823659  1
  Mn  Mn101  1  0.33562769  0.74834432  0.82903274  1
  Mn  Mn102  1  0.66540662  0.25077695  0.16812690  1
  Mn  Mn103  1  0.66528869  0.25092500  0.50314488  1
  Mn  Mn104  1  0.66477125  0.25220744  0.83711321  1
  Mn  Mn105  1  0.66654522  0.74967214  0.16626668  1
  Mn  Mn106  1  0.66705749  0.74897461  0.50295280  1
  Mn  Mn107  1  0.67027861  0.74801475  0.83532733  1
  Mn  Mn108  1  0.16468689  0.25033022  -0.00067520  1
  Mn  Mn109  1  0.16469933  0.24916286  0.33334530  1
  Mn  Mn110  1  0.16408480  0.25235150  0.66335799  1
  Mn  Mn111  1  0.16765824  0.74952738  -0.00149409  1
  Mn  Mn112  1  0.16599925  0.75303555  0.33277808  1
  Mn  Mn113  1  0.16689013  0.74893908  0.66767750  1
  Mn  Mn114  1  0.49920297  0.25218165  -0.00429107  1
  Mn  Mn115  1  0.49806477  0.24944549  0.33032372  1
  Mn  Mn116  1  0.49971163  0.25106807  0.66366437  1
  Mn  Mn117  1  0.50158624  0.74793670  -0.00255326  1
  Mn  Mn118  1  0.49955716  0.75031156  0.32961223  1
  Mn  Mn119  1  0.50206386  0.75017942  0.66434268  1
  Mn  Mn120  1  0.83244644  0.25139804  0.00575652  1
  Mn  Mn121  1  0.83357646  0.24903941  0.33734366  1
  Mn  Mn122  1  0.83271376  0.25083941  0.67167479  1
  Mn  Mn123  1  0.83513234  0.74750481  0.00237274  1
  Mn  Mn124  1  0.83506089  0.75074945  0.33589430  1
  Mn  Mn125  1  0.83435145  0.75118023  0.67144579  1
  Mn  Mn126  1  0.16732652  -0.00117476  -0.00004525  1
  Mn  Mn127  1  0.16566518  0.00141366  0.33243118  1
  Mn  Mn128  1  0.16468614  -0.00222139  0.66503523  1
  Mn  Mn129  1  0.16473230  0.50323260  -0.00227548  1
  Mn  Mn130  1  0.16517755  0.49846546  0.33300996  1
  Mn  Mn131  1  0.16578446  0.50038990  0.66658915  1
  Mn  Mn132  1  0.49954704  0.00025585  -0.00228265  1
  Mn  Mn133  1  0.49882005  0.00089529  0.32924090  1
  Mn  Mn134  1  0.50036787  -0.00049375  0.66398040  1
  Mn  Mn135  1  0.50087921  0.49925378  -0.00402394  1
  Mn  Mn136  1  0.49827914  0.49836341  0.33049776  1
  Mn  Mn137  1  0.50052046  0.49772991  0.66399910  1
  Mn  Mn138  1  0.83467529  -0.00033103  0.00299103  1
  Mn  Mn139  1  0.83471149  0.00167061  0.33739534  1
  Mn  Mn140  1  0.83495113  -0.00201836  0.67051037  1
  Mn  Mn141  1  0.83377582  0.50129308  0.00429777  1
  Mn  Mn142  1  0.83429609  0.49841639  0.33590513  1
  Mn  Mn143  1  0.83195806  0.49910405  0.67215132  1
  O  O144  1  0.16557682  0.12218841  0.02149815  1
  O  O145  1  0.16199989  0.12400213  0.36126320  1
  O  O146  1  0.16025538  0.12446736  0.67392025  1
  O  O147  1  0.16669533  0.62757700  0.01384083  1
  O  O148  1  0.16094947  0.62536466  0.34176844  1
  O  O149  1  0.16345136  0.62615388  0.69166527  1
  O  O150  1  0.48596365  0.12956941  0.02071440  1
  O  O151  1  0.50054463  0.12609185  0.35216982  1
  O  O152  1  0.50490300  0.12828581  0.69239845  1
  O  O153  1  0.48926647  0.62006113  0.02452193  1
  O  O154  1  0.49646351  0.62348671  0.34758477  1
  O  O155  1  0.49331572  0.62249085  0.68977496  1
  O  O156  1  0.82958976  0.13043297  0.02700454  1
  O  O157  1  0.83042373  0.12562615  0.35005860  1
  O  O158  1  0.83221913  0.12505071  0.68270040  1
  O  O159  1  0.83286222  0.62320412  0.02704731  1
  O  O160  1  0.84084692  0.62370108  0.34419913  1
  O  O161  1  0.82744524  0.62419287  0.69538402  1
  O  O162  1  0.16105121  0.37166783  0.32165433  1
  O  O163  1  0.16161885  0.37663931  0.64919040  1
  O  O164  1  0.16466618  0.38007233  0.98778556  1
  O  O165  1  0.15810789  0.88040287  0.30981284  1
  O  O166  1  0.16993459  0.87200510  0.64381260  1
  O  O167  1  0.16623717  0.87126541  0.97180955  1
  O  O168  1  0.49520052  0.37193381  0.30726119  1
  O  O169  1  0.51286810  0.37488522  0.64413688  1
  O  O170  1  0.51407791  0.37643953  0.96764671  1
  O  O171  1  0.49444221  0.87778887  0.31335703  1
  O  O172  1  0.51481649  0.87219925  0.65285197  1
  O  O173  1  0.51674190  0.87479805  0.98681639  1
  O  O174  1  0.84205037  0.37142822  0.31436757  1
  O  O175  1  0.84055442  0.37525323  0.64611678  1
  O  O176  1  0.84032103  0.37769245  0.97963076  1
  O  O177  1  0.84089476  0.87909664  0.32712216  1
  O  O178  1  0.83050064  0.87466002  0.64252604  1
  O  O179  1  0.83373513  0.86933813  0.98108718  1
  O  O180  1  -0.00643016  0.36980400  0.19169091  1
  O  O181  1  -0.00194913  0.37637573  0.52606017  1
  O  O182  1  -0.00669669  0.38131885  0.86298336  1
  O  O183  1  0.00773945  0.88203514  0.19391024  1
  O  O184  1  0.00183910  0.87452300  0.52042597  1
  O  O185  1  0.00351874  0.87152558  0.86170918  1
  O  O186  1  0.34037857  0.37211685  0.18497122  1
  O  O187  1  0.33689585  0.37574202  0.51839866  1
  O  O188  1  0.34135488  0.37974594  0.85478781  1
  O  O189  1  0.33430461  0.87916621  0.18598798  1
  O  O190  1  0.32931364  0.87421761  0.52141456  1
  O  O191  1  0.32902643  0.87132288  0.85403673  1
  O  O192  1  0.65854425  0.37268285  0.17986134  1
  O  O193  1  0.66509133  0.37483877  0.52414748  1
  O  O194  1  0.66122804  0.37624053  0.86415850  1
  O  O195  1  0.65804329  0.87899227  0.16963084  1
  O  O196  1  0.66975911  0.87485744  0.52370886  1
  O  O197  1  0.67160357  0.86789649  0.86397542  1
  O  O198  1  0.00092343  0.12460601  0.14006500  1
  O  O199  1  0.00484064  0.12399974  0.48157276  1
  O  O200  1  -0.00200608  0.12001295  0.81011472  1
  O  O201  1  -0.00454779  0.62569649  0.15023351  1
  O  O202  1  -0.00082850  0.62508855  0.47929500  1
  O  O203  1  -0.00961493  0.62647190  0.80741032  1
  O  O204  1  0.32922853  0.12301593  0.13535706  1
  O  O205  1  0.32225096  0.12506176  0.48571809  1
  O  O206  1  0.34246759  0.12457492  0.82123669  1
  O  O207  1  0.34002601  0.62557487  0.14072714  1
  O  O208  1  0.34109942  0.62421191  0.48651559  1
  O  O209  1  0.33533039  0.62479620  0.80135391  1
  O  O210  1  0.67041453  0.12955429  0.14262116  1
  O  O211  1  0.66577787  0.12703469  0.48211284  1
  O  O212  1  0.66423883  0.13125608  0.81106150  1
  O  O213  1  0.66506936  0.62030830  0.14715436  1
  O  O214  1  0.66546070  0.62267911  0.49297865  1
  O  O215  1  0.67387785  0.62275006  0.80880808  1
  O  O216  1  0.08227567  0.02977583  0.25153553  1
  O  O217  1  0.08269153  0.01856571  0.58303757  1
  O  O218  1  0.07869843  0.01348217  0.92448633  1
  O  O219  1  0.07907406  0.50908110  0.25167259  1
  O  O220  1  0.08270937  0.51774052  0.58470888  1
  O  O221  1  0.08608990  0.52775513  0.90817491  1
  O  O222  1  0.42286433  0.01844102  0.23330201  1
  O  O223  1  0.42064466  0.01567738  0.57077146  1
  O  O224  1  0.42228687  0.01476747  0.91090584  1
  O  O225  1  0.42493905  0.51167619  0.23237080  1
  O  O226  1  0.42453739  0.51732217  0.57687805  1
  O  O227  1  0.42333945  0.52249839  0.90586945  1
  O  O228  1  0.74700561  0.02003634  0.25237671  1
  O  O229  1  0.74048166  0.01125207  0.59789069  1
  O  O230  1  0.74346663  0.01203424  0.92424422  1
  O  O231  1  0.75676017  0.50115170  0.24421414  1
  O  O232  1  0.74785740  0.50632571  0.59446413  1
  O  O233  1  0.75940459  0.51779487  0.91594611  1
  O  O234  1  0.24568639  0.23512531  0.24439208  1
  O  O235  1  0.24742806  0.24433625  0.57797198  1
  O  O236  1  0.25899783  0.24196580  0.92047617  1
  O  O237  1  0.25051446  0.75332461  0.24987532  1
  O  O238  1  0.26050133  0.73641537  0.59306127  1
  O  O239  1  0.25837040  0.72612022  0.91520659  1
  O  O240  1  0.58716048  0.22424232  0.25171240  1
  O  O241  1  0.58558513  0.22514701  0.58810154  1
  O  O242  1  0.58595808  0.22201265  0.92186356  1
  O  O243  1  0.58133710  0.73556145  0.24456260  1
  O  O244  1  0.58281008  0.72587515  0.58438095  1
  O  O245  1  0.58733826  0.72116749  0.91666985  1
  O  O246  1  0.92122812  0.22512956  0.25370585  1
  O  O247  1  0.92777095  0.23737129  0.59468971  1
  O  O248  1  0.92126619  0.23523822  0.93161552  1
  O  O249  1  0.92200687  0.74090590  0.25618292  1
  O  O250  1  0.92062466  0.73399850  0.59610524  1
  O  O251  1  0.91903178  0.72598999  0.92051563  1
  O  O252  1  0.06734243  0.49091764  0.07421522  1
  O  O253  1  0.07503023  0.48589932  0.41274563  1
  O  O254  1  0.06782755  0.48855075  0.74474563  1
  O  O255  1  0.08863437  0.98021149  0.08860779  1
  O  O256  1  0.08418535  0.97928630  0.41946436  1
  O  O257  1  0.08361747  0.97897783  0.75359491  1
  O  O258  1  0.41441140  0.47193798  0.06879600  1
  O  O259  1  0.40909117  0.47926742  0.40525121  1
  O  O260  1  0.41286181  0.47551425  0.73927620  1
  O  O261  1  0.41096267  0.97943230  0.07021887  1
  O  O262  1  0.40978796  0.98631889  0.40493537  1
  O  O263  1  0.41264966  0.98057615  0.73743783  1
  O  O264  1  0.74346823  0.47741384  0.07793802  1
  O  O265  1  0.75300805  0.48311677  0.42428460  1
  O  O266  1  0.74477396  0.47114782  0.75289927  1
  O  O267  1  0.74742861  0.98946951  0.08262508  1
  O  O268  1  0.75510591  0.98537190  0.42973869  1
  O  O269  1  0.75447073  0.97502349  0.75636767  1
  O  O270  1  0.25048361  0.26194140  0.07941413  1
  O  O271  1  0.24871620  0.26922451  0.41342472  1
  O  O272  1  0.24938484  0.26474274  0.74357944  1
  O  O273  1  0.25050225  0.77409804  0.08165763  1
  O  O274  1  0.24662541  0.77345920  0.41740519  1
  O  O275  1  0.24526550  0.77155559  0.75445857  1
  O  O276  1  0.57596718  0.26566463  0.08360418  1
  O  O277  1  0.57809089  0.25505449  0.42269995  1
  O  O278  1  0.58046542  0.27221093  0.75581631  1
  O  O279  1  0.58311375  0.75210417  0.07979028  1
  O  O280  1  0.58004906  0.75206589  0.41819999  1
  O  O281  1  0.58967943  0.75408055  0.74703563  1
  O  O282  1  0.90914264  0.27068090  0.09327455  1
  O  O283  1  0.91502465  0.27159836  0.42417837  1
  O  O284  1  0.91078437  0.27450710  0.75988417  1
  O  O285  1  0.92465515  0.76490888  0.07954535  1
  O  O286  1  0.91954581  0.76946129  0.42246888  1
  O  O287  1  0.91185741  0.77066188  0.76054337  1
  O  O288  1  0.25547268  0.48970825  0.07615021  1
  O  O289  1  0.24787207  0.48249741  0.41596024  1
  O  O290  1  0.25010031  0.48583420  0.74911925  1
  O  O291  1  0.24888258  0.97361200  0.08072271  1
  O  O292  1  0.24959067  0.97428110  0.41122036  1
  O  O293  1  0.24798704  0.97848768  0.74791776  1
  O  O294  1  0.57797850  0.48078684  0.08162537  1
  O  O295  1  0.57428663  0.49304296  0.42320654  1
  O  O296  1  0.57633923  0.48445759  0.75471518  1
  O  O297  1  0.58400758  1.00098363  0.07882347  1
  O  O298  1  0.58661198  0.99971991  0.41533545  1
  O  O299  1  0.59435583  0.98942625  0.74644788  1
  O  O300  1  0.90869067  0.47643400  0.09228897  1
  O  O301  1  0.91445232  0.47723680  0.42483175  1
  O  O302  1  0.90579605  0.48119931  0.76469487  1
  O  O303  1  0.92564941  0.98709916  0.08111765  1
  O  O304  1  0.92250540  0.98300032  0.42000386  1
  O  O305  1  0.91508605  0.97552999  0.75709625  1
  O  O306  1  0.07122219  0.26145311  0.07730079  1
  O  O307  1  0.07320042  0.26484591  0.41076319  1
  O  O308  1  0.07106566  0.26201909  0.73789917  1
  O  O309  1  0.08380333  0.77205712  0.08634764  1
  O  O310  1  0.08466490  0.77103827  0.41756662  1
  O  O311  1  0.08429476  0.76558050  0.75552134  1
  O  O312  1  0.41275137  0.27839062  0.06702757  1
  O  O313  1  0.40975115  0.26713397  0.40419668  1
  O  O314  1  0.41418758  0.27547984  0.73995445  1
  O  O315  1  0.41057035  0.76847183  0.06755036  1
  O  O316  1  0.40954553  0.76583933  0.40528171  1
  O  O317  1  0.40789994  0.76592793  0.73585396  1
  O  O318  1  0.74851603  0.27526482  0.08646724  1
  O  O319  1  0.75145804  0.26702466  0.42707646  1
  O  O320  1  0.74603104  0.27676306  0.75723537  1
  O  O321  1  0.74266310  0.76241364  0.07461966  1
  O  O322  1  0.75545521  0.76455637  0.42730874  1
  O  O323  1  0.75202305  0.77644685  0.75501288  1
  O  O324  1  0.24316471  0.01403037  0.23889641  1
  O  O325  1  0.24328763  0.00699548  0.57381936  1
  O  O326  1  0.25598679  0.01088360  0.92197012  1
  O  O327  1  0.25415273  0.49991237  0.25055917  1
  O  O328  1  0.26185158  0.51090824  0.58885701  1
  O  O329  1  0.25664130  0.52289317  0.91279797  1
  O  O330  1  0.58538750  0.02562323  0.24863075  1
  O  O331  1  0.58198135  0.02517448  0.58237081  1
  O  O332  1  0.58275716  0.02562924  0.91720178  1
  O  O333  1  0.58098301  0.51338533  0.24490400  1
  O  O334  1  0.58552301  0.52190717  0.59007104  1
  O  O335  1  0.58798814  0.52932085  0.92039086  1
  O  O336  1  0.91870600  0.02327111  0.24887889  1
  O  O337  1  0.92106247  0.01240084  0.59205675  1
  O  O338  1  0.91916133  0.01124195  0.92230584  1
  O  O339  1  0.92336226  0.51144261  0.25882092  1
  O  O340  1  0.92394304  0.51455929  0.59876129  1
  O  O341  1  0.92358285  0.52598902  0.92781778  1
  O  O342  1  0.08369697  0.22478871  0.24665431  1
  O  O343  1  0.08690961  0.23057384  0.57634935  1
  O  O344  1  0.08077391  0.23418839  0.91723611  1
  O  O345  1  0.07829371  0.73971006  0.25628623  1
  O  O346  1  0.08259413  0.73335131  0.58912617  1
  O  O347  1  0.08356803  0.72553009  0.91509905  1
  O  O348  1  0.42614745  0.23350896  0.22980528  1
  O  O349  1  0.42400441  0.23545880  0.57019356  1
  O  O350  1  0.42765767  0.23778332  0.90494424  1
  O  O351  1  0.42265639  0.73813368  0.23534498  1
  O  O352  1  0.42358488  0.73107472  0.57705773  1
  O  O353  1  0.42309840  0.72672797  0.90712212  1
  O  O354  1  0.75230744  0.23374459  0.25113726  1
  O  O355  1  0.74357108  0.24300053  0.59601713  1
  O  O356  1  0.74548859  0.24147203  0.92695244  1
  O  O357  1  0.75109244  0.74302828  0.24660238  1
  O  O358  1  0.74438872  0.73850217  0.59694011  1
  O  O359  1  0.75577864  0.72374143  0.91523384  1
