# generated using pymatgen
data_Ba17Sr5La8Pr42Mn72O216
_symmetry_space_group_name_H-M   'P 1'
_cell_length_a   16.67647176
_cell_length_b   15.70768280
_cell_length_c   16.81454229
_cell_angle_alpha   89.98545913
_cell_angle_beta   89.99472270
_cell_angle_gamma   89.98766459
_symmetry_Int_Tables_number   1
_chemical_formula_structural   Ba17Sr5La8Pr42Mn72O216
_chemical_formula_sum   'Ba17 Sr5 La8 Pr42 Mn72 O216'
_cell_volume   4404.54771039
_cell_formula_units_Z   1
loop_
 _symmetry_equiv_pos_site_id
 _symmetry_equiv_pos_as_xyz
  1  'x, y, z'
loop_
 _atom_site_type_symbol
 _atom_site_label
 _atom_site_symmetry_multiplicity
 _atom_site_fract_x
 _atom_site_fract_y
 _atom_site_fract_z
 _atom_site_occupancy
  Ba  Ba0  1  -0.00193165  0.12439426  0.66670690  1
  Ba  Ba1  1  0.00362048  0.87506824  0.33161801  1
  Ba  Ba2  1  0.50088449  0.37239137  0.16739490  1
  Ba  Ba3  1  0.49788602  0.62442039  0.83166443  1
  Ba  Ba4  1  0.33430498  0.62662153  0.33344679  1
  Ba  Ba5  1  0.00174166  0.37568369  0.33455203  1
  Ba  Ba6  1  0.16343492  0.62367176  0.83202626  1
  Ba  Ba7  1  0.66464746  0.62735461  0.33069036  1
  Ba  Ba8  1  0.16866663  0.37275729  0.49571144  1
  Ba  Ba9  1  0.83140281  0.62515419  0.16733973  1
  Ba  Ba10  1  0.33359821  0.87577619  -0.00116868  1
  Ba  Ba11  1  0.66812456  0.87616913  0.00122907  1
  Ba  Ba12  1  0.83661077  0.87472932  0.83634634  1
  Ba  Ba13  1  -0.00190662  0.62559244  0.33233517  1
  Ba  Ba14  1  0.66677081  0.37323387  0.00225035  1
  Ba  Ba15  1  0.66297545  0.62503147  0.66559448  1
  Ba  Ba16  1  0.66853226  0.37323998  0.66823105  1
  Sr  Sr17  1  0.66005741  0.62474864  1.00010671  1
  Sr  Sr18  1  0.83463479  0.12364079  0.50424862  1
  Sr  Sr19  1  0.00496324  0.87445965  0.00345246  1
  Sr  Sr20  1  0.49716020  0.12283085  0.16721186  1
  Sr  Sr21  1  0.50119754  0.62442042  0.16387617  1
  La  La22  1  0.15979901  0.12499264  0.49947869  1
  La  La23  1  0.66933725  0.37541726  0.33395035  1
  La  La24  1  0.33834693  0.37547095  0.66452011  1
  La  La25  1  0.83657682  0.37814969  0.16806130  1
  La  La26  1  0.67181338  0.87717006  0.32993060  1
  La  La27  1  0.00524935  0.37583661  0.00360172  1
  La  La28  1  0.50555065  0.37506275  0.49565154  1
  La  La29  1  0.15924861  0.12500474  0.83558776  1
  Pr  Pr30  1  -0.00953342  0.12466005  0.99615615  1
  Pr  Pr31  1  0.50468159  0.87064548  0.16424405  1
  Pr  Pr32  1  -0.01048549  0.62587682  0.99710560  1
  Pr  Pr33  1  0.17321020  0.37772612  0.16718699  1
  Pr  Pr34  1  -0.00377772  0.12670006  0.33340438  1
  Pr  Pr35  1  0.82631859  0.12559169  0.83734915  1
  Pr  Pr36  1  0.17228737  0.87523338  0.83243140  1
  Pr  Pr37  1  0.82916605  0.62607959  0.49899374  1
  Pr  Pr38  1  0.33688181  0.37882356  -0.00129901  1
  Pr  Pr39  1  0.32997982  0.12883556  0.99644914  1
  Pr  Pr40  1  0.84359608  0.86938019  0.16019602  1
  Pr  Pr41  1  0.66400047  0.12455702  0.33420631  1
  Pr  Pr42  1  0.83520356  0.37371349  0.49825310  1
  Pr  Pr43  1  0.32968246  0.12749562  0.32817419  1
  Pr  Pr44  1  0.83726534  0.87571531  0.50192410  1
  Pr  Pr45  1  0.17265929  0.87043390  0.16246059  1
  Pr  Pr46  1  0.49543656  0.62257722  0.50370757  1
  Pr  Pr47  1  0.17374774  0.37427774  0.82576249  1
  Pr  Pr48  1  0.82369125  0.62420460  0.84002794  1
  Pr  Pr49  1  0.51002790  0.87533071  0.49956478  1
  Pr  Pr50  1  0.50784405  0.87475026  0.83288084  1
  Pr  Pr51  1  0.50614805  0.37591564  0.83273714  1
  Pr  Pr52  1  0.15291398  0.62528947  0.50223480  1
  Pr  Pr53  1  0.65627900  0.12467095  1.00145737  1
  Pr  Pr54  1  0.83947236  0.37740262  0.83070585  1
  Pr  Pr55  1  0.34154113  0.87587966  0.67259477  1
  Pr  Pr56  1  0.34055101  0.87650732  0.33112149  1
  Pr  Pr57  1  0.67099215  0.12231911  0.66523055  1
  Pr  Pr58  1  0.34082335  0.37519711  0.33469699  1
  Pr  Pr59  1  0.17327628  0.87700411  0.49695840  1
  Pr  Pr60  1  0.82776914  0.12200398  0.17011967  1
  Pr  Pr61  1  0.50085854  0.12543070  0.50284658  1
  Pr  Pr62  1  0.33117162  0.12510150  0.66110685  1
  Pr  Pr63  1  0.67218467  0.87667231  0.67534553  1
  Pr  Pr64  1  -0.00924508  0.62791545  0.66520311  1
  Pr  Pr65  1  0.49689912  0.12687221  0.83673552  1
  Pr  Pr66  1  0.32561339  0.62710239  0.65716583  1
  Pr  Pr67  1  0.33170558  0.62284619  0.99845574  1
  Pr  Pr68  1  0.16476988  0.62766283  0.16602158  1
  Pr  Pr69  1  0.00444591  0.37402487  0.66672886  1
  Pr  Pr70  1  0.00992518  0.87728189  0.67195864  1
  Pr  Pr71  1  0.16265602  0.12096285  0.16591792  1
  Mn  Mn72  1  0.00177062  0.00234588  0.16568800  1
  Mn  Mn73  1  0.00047303  -0.00237898  0.50070595  1
  Mn  Mn74  1  0.00053369  -0.00081902  0.83570776  1
  Mn  Mn75  1  0.00292124  0.49760847  0.16537063  1
  Mn  Mn76  1  -0.00269366  0.50174045  0.50223079  1
  Mn  Mn77  1  -0.00085649  0.49917737  0.83360141  1
  Mn  Mn78  1  0.33301867  0.00164355  0.16599335  1
  Mn  Mn79  1  0.33565689  0.00017999  0.49835249  1
  Mn  Mn80  1  0.33279555  0.00173375  0.83118133  1
  Mn  Mn81  1  0.33330273  0.49957162  0.16613868  1
  Mn  Mn82  1  0.33285217  0.49989261  0.49884557  1
  Mn  Mn83  1  0.33321252  0.49929657  0.83128180  1
  Mn  Mn84  1  0.66640896  0.00209021  0.16834860  1
  Mn  Mn85  1  0.66870377  -0.00051662  0.50236277  1
  Mn  Mn86  1  0.66585368  0.00292114  0.83408214  1
  Mn  Mn87  1  0.66566329  0.49974199  0.16690260  1
  Mn  Mn88  1  0.66658433  0.49939746  0.49878761  1
  Mn  Mn89  1  0.66610887  0.49864562  0.83512654  1
  Mn  Mn90  1  0.00153900  0.24836615  0.16474408  1
  Mn  Mn91  1  -0.00165711  0.24871959  0.50000453  1
  Mn  Mn92  1  -0.00101425  0.25036395  0.83562356  1
  Mn  Mn93  1  0.00292251  0.74990380  0.16481092  1
  Mn  Mn94  1  -0.00089430  0.75233440  0.50274917  1
  Mn  Mn95  1  0.00115678  0.75077637  0.83343437  1
  Mn  Mn96  1  0.33140460  0.24885342  0.16410166  1
  Mn  Mn97  1  0.33561694  0.24654211  0.49691526  1
  Mn  Mn98  1  0.33230937  0.24910096  0.82988016  1
  Mn  Mn99  1  0.33403578  0.74969299  0.16610904  1
  Mn  Mn100  1  0.33317690  0.75543414  0.50069333  1
  Mn  Mn101  1  0.33312731  0.74979397  0.83150836  1
  Mn  Mn102  1  0.66797070  0.24660008  0.16858135  1
  Mn  Mn103  1  0.66815861  0.24698902  0.50164362  1
  Mn  Mn104  1  0.66685809  0.24888242  0.83484136  1
  Mn  Mn105  1  0.66587898  0.75044801  0.16611777  1
  Mn  Mn106  1  0.66640733  0.75274766  0.50010138  1
  Mn  Mn107  1  0.66569017  0.74997073  0.83442056  1
  Mn  Mn108  1  0.16628008  0.25181883  -0.00083549  1
  Mn  Mn109  1  0.16797831  0.24706237  0.33071510  1
  Mn  Mn110  1  0.16765886  0.24939332  0.66507358  1
  Mn  Mn111  1  0.16555230  0.74889862  -0.00188601  1
  Mn  Mn112  1  0.17019679  0.75137417  0.33341046  1
  Mn  Mn113  1  0.16746272  0.75122350  0.66445145  1
  Mn  Mn114  1  0.49672028  0.24782687  0.00037722  1
  Mn  Mn115  1  0.50026421  0.24655983  0.33468174  1
  Mn  Mn116  1  0.49911669  0.24710639  0.66770220  1
  Mn  Mn117  1  0.49786992  0.74981306  -0.00049086  1
  Mn  Mn118  1  0.50125585  0.75386109  0.33356421  1
  Mn  Mn119  1  0.49723470  0.75218142  0.66533566  1
  Mn  Mn120  1  0.83339671  0.24918760  0.00179876  1
  Mn  Mn121  1  0.83249207  0.24576923  0.33489698  1
  Mn  Mn122  1  0.83561414  0.25069827  0.66774669  1
  Mn  Mn123  1  0.83312161  0.74989568  -0.00016444  1
  Mn  Mn124  1  0.83311585  0.75528467  0.33319955  1
  Mn  Mn125  1  0.83306808  0.75018835  0.66733059  1
  Mn  Mn126  1  0.16580676  0.00187657  0.00080067  1
  Mn  Mn127  1  0.16918268  -0.00002647  0.33237296  1
  Mn  Mn128  1  0.16967084  0.00133975  0.66503493  1
  Mn  Mn129  1  0.16617896  0.49822461  -0.00157266  1
  Mn  Mn130  1  0.16913311  0.50129459  0.33227706  1
  Mn  Mn131  1  0.16546695  0.49944237  0.66522486  1
  Mn  Mn132  1  0.49665743  0.00154421  0.00141084  1
  Mn  Mn133  1  0.49989718  0.00092496  0.33441525  1
  Mn  Mn134  1  0.50016730  0.00241588  0.66738444  1
  Mn  Mn135  1  0.49889960  0.50037143  -0.00008084  1
  Mn  Mn136  1  0.50149128  0.50037620  0.33272376  1
  Mn  Mn137  1  0.49675966  0.49779703  0.66606622  1
  Mn  Mn138  1  0.83406603  0.00102474  0.00386128  1
  Mn  Mn139  1  0.83408959  0.00071258  0.33528491  1
  Mn  Mn140  1  0.83509502  -0.00075796  0.66783839  1
  Mn  Mn141  1  0.83234727  0.49783203  -0.00110276  1
  Mn  Mn142  1  0.83226197  0.49877547  0.33335634  1
  Mn  Mn143  1  0.83435934  0.50050965  0.66695735  1
  O  O144  1  0.17402302  0.12948030  0.02310947  1
  O  O145  1  0.17648826  0.12168992  0.35707537  1
  O  O146  1  0.17389233  0.12590456  0.69032757  1
  O  O147  1  0.17418523  0.61897726  0.02179665  1
  O  O148  1  0.17006938  0.63039124  0.35800094  1
  O  O149  1  0.17030332  0.62572446  0.67545924  1
  O  O150  1  0.49161189  0.12424642  0.01660572  1
  O  O151  1  0.49666565  0.12198906  0.36028013  1
  O  O152  1  0.49058510  0.12412653  0.69427889  1
  O  O153  1  0.49193164  0.62486298  0.01283934  1
  O  O154  1  0.50011921  0.63164699  0.35893140  1
  O  O155  1  0.48623217  0.62862402  0.67074026  1
  O  O156  1  0.83970248  0.12627109  0.02594689  1
  O  O157  1  0.83459972  0.12247635  0.35672062  1
  O  O158  1  0.83025951  0.12400115  0.69098801  1
  O  O159  1  0.83883815  0.62288716  0.00816330  1
  O  O160  1  0.83038536  0.63176994  0.35370544  1
  O  O161  1  0.84114302  0.62502282  0.69375777  1
  O  O162  1  0.17327295  0.36971485  0.31218685  1
  O  O163  1  0.16351368  0.37336074  0.65289619  1
  O  O164  1  0.16295893  0.37317122  0.96825868  1
  O  O165  1  0.17449065  0.87847949  0.30728173  1
  O  O166  1  0.16593704  0.87631878  0.64185971  1
  O  O167  1  0.16270632  0.87943319  0.97606157  1
  O  O168  1  0.50029289  0.36889400  0.32610621  1
  O  O169  1  0.49476485  0.36742290  0.64095193  1
  O  O170  1  0.49077690  0.37009813  0.97722617  1
  O  O171  1  0.50076399  0.88078712  0.30903706  1
  O  O172  1  0.50050224  0.88067717  0.64282867  1
  O  O173  1  0.49822658  0.88061052  0.97759796  1
  O  O174  1  0.82867792  0.36524872  0.31225537  1
  O  O175  1  0.83885864  0.37798819  0.64348123  1
  O  O176  1  0.83909179  0.37167944  0.97535896  1
  O  O177  1  0.83096883  0.88180081  0.30758752  1
  O  O178  1  0.82424913  0.87428896  0.64719394  1
  O  O179  1  0.83865827  0.87680389  0.99486279  1
  O  O180  1  -0.00367427  0.37079082  0.17775818  1
  O  O181  1  -0.00866626  0.37972635  0.52121528  1
  O  O182  1  -0.00743691  0.37311199  0.86081540  1
  O  O183  1  -0.00286289  0.87866864  0.17467252  1
  O  O184  1  0.00066219  0.87402105  0.52598120  1
  O  O185  1  0.00882953  0.87764012  0.85308951  1
  O  O186  1  0.32435902  0.37136508  0.19079626  1
  O  O187  1  0.33752824  0.36903020  0.52025362  1
  O  O188  1  0.32520371  0.37026569  0.85547259  1
  O  O189  1  0.32306922  0.87853480  0.18708402  1
  O  O190  1  0.32327507  0.88050853  0.52876842  1
  O  O191  1  0.32552760  0.87678787  0.84266383  1
  O  O192  1  0.67064395  0.36666763  0.18744944  1
  O  O193  1  0.66469443  0.37254316  0.51194635  1
  O  O194  1  0.66408711  0.37023776  0.84418097  1
  O  O195  1  0.65557499  0.88078250  0.18429280  1
  O  O196  1  0.66126626  0.87910613  0.53167452  1
  O  O197  1  0.65931753  0.87890277  0.84163225  1
  O  O198  1  0.00869622  0.12711401  0.13854467  1
  O  O199  1  0.00152545  0.11885096  0.48016239  1
  O  O200  1  0.00138472  0.12582997  0.82144926  1
  O  O201  1  0.01084251  0.62163950  0.14268636  1
  O  O202  1  0.00296807  0.62890673  0.49068513  1
  O  O203  1  -0.00459959  0.62227110  0.80831478  1
  O  O204  1  0.33064913  0.12640420  0.14022312  1
  O  O205  1  0.34568000  0.12129435  0.47077290  1
  O  O206  1  0.33602258  0.12648707  0.80379174  1
  O  O207  1  0.33323962  0.62310505  0.14334038  1
  O  O208  1  0.34775661  0.63118794  0.49311737  1
  O  O209  1  0.33341043  0.62535871  0.80399783  1
  O  O210  1  0.67732326  0.12394046  0.14477161  1
  O  O211  1  0.66790423  0.12130040  0.47737531  1
  O  O212  1  0.66826413  0.12652238  0.81015390  1
  O  O213  1  0.66583638  0.62762912  0.15349317  1
  O  O214  1  0.66766796  0.62440556  0.48803555  1
  O  O215  1  0.67143235  0.62467503  0.82519269  1
  O  O216  1  0.07926103  0.02550072  0.25544933  1
  O  O217  1  0.08745103  0.01254320  0.58269205  1
  O  O218  1  0.07967886  0.02451707  0.92488240  1
  O  O219  1  0.08688934  0.51078670  0.24529785  1
  O  O220  1  0.07307633  0.51537110  0.59326502  1
  O  O221  1  0.06953458  0.51528833  0.92862520  1
  O  O222  1  0.40685583  0.01600208  0.25848370  1
  O  O223  1  0.41470785  0.02098582  0.58668189  1
  O  O224  1  0.40975026  0.02323259  0.91739073  1
  O  O225  1  0.41210455  0.50256905  0.25579632  1
  O  O226  1  0.40271407  0.50924629  0.59411084  1
  O  O227  1  0.40633585  0.51091989  0.92228463  1
  O  O228  1  0.74419858  0.02058686  0.25961145  1
  O  O229  1  0.74523899  0.01748240  0.58932659  1
  O  O230  1  0.74570970  0.02391077  0.92414229  1
  O  O231  1  0.74762272  0.49885624  0.25442439  1
  O  O232  1  0.75299874  0.51298171  0.57975170  1
  O  O233  1  0.74772540  0.51201736  0.92052352  1
  O  O234  1  0.24405008  0.22563722  0.24123449  1
  O  O235  1  0.25267051  0.22505624  0.57526276  1
  O  O236  1  0.24538581  0.22674712  0.90946601  1
  O  O237  1  0.24419541  0.73480538  0.23989502  1
  O  O238  1  0.23753347  0.73356753  0.56913537  1
  O  O239  1  0.24439682  0.73967468  0.91095663  1
  O  O240  1  0.58451724  0.22835170  0.25683159  1
  O  O241  1  0.58203278  0.22267231  0.58755241  1
  O  O242  1  0.57840788  0.22787223  0.91676599  1
  O  O243  1  0.57537715  0.74453187  0.24412523  1
  O  O244  1  0.56478669  0.73901547  0.57022871  1
  O  O245  1  0.57578111  0.74639608  0.91209061  1
  O  O246  1  0.91319990  0.22491004  0.24901554  1
  O  O247  1  0.91276244  0.24144416  0.58218737  1
  O  O248  1  0.90848253  0.22749769  0.91062262  1
  O  O249  1  0.91475224  0.74721247  0.24508971  1
  O  O250  1  0.90910737  0.73068363  0.57999703  1
  O  O251  1  0.91187041  0.73046258  0.90921176  1
  O  O252  1  0.09133490  0.47565553  0.08668654  1
  O  O253  1  0.08697456  0.49700130  0.42347085  1
  O  O254  1  0.08624181  0.47524800  0.75957813  1
  O  O255  1  0.09315810  0.98599546  0.09317029  1
  O  O256  1  0.09447849  0.98576450  0.42297046  1
  O  O257  1  0.09174168  0.98295688  0.75582769  1
  O  O258  1  0.41170870  0.48472815  0.08041056  1
  O  O259  1  0.42528749  0.48456412  0.42724715  1
  O  O260  1  0.41992455  0.47187615  0.75596013  1
  O  O261  1  0.42263263  0.98329453  0.09542646  1
  O  O262  1  0.42155382  0.97218988  0.42302100  1
  O  O263  1  0.42298523  0.97849744  0.75302640  1
  O  O264  1  0.76026411  0.48218874  0.08914806  1
  O  O265  1  0.75167145  0.47870353  0.41943858  1
  O  O266  1  0.76199779  0.48737444  0.75872079  1
  O  O267  1  0.76255863  0.98707284  0.09799167  1
  O  O268  1  0.75157445  0.97473592  0.42408301  1
  O  O269  1  0.74864125  0.99045012  0.74936065  1
  O  O270  1  0.25123830  0.27576677  0.07384965  1
  O  O271  1  0.26165759  0.25964020  0.40367812  1
  O  O272  1  0.25439740  0.26986410  0.74487270  1
  O  O273  1  0.25024609  0.75999247  0.08134067  1
  O  O274  1  0.26008656  0.77709240  0.41114626  1
  O  O275  1  0.25868421  0.76746771  0.73599913  1
  O  O276  1  0.58635710  0.24833707  0.08261020  1
  O  O277  1  0.58264876  0.25774242  0.42122712  1
  O  O278  1  0.57476077  0.25991566  0.75488873  1
  O  O279  1  0.58188575  0.76222783  0.08287465  1
  O  O280  1  0.58910457  0.77810683  0.41102784  1
  O  O281  1  0.58506263  0.76933499  0.74083104  1
  O  O282  1  0.92518706  0.26497833  0.07269919  1
  O  O283  1  0.91255085  0.26250072  0.41878478  1
  O  O284  1  0.92272291  0.27382339  0.74830418  1
  O  O285  1  0.92347905  0.75745773  0.07813958  1
  O  O286  1  0.91396290  0.76722282  0.42244772  1
  O  O287  1  0.93056243  0.76789201  0.73759794  1
  O  O288  1  0.25202801  0.47526061  0.07671605  1
  O  O289  1  0.26354583  0.48262131  0.40600883  1
  O  O290  1  0.25550400  0.48052352  0.74227133  1
  O  O291  1  0.24833805  0.98845181  0.08313338  1
  O  O292  1  0.25820934  0.97959885  0.41199043  1
  O  O293  1  0.25488668  0.98199456  0.74264576  1
  O  O294  1  0.58347866  0.49485195  0.08028896  1
  O  O295  1  0.58865768  0.48140245  0.41228941  1
  O  O296  1  0.58037246  0.48697319  0.74825263  1
  O  O297  1  0.58461079  0.99612196  0.08308220  1
  O  O298  1  0.58759543  0.98143353  0.41877650  1
  O  O299  1  0.58440188  0.98543131  0.74463654  1
  O  O300  1  0.92560870  0.48497712  0.07337141  1
  O  O301  1  0.90946368  0.48972529  0.42399255  1
  O  O302  1  0.92549598  0.47523287  0.74360171  1
  O  O303  1  0.92340500  0.99135452  0.08067150  1
  O  O304  1  0.91671961  0.98276419  0.41913992  1
  O  O305  1  0.92441969  0.98204136  0.74413097  1
  O  O306  1  0.09307455  0.27281431  0.08608594  1
  O  O307  1  0.08493369  0.24912358  0.41469645  1
  O  O308  1  0.08648305  0.26836304  0.76036478  1
  O  O309  1  0.09222731  0.76469098  0.08910853  1
  O  O310  1  0.09536583  0.76562289  0.42989068  1
  O  O311  1  0.09378372  0.77368726  0.75554757  1
  O  O312  1  0.40873503  0.26384786  0.07550715  1
  O  O313  1  0.42009359  0.26842683  0.42044053  1
  O  O314  1  0.41569031  0.27355195  0.75037190  1
  O  O315  1  0.42274282  0.76625619  0.09275060  1
  O  O316  1  0.42422741  0.77714985  0.42695474  1
  O  O317  1  0.42504841  0.77672481  0.75640515  1
  O  O318  1  0.76479617  0.26280953  0.09453477  1
  O  O319  1  0.75078955  0.26770521  0.41679216  1
  O  O320  1  0.76261302  0.26189279  0.76149370  1
  O  O321  1  0.75700806  0.76576341  0.09149536  1
  O  O322  1  0.75332871  0.77689869  0.41983175  1
  O  O323  1  0.75052692  0.76203600  0.74849323  1
  O  O324  1  0.24653717  0.02431164  0.24538929  1
  O  O325  1  0.25073387  0.02699950  0.57537383  1
  O  O326  1  0.24399359  0.02320416  0.91095045  1
  O  O327  1  0.24257449  0.51555078  0.23657482  1
  O  O328  1  0.24332463  0.52027535  0.57055516  1
  O  O329  1  0.24881343  0.51196397  0.91535718  1
  O  O330  1  0.58311542  0.02250374  0.25385996  1
  O  O331  1  0.58034087  0.02619390  0.58333974  1
  O  O332  1  0.57772408  0.02336614  0.91245998  1
  O  O333  1  0.57887123  0.50671196  0.24856406  1
  O  O334  1  0.57004015  0.50934977  0.57165618  1
  O  O335  1  0.57603808  0.50122901  0.91361902  1
  O  O336  1  0.91618175  0.02425078  0.24616424  1
  O  O337  1  0.91139996  0.00418009  0.58084648  1
  O  O338  1  0.91006214  0.02159404  0.91491198  1
  O  O339  1  0.91501979  0.50298344  0.24544712  1
  O  O340  1  0.91205122  0.52651003  0.58260673  1
  O  O341  1  0.90807631  0.51671304  0.90534913  1
  O  O342  1  0.08217402  0.22387818  0.25253240  1
  O  O343  1  0.08508932  0.23713613  0.58184155  1
  O  O344  1  0.07697434  0.22938018  0.92504039  1
  O  O345  1  0.08648177  0.73858005  0.24713268  1
  O  O346  1  0.07339795  0.73523733  0.59587715  1
  O  O347  1  0.07282431  0.73074126  0.92669302  1
  O  O348  1  0.41086275  0.23286561  0.25588945  1
  O  O349  1  0.41629996  0.22449540  0.58432848  1
  O  O350  1  0.41160634  0.22798973  0.91218831  1
  O  O351  1  0.41225574  0.75152916  0.25606001  1
  O  O352  1  0.39881620  0.74792801  0.59820846  1
  O  O353  1  0.40558875  0.73421381  0.92373632  1
  O  O354  1  0.74778535  0.22279393  0.25659626  1
  O  O355  1  0.74667361  0.23106187  0.58941127  1
  O  O356  1  0.74563333  0.22353404  0.92732087  1
  O  O357  1  0.74528392  0.75450009  0.25335870  1
  O  O358  1  0.75126210  0.73673152  0.58096197  1
  O  O359  1  0.74938399  0.73712576  0.91983247  1
