# generated using pymatgen
data_Ba17Sr5La8Pr42Mn72O216
_symmetry_space_group_name_H-M   'P 1'
_cell_length_a   16.67462348
_cell_length_b   15.70899936
_cell_length_c   16.81845353
_cell_angle_alpha   90.00574226
_cell_angle_beta   89.98215305
_cell_angle_gamma   90.01396798
_symmetry_Int_Tables_number   1
_chemical_formula_structural   Ba17Sr5La8Pr42Mn72O216
_chemical_formula_sum   'Ba17 Sr5 La8 Pr42 Mn72 O216'
_cell_volume   4405.45309672
_cell_formula_units_Z   1
loop_
 _symmetry_equiv_pos_site_id
 _symmetry_equiv_pos_as_xyz
  1  'x, y, z'
loop_
 _atom_site_type_symbol
 _atom_site_label
 _atom_site_symmetry_multiplicity
 _atom_site_fract_x
 _atom_site_fract_y
 _atom_site_fract_z
 _atom_site_occupancy
  Ba  Ba0  1  0.66614825  0.12418717  0.33230684  1
  Ba  Ba1  1  0.49804640  0.62423444  0.83180913  1
  Ba  Ba2  1  0.66487998  0.62292896  0.99856519  1
  Ba  Ba3  1  0.00194412  0.37504996  0.33535009  1
  Ba  Ba4  1  0.49681239  0.87414873  0.83138446  1
  Ba  Ba5  1  0.33353630  0.87755156  0.00138567  1
  Ba  Ba6  1  0.67108487  0.37685843  -0.00082345  1
  Ba  Ba7  1  0.16598307  0.62684692  0.16858913  1
  Ba  Ba8  1  0.32927868  0.87614979  0.66860639  1
  Ba  Ba9  1  0.83118851  0.12370491  0.16909597  1
  Ba  Ba10  1  0.66620139  0.62423623  0.66355477  1
  Ba  Ba11  1  0.16790441  0.87552267  0.16720780  1
  Ba  Ba12  1  -0.00163790  0.87432638  0.00061149  1
  Ba  Ba13  1  0.00123146  0.62573797  0.99980108  1
  Ba  Ba14  1  0.66673171  0.12559209  0.66377986  1
  Ba  Ba15  1  0.66712443  0.87582619  0.66664386  1
  Ba  Ba16  1  0.33296304  0.62342083  0.33422621  1
  Sr  Sr17  1  0.83314250  0.12387187  0.50142626  1
  Sr  Sr18  1  0.83082337  0.87501968  0.50135540  1
  Sr  Sr19  1  0.66642365  0.62719470  0.33015385  1
  Sr  Sr20  1  -0.00096694  0.62373191  0.32796408  1
  Sr  Sr21  1  0.84019553  0.37755038  0.83339012  1
  La  La22  1  0.49847636  0.62462800  0.16566276  1
  La  La23  1  0.50750057  0.37697614  0.16718040  1
  La  La24  1  0.67823985  0.37368293  0.66979567  1
  La  La25  1  0.49701173  0.12423254  0.50323309  1
  La  La26  1  0.00356654  0.37350932  0.00447449  1
  La  La27  1  0.67020368  0.87658049  0.33537097  1
  La  La28  1  0.66447106  0.87209040  -0.00219544  1
  La  La29  1  0.49804335  0.12718213  0.16876150  1
  Pr  Pr30  1  -0.00360611  0.87801022  0.67013497  1
  Pr  Pr31  1  -0.00375605  0.12549337  0.66543415  1
  Pr  Pr32  1  0.50640264  0.87368747  0.49864717  1
  Pr  Pr33  1  0.33908876  0.37444139  0.00196961  1
  Pr  Pr34  1  0.83281874  0.87014883  0.82886677  1
  Pr  Pr35  1  0.82821984  0.62545069  0.83746665  1
  Pr  Pr36  1  0.17061109  0.37771135  0.83181479  1
  Pr  Pr37  1  0.17292683  0.37501912  0.49467926  1
  Pr  Pr38  1  0.49307544  0.12143619  0.83343370  1
  Pr  Pr39  1  0.16195908  0.87436473  0.83166287  1
  Pr  Pr40  1  0.51109488  0.37492688  0.83044512  1
  Pr  Pr41  1  0.17417204  0.37906358  0.16683111  1
  Pr  Pr42  1  0.83209283  0.87317709  0.16751519  1
  Pr  Pr43  1  0.16666223  0.87607734  0.49576356  1
  Pr  Pr44  1  -0.00096426  0.62523492  0.66727563  1
  Pr  Pr45  1  -0.00393363  0.12378247  0.33234946  1
  Pr  Pr46  1  0.83910199  0.37580622  0.16511816  1
  Pr  Pr47  1  0.50120053  0.87419895  0.16314801  1
  Pr  Pr48  1  0.83411633  0.62441492  0.49978557  1
  Pr  Pr49  1  -0.00321316  0.87324324  0.33524070  1
  Pr  Pr50  1  0.83468848  0.37362115  0.49867682  1
  Pr  Pr51  1  0.32460460  0.12548962  0.99973283  1
  Pr  Pr52  1  0.67713375  0.37432137  0.33055975  1
  Pr  Pr53  1  0.33264708  0.87216060  0.33828470  1
  Pr  Pr54  1  0.51304534  0.37654031  0.49600968  1
  Pr  Pr55  1  0.82550269  0.12259612  0.83756576  1
  Pr  Pr56  1  0.66143503  0.12760747  0.99657594  1
  Pr  Pr57  1  0.00472027  0.37384872  0.66825661  1
  Pr  Pr58  1  0.34264180  0.37395649  0.66968370  1
  Pr  Pr59  1  0.34002100  0.37704348  0.33591740  1
  Pr  Pr60  1  0.16050031  0.62449316  0.49850688  1
  Pr  Pr61  1  -0.00538031  0.12263670  0.99997068  1
  Pr  Pr62  1  0.15972608  0.12674726  0.50318674  1
  Pr  Pr63  1  0.33206645  0.62686441  0.66375638  1
  Pr  Pr64  1  0.16251752  0.12463176  0.83431940  1
  Pr  Pr65  1  0.83244340  0.62527827  0.16817338  1
  Pr  Pr66  1  0.32919723  0.12371609  0.66534711  1
  Pr  Pr67  1  0.32810997  0.12832576  0.33345535  1
  Pr  Pr68  1  0.49451404  0.62642544  0.50418772  1
  Pr  Pr69  1  0.33066930  0.62746171  0.99941560  1
  Pr  Pr70  1  0.16099583  0.12114032  0.16835303  1
  Pr  Pr71  1  0.16718837  0.62696432  0.83795853  1
  Mn  Mn72  1  -0.00171907  -0.00029036  0.16785455  1
  Mn  Mn73  1  -0.00065629  -0.00143478  0.50119575  1
  Mn  Mn74  1  -0.00193649  0.00218675  0.83268563  1
  Mn  Mn75  1  0.00069848  0.49903990  0.16743526  1
  Mn  Mn76  1  0.00078810  0.50231814  0.50141636  1
  Mn  Mn77  1  0.00230479  0.49847440  0.83253124  1
  Mn  Mn78  1  0.33515840  0.00444836  0.16986839  1
  Mn  Mn79  1  0.33269526  0.00120661  0.50000833  1
  Mn  Mn80  1  0.32822918  0.00304586  0.83337761  1
  Mn  Mn81  1  0.33594586  0.49661702  0.16671466  1
  Mn  Mn82  1  0.33315336  0.49817245  0.50254772  1
  Mn  Mn83  1  0.33261586  0.49668447  0.83312573  1
  Mn  Mn84  1  0.66471830  -0.00256188  0.16512323  1
  Mn  Mn85  1  0.66694942  -0.00006839  0.49855687  1
  Mn  Mn86  1  0.66516715  0.00215446  0.83390029  1
  Mn  Mn87  1  0.66854394  0.50222305  0.16837488  1
  Mn  Mn88  1  0.66835261  0.50058862  0.49639361  1
  Mn  Mn89  1  0.66982233  0.49798473  0.83139618  1
  Mn  Mn90  1  0.00209811  0.24941934  0.16750358  1
  Mn  Mn91  1  -0.00003621  0.24962529  0.50198885  1
  Mn  Mn92  1  0.00047777  0.24976599  0.83454055  1
  Mn  Mn93  1  -0.00204477  0.74929254  0.16909283  1
  Mn  Mn94  1  0.00023612  0.74964039  0.50053782  1
  Mn  Mn95  1  0.00022195  0.74992648  0.83073759  1
  Mn  Mn96  1  0.33381909  0.24983794  0.16752000  1
  Mn  Mn97  1  0.33366871  0.25081111  0.50110569  1
  Mn  Mn98  1  0.33196974  0.25092803  0.83392311  1
  Mn  Mn99  1  0.33470827  0.75068205  0.16852575  1
  Mn  Mn100  1  0.33169282  0.75039081  0.50155468  1
  Mn  Mn101  1  0.32972508  0.74873132  0.83224479  1
  Mn  Mn102  1  0.66738697  0.25081814  0.16523911  1
  Mn  Mn103  1  0.66783219  0.25075884  0.49954495  1
  Mn  Mn104  1  0.66829771  0.25016117  0.83135256  1
  Mn  Mn105  1  0.66563084  0.75041085  0.16713421  1
  Mn  Mn106  1  0.66713674  0.74936984  0.49554125  1
  Mn  Mn107  1  0.66598084  0.74952538  0.83259018  1
  Mn  Mn108  1  0.16620888  0.25047808  0.00072347  1
  Mn  Mn109  1  0.16817130  0.24838555  0.33352760  1
  Mn  Mn110  1  0.16662942  0.25208712  0.66614467  1
  Mn  Mn111  1  0.16741090  0.75025259  0.00019791  1
  Mn  Mn112  1  0.16510212  0.75137992  0.33495236  1
  Mn  Mn113  1  0.16363409  0.74840522  0.66626194  1
  Mn  Mn114  1  0.49850332  0.24896591  -0.00025297  1
  Mn  Mn115  1  0.50010966  0.25128999  0.33505423  1
  Mn  Mn116  1  0.49885284  0.25158081  0.66555229  1
  Mn  Mn117  1  0.49806663  0.75036588  0.00029018  1
  Mn  Mn118  1  0.49974504  0.75036870  0.33130097  1
  Mn  Mn119  1  0.49793585  0.74944681  0.66483776  1
  Mn  Mn120  1  0.83488186  0.24909493  -0.00043707  1
  Mn  Mn121  1  0.83494283  0.25002517  0.33437304  1
  Mn  Mn122  1  0.83821959  0.25055995  0.66716068  1
  Mn  Mn123  1  0.83172015  0.75079475  -0.00006867  1
  Mn  Mn124  1  0.83425745  0.74953244  0.33406006  1
  Mn  Mn125  1  0.83503076  0.74845189  0.66527471  1
  Mn  Mn126  1  0.16491949  0.00275473  0.00052119  1
  Mn  Mn127  1  0.16695728  0.00149230  0.33525177  1
  Mn  Mn128  1  0.16356909  0.00184569  0.66613183  1
  Mn  Mn129  1  0.16838094  0.49704955  -0.00196068  1
  Mn  Mn130  1  0.16771518  0.49839412  0.33304314  1
  Mn  Mn131  1  0.16677378  0.49918884  0.66573469  1
  Mn  Mn132  1  0.49960663  0.00235038  0.00196072  1
  Mn  Mn133  1  0.49663778  -0.00008026  0.33225645  1
  Mn  Mn134  1  0.49713525  0.00218596  0.66652671  1
  Mn  Mn135  1  0.49761361  0.49762715  -0.00104832  1
  Mn  Mn136  1  0.50348078  0.50069820  0.33351257  1
  Mn  Mn137  1  0.49950390  0.49767500  0.66385911  1
  Mn  Mn138  1  0.82970892  -0.00068498  0.00079865  1
  Mn  Mn139  1  0.83449220  -0.00156769  0.33589435  1
  Mn  Mn140  1  0.83426321  0.00046738  0.66739603  1
  Mn  Mn141  1  0.83696374  0.49905749  -0.00092412  1
  Mn  Mn142  1  0.83351555  0.50091568  0.33385182  1
  Mn  Mn143  1  0.83850721  0.50047323  0.66564009  1
  O  O144  1  0.16706418  0.12988930  0.02490310  1
  O  O145  1  0.16856062  0.12561940  0.36075095  1
  O  O146  1  0.16633443  0.13088126  0.69125680  1
  O  O147  1  0.17352524  0.61818952  0.00916949  1
  O  O148  1  0.16194829  0.62710155  0.35292138  1
  O  O149  1  0.16590417  0.62044808  0.69487713  1
  O  O150  1  0.50527899  0.12616539  0.02511765  1
  O  O151  1  0.49508108  0.12763909  0.36110872  1
  O  O152  1  0.49290272  0.13135115  0.68648257  1
  O  O153  1  0.48992764  0.62191964  0.01949967  1
  O  O154  1  0.50337638  0.62229765  0.36051463  1
  O  O155  1  0.49108664  0.62191278  0.67082648  1
  O  O156  1  0.83019870  0.12345808  0.01340822  1
  O  O157  1  0.83993148  0.12333138  0.35063769  1
  O  O158  1  0.84262986  0.12674749  0.69227917  1
  O  O159  1  0.83259944  0.62333776  0.02085494  1
  O  O160  1  0.83149619  0.62522014  0.35625264  1
  O  O161  1  0.84250591  0.62282519  0.69314055  1
  O  O162  1  0.17344140  0.36857026  0.31254384  1
  O  O163  1  0.15874122  0.37511859  0.63553039  1
  O  O164  1  0.16745320  0.37121585  0.97434387  1
  O  O165  1  0.17529380  0.87903784  0.32531724  1
  O  O166  1  0.15988280  0.87371893  0.63983529  1
  O  O167  1  0.16772070  0.88139665  0.97700803  1
  O  O168  1  0.49405616  0.37477756  0.31118923  1
  O  O169  1  0.49276435  0.37365658  0.63982934  1
  O  O170  1  0.48955702  0.36976238  0.97375691  1
  O  O171  1  0.48891789  0.87718592  0.30617226  1
  O  O172  1  0.49700185  0.87410587  0.64718870  1
  O  O173  1  0.50287336  0.88001510  0.98939551  1
  O  O174  1  0.83231602  0.37663467  0.31169269  1
  O  O175  1  0.84517678  0.37723269  0.64201455  1
  O  O176  1  0.84691175  0.37255900  0.98382758  1
  O  O177  1  0.84190013  0.87371191  0.31354907  1
  O  O178  1  0.84295797  0.87336952  0.65218666  1
  O  O179  1  0.82928257  0.87926010  0.97265422  1
  O  O180  1  -0.00906985  0.37190543  0.17725687  1
  O  O181  1  -0.00280074  0.37790722  0.52483466  1
  O  O182  1  0.00216643  0.37066366  0.85987323  1
  O  O183  1  -0.01046982  0.87473996  0.18791962  1
  O  O184  1  0.00760108  0.87287304  0.52831055  1
  O  O185  1  -0.00068773  0.87850665  0.84474215  1
  O  O186  1  0.32768861  0.37058424  0.19182968  1
  O  O187  1  0.32135712  0.37447810  0.52701758  1
  O  O188  1  0.32519748  0.37189269  0.85928977  1
  O  O189  1  0.34165309  0.88505615  0.19303564  1
  O  O190  1  0.32270685  0.87639996  0.51283293  1
  O  O191  1  0.32128690  0.88112322  0.84407524  1
  O  O192  1  0.66142103  0.37868934  0.18607003  1
  O  O193  1  0.66521649  0.37650598  0.52404107  1
  O  O194  1  0.66229818  0.37278015  0.84056501  1
  O  O195  1  0.65306664  0.87267417  0.19022672  1
  O  O196  1  0.66094279  0.87508968  0.50898338  1
  O  O197  1  0.67227166  0.87978960  0.85094411  1
  O  O198  1  0.00752561  0.12687776  0.14687531  1
  O  O199  1  0.00615109  0.12266132  0.47537142  1
  O  O200  1  0.00749887  0.12708126  0.80691945  1
  O  O201  1  -0.00472024  0.62376208  0.15861024  1
  O  O202  1  0.00526756  0.62666865  0.47670310  1
  O  O203  1  0.01113082  0.62443257  0.81006383  1
  O  O204  1  0.34239326  0.12980867  0.14241139  1
  O  O205  1  0.33987624  0.12713713  0.47559150  1
  O  O206  1  0.33011956  0.13053122  0.80894493  1
  O  O207  1  0.34221379  0.61517678  0.14366310  1
  O  O208  1  0.34299668  0.62242430  0.49011753  1
  O  O209  1  0.32409738  0.61612343  0.80748492  1
  O  O210  1  0.66333619  0.12169939  0.14312097  1
  O  O211  1  0.66294612  0.12673285  0.48905511  1
  O  O212  1  0.67337647  0.12877913  0.82099592  1
  O  O213  1  0.67749840  0.62679570  0.15458111  1
  O  O214  1  0.67234636  0.62247790  0.47974261  1
  O  O215  1  0.67587861  0.61938885  0.82298896  1
  O  O216  1  0.08440854  0.01942924  0.25505741  1
  O  O217  1  0.08377367  0.02457472  0.58278676  1
  O  O218  1  0.08117389  0.02356526  0.91379179  1
  O  O219  1  0.08116286  0.50265165  0.25077842  1
  O  O220  1  0.07885437  0.52372460  0.59042663  1
  O  O221  1  0.08590990  0.50824211  0.91209952  1
  O  O222  1  0.41058684  0.03027493  0.25818973  1
  O  O223  1  0.41053251  0.02247157  0.58394263  1
  O  O224  1  0.41129337  0.02519224  0.92067057  1
  O  O225  1  0.42057591  0.50893949  0.24900244  1
  O  O226  1  0.40344334  0.51012126  0.59423794  1
  O  O227  1  0.40253683  0.51178858  0.92731247  1
  O  O228  1  0.74776523  -0.00330992  0.24954116  1
  O  O229  1  0.75597012  0.00915835  0.58470799  1
  O  O230  1  0.74224455  0.02079518  0.92323651  1
  O  O231  1  0.74660021  0.51285835  0.25639565  1
  O  O232  1  0.75714871  0.51073767  0.57676473  1
  O  O233  1  0.75642546  0.50790133  0.91518512  1
  O  O234  1  0.24475553  0.22427627  0.24241566  1
  O  O235  1  0.24220624  0.22735483  0.57577047  1
  O  O236  1  0.24088215  0.22690398  0.91269631  1
  O  O237  1  0.25453566  0.74736983  0.25574476  1
  O  O238  1  0.24803277  0.72596680  0.58754878  1
  O  O239  1  0.25162931  0.72861853  0.91625726  1
  O  O240  1  0.57187884  0.23818975  0.24288818  1
  O  O241  1  0.56816212  0.23961522  0.57182753  1
  O  O242  1  0.57343013  0.23111945  0.90988780  1
  O  O243  1  0.58161944  0.73027962  0.24639200  1
  O  O244  1  0.57493009  0.73776718  0.57078109  1
  O  O245  1  0.58342061  0.74696383  0.91951686  1
  O  O246  1  0.91970212  0.23542356  0.25497226  1
  O  O247  1  0.91888843  0.22828868  0.58471728  1
  O  O248  1  0.91316980  0.22379644  0.91005207  1
  O  O249  1  0.91314289  0.73155771  0.25108587  1
  O  O250  1  0.91979283  0.72541060  0.58346661  1
  O  O251  1  0.91421609  0.73574779  0.90653250  1
  O  O252  1  0.09041456  0.47706256  0.08447628  1
  O  O253  1  0.09385133  0.48601523  0.43050783  1
  O  O254  1  0.08927324  0.47286456  0.75168800  1
  O  O255  1  0.08273724  0.99589985  0.08200016  1
  O  O256  1  0.08353767  0.97865016  0.41875627  1
  O  O257  1  0.07931279  0.98153380  0.74730394  1
  O  O258  1  0.41987868  0.47127400  0.08690433  1
  O  O259  1  0.42288331  0.47786080  0.42477795  1
  O  O260  1  0.42049255  0.47323627  0.75918421  1
  O  O261  1  0.42725511  0.99082805  0.09592329  1
  O  O262  1  0.41848836  0.97721779  0.42082464  1
  O  O263  1  0.41134673  1.00078593  0.75178128  1
  O  O264  1  0.76171753  0.48556775  0.09518333  1
  O  O265  1  0.75325803  0.47459916  0.41815277  1
  O  O266  1  0.75697802  0.48117399  0.74457137  1
  O  O267  1  0.74838717  0.97208584  0.08628746  1
  O  O268  1  0.75027730  0.98381719  0.41386120  1
  O  O269  1  0.75841599  0.98982633  0.76043142  1
  O  O270  1  0.25610092  0.26940396  0.07560037  1
  O  O271  1  0.26024387  0.26810091  0.40806947  1
  O  O272  1  0.25386252  0.27394976  0.74004651  1
  O  O273  1  0.25484693  0.75457350  0.08319608  1
  O  O274  1  0.24615139  0.76197787  0.42391232  1
  O  O275  1  0.23452497  0.76269697  0.75758150  1
  O  O276  1  0.58396088  0.26323273  0.07917193  1
  O  O277  1  0.58894642  0.27482652  0.40846655  1
  O  O278  1  0.58678604  0.27106722  0.73894031  1
  O  O279  1  0.58159473  0.76303446  0.08516313  1
  O  O280  1  0.58062867  0.77299460  0.40918433  1
  O  O281  1  0.58167953  0.75434616  0.74616595  1
  O  O282  1  0.92741248  0.25746926  0.07280531  1
  O  O283  1  0.91528398  0.26327584  0.42322913  1
  O  O284  1  0.92889669  0.26822564  0.74355124  1
  O  O285  1  0.90547118  0.76184822  0.09058570  1
  O  O286  1  0.91973997  0.76821418  0.41815457  1
  O  O287  1  0.91905185  0.76704555  0.74756975  1
  O  O288  1  0.25609003  0.47535508  0.07752470  1
  O  O289  1  0.25728994  0.47915319  0.41568565  1
  O  O290  1  0.25453573  0.47172085  0.74157110  1
  O  O291  1  0.25376671  1.00073387  0.08583699  1
  O  O292  1  0.25233732  0.98724894  0.41632452  1
  O  O293  1  0.23741521  0.99279021  0.75608548  1
  O  O294  1  0.57991649  0.49016611  0.08531998  1
  O  O295  1  0.59086312  0.47443156  0.40747570  1
  O  O296  1  0.58637104  0.47939288  0.73846371  1
  O  O297  1  0.58994942  0.98123520  0.07698360  1
  O  O298  1  0.58115350  0.97839282  0.40716718  1
  O  O299  1  0.58120952  0.99931303  0.75256333  1
  O  O300  1  0.92321144  0.48230268  0.07832390  1
  O  O301  1  0.91308124  0.48816468  0.42301010  1
  O  O302  1  0.92982693  0.48315325  0.74162966  1
  O  O303  1  0.90995153  0.98787082  0.08638446  1
  O  O304  1  0.92029828  0.97997761  0.41993567  1
  O  O305  1  0.91664230  0.98280041  0.75190831  1
  O  O306  1  0.09380838  0.27257265  0.09040154  1
  O  O307  1  0.09482071  0.26378805  0.42961087  1
  O  O308  1  0.09092093  0.27321573  0.75709324  1
  O  O309  1  0.08106063  0.75733253  0.08391724  1
  O  O310  1  0.08445353  0.77434803  0.42097573  1
  O  O311  1  0.07729880  0.77177715  0.74221776  1
  O  O312  1  0.42145014  0.27211683  0.09016015  1
  O  O313  1  0.42358548  0.27544590  0.42603335  1
  O  O314  1  0.42458838  0.27287864  0.75647085  1
  O  O315  1  0.42261753  0.76299703  0.08987999  1
  O  O316  1  0.41651459  0.77098083  0.41657163  1
  O  O317  1  0.40726360  0.75124047  0.74618352  1
  O  O318  1  0.76194735  0.26769677  0.08916282  1
  O  O319  1  0.75393223  0.27232638  0.41748185  1
  O  O320  1  0.75890847  0.26762423  0.74949172  1
  O  O321  1  0.74430737  0.77646686  0.08395707  1
  O  O322  1  0.74869804  0.76787895  0.40999341  1
  O  O323  1  0.75750633  0.76061684  0.75351418  1
  O  O324  1  0.24887390  0.02701972  0.25008067  1
  O  O325  1  0.24730475  0.02489967  0.58249424  1
  O  O326  1  0.24610433  0.02762315  0.91673620  1
  O  O327  1  0.25036193  0.50398591  0.24557566  1
  O  O328  1  0.24103529  0.52387757  0.57783514  1
  O  O329  1  0.24470094  0.51416631  0.90727840  1
  O  O330  1  0.57148006  0.01459483  0.23909860  1
  O  O331  1  0.57260434  0.00986492  0.57278574  1
  O  O332  1  0.57853251  0.02504433  0.91536595  1
  O  O333  1  0.57936548  0.51766218  0.24478208  1
  O  O334  1  0.57204038  0.51246500  0.56533298  1
  O  O335  1  0.57384986  0.50100257  0.91235747  1
  O  O336  1  0.92406397  0.01284848  0.26009082  1
  O  O337  1  0.92365893  0.01652271  0.58944552  1
  O  O338  1  0.91483019  0.02385564  0.91371381  1
  O  O339  1  0.90655649  0.51395375  0.24427716  1
  O  O340  1  0.91780176  0.52825003  0.58123376  1
  O  O341  1  0.91415188  0.51729319  0.90501454  1
  O  O342  1  0.08265043  0.22624432  0.25709369  1
  O  O343  1  0.07820531  0.22816813  0.59080533  1
  O  O344  1  0.07596834  0.22681592  0.92517571  1
  O  O345  1  0.07721263  0.74895796  0.25903207  1
  O  O346  1  0.08506482  0.72266388  0.58262593  1
  O  O347  1  0.09099236  0.74259231  0.90475257  1
  O  O348  1  0.40823179  0.23418521  0.26272116  1
  O  O349  1  0.40427630  0.23282787  0.59451469  1
  O  O350  1  0.41025538  0.22446059  0.92579661  1
  O  O351  1  0.42205076  0.73138989  0.24719677  1
  O  O352  1  0.41451851  0.73647850  0.58085753  1
  O  O353  1  0.41067135  0.73580997  0.92274496  1
  O  O354  1  0.74734504  0.24782248  0.25360434  1
  O  O355  1  0.75323835  0.24765129  0.58400998  1
  O  O356  1  0.74694263  0.23293294  0.92266765  1
  O  O357  1  0.75467510  0.74340430  0.24313608  1
  O  O358  1  0.75882944  0.73499116  0.57801121  1
  O  O359  1  0.75468105  0.73960820  0.91389932  1
