# generated using pymatgen
data_Ba17Sr5La8Pr42Mn72O216
_symmetry_space_group_name_H-M   'P 1'
_cell_length_a   16.67359375
_cell_length_b   15.70077345
_cell_length_c   16.82109533
_cell_angle_alpha   89.99270182
_cell_angle_beta   90.05597507
_cell_angle_gamma   89.97946031
_symmetry_Int_Tables_number   1
_chemical_formula_structural   Ba17Sr5La8Pr42Mn72O216
_chemical_formula_sum   'Ba17 Sr5 La8 Pr42 Mn72 O216'
_cell_volume   4403.56383473
_cell_formula_units_Z   1
loop_
 _symmetry_equiv_pos_site_id
 _symmetry_equiv_pos_as_xyz
  1  'x, y, z'
loop_
 _atom_site_type_symbol
 _atom_site_label
 _atom_site_symmetry_multiplicity
 _atom_site_fract_x
 _atom_site_fract_y
 _atom_site_fract_z
 _atom_site_occupancy
  Ba  Ba0  1  0.16933689  0.62579516  0.49991492  1
  Ba  Ba1  1  0.50188157  0.12522433  0.16303317  1
  Ba  Ba2  1  0.83251676  0.62619359  0.49870159  1
  Ba  Ba3  1  0.83181645  0.37549365  0.50054322  1
  Ba  Ba4  1  0.66514309  0.37523994  0.33413198  1
  Ba  Ba5  1  0.83466947  0.87564421  0.83408920  1
  Ba  Ba6  1  0.33520681  0.62449292  1.00246482  1
  Ba  Ba7  1  0.16686623  0.12311257  0.16869673  1
  Ba  Ba8  1  0.66515806  0.12449457  0.66762900  1
  Ba  Ba9  1  0.16477707  0.37189472  0.16843196  1
  Ba  Ba10  1  -0.00178627  0.37352669  0.66828679  1
  Ba  Ba11  1  0.00200413  0.62635165  0.33324578  1
  Ba  Ba12  1  0.66888206  0.62546491  0.33132156  1
  Ba  Ba13  1  0.16348468  0.37401128  0.83481652  1
  Ba  Ba14  1  -0.00204271  0.12200854  0.33467491  1
  Ba  Ba15  1  0.49728370  0.87566974  0.49862783  1
  Ba  Ba16  1  0.49794946  0.87358599  0.83025091  1
  Sr  Sr17  1  0.00135810  0.12329877  0.66483214  1
  Sr  Sr18  1  0.16378057  0.87726599  0.16712990  1
  Sr  Sr19  1  0.83890568  0.62647862  0.17342428  1
  Sr  Sr20  1  0.16606153  0.12712415  0.83469134  1
  Sr  Sr21  1  0.16802937  0.12437929  0.50454708  1
  La  La22  1  0.50245129  0.87287504  0.16243789  1
  La  La23  1  0.00116830  0.87388452  0.66763744  1
  La  La24  1  0.49530392  0.37768702  0.83008934  1
  La  La25  1  0.32964979  0.37473093  0.00441199  1
  La  La26  1  -0.00109152  0.37362031  0.33825527  1
  La  La27  1  0.83488635  0.37793811  0.16914142  1
  La  La28  1  0.33234381  0.87539647  0.00404530  1
  La  La29  1  0.00443132  0.62637876  1.00363136  1
  Pr  Pr30  1  0.17138499  0.62652038  0.17643221  1
  Pr  Pr31  1  0.83623509  0.87087634  0.16351754  1
  Pr  Pr32  1  0.50066022  0.37741057  0.16370551  1
  Pr  Pr33  1  0.82995071  0.37500244  0.82788519  1
  Pr  Pr34  1  0.66586562  0.87543414  0.33261011  1
  Pr  Pr35  1  0.00587339  0.62488722  0.66086041  1
  Pr  Pr36  1  0.83367324  0.12915674  0.50467375  1
  Pr  Pr37  1  0.33058896  0.12627514  0.99543053  1
  Pr  Pr38  1  0.34113171  0.62301888  0.66471497  1
  Pr  Pr39  1  0.83970730  0.12571473  0.83602234  1
  Pr  Pr40  1  0.16623733  0.87512924  0.83416764  1
  Pr  Pr41  1  0.50015516  0.12769386  0.50116932  1
  Pr  Pr42  1  0.66841517  0.12557318  0.99144843  1
  Pr  Pr43  1  0.66718420  0.87307367  0.67010738  1
  Pr  Pr44  1  0.66862586  0.63053956  0.66154676  1
  Pr  Pr45  1  0.66618147  0.37397944  0.00421674  1
  Pr  Pr46  1  0.50058283  0.12397427  0.83973499  1
  Pr  Pr47  1  0.32473477  0.37546389  0.66731897  1
  Pr  Pr48  1  0.50419705  0.62381291  0.49780994  1
  Pr  Pr49  1  0.33894386  0.62751159  0.32679346  1
  Pr  Pr50  1  0.16245156  0.87834229  0.49898006  1
  Pr  Pr51  1  0.49682324  0.37338516  0.49568852  1
  Pr  Pr52  1  0.66544810  0.37826325  0.66630870  1
  Pr  Pr53  1  0.32766637  0.87912035  0.33459921  1
  Pr  Pr54  1  0.66873475  0.87638295  0.00276830  1
  Pr  Pr55  1  0.00210775  0.87487832  0.33201159  1
  Pr  Pr56  1  0.33288282  0.12231609  0.33242478  1
  Pr  Pr57  1  0.83126690  0.12337349  0.16894715  1
  Pr  Pr58  1  0.84070619  0.62603706  0.83371424  1
  Pr  Pr59  1  0.83060491  0.87890695  0.49930763  1
  Pr  Pr60  1  0.33437034  0.12606142  0.66754250  1
  Pr  Pr61  1  0.00616949  0.12327485  0.99808537  1
  Pr  Pr62  1  0.67358082  0.62417153  0.99937798  1
  Pr  Pr63  1  -0.00100047  0.37191990  0.00222481  1
  Pr  Pr64  1  0.50787558  0.62525678  0.83488998  1
  Pr  Pr65  1  0.15849029  0.37105618  0.49839710  1
  Pr  Pr66  1  0.66493743  0.12635506  0.33364844  1
  Pr  Pr67  1  0.32822580  0.36990432  0.33468287  1
  Pr  Pr68  1  0.50866874  0.62440673  0.16795683  1
  Pr  Pr69  1  0.16848503  0.62194676  0.83523764  1
  Pr  Pr70  1  0.32855179  0.87463164  0.66925734  1
  Pr  Pr71  1  0.00035163  0.87714805  0.00396909  1
  Mn  Mn72  1  -0.00151183  -0.00018182  0.16589816  1
  Mn  Mn73  1  -0.00125167  -0.00099117  0.50130811  1
  Mn  Mn74  1  0.00151950  -0.00072621  0.83263968  1
  Mn  Mn75  1  0.00090217  0.49916142  0.16688683  1
  Mn  Mn76  1  0.00016996  0.50138115  0.50071378  1
  Mn  Mn77  1  -0.00099955  0.50310616  0.83477645  1
  Mn  Mn78  1  0.33529823  -0.00069201  0.16648953  1
  Mn  Mn79  1  0.33243972  0.00119449  0.50219271  1
  Mn  Mn80  1  0.33242279  -0.00011006  0.83293962  1
  Mn  Mn81  1  0.33495656  0.49877277  0.16829338  1
  Mn  Mn82  1  0.33407560  0.49922006  0.49850762  1
  Mn  Mn83  1  0.33301360  0.50089014  0.83291570  1
  Mn  Mn84  1  0.66805360  0.00145261  0.16650484  1
  Mn  Mn85  1  0.66505845  -0.00014325  0.49883486  1
  Mn  Mn86  1  0.66676304  -0.00076120  0.83235443  1
  Mn  Mn87  1  0.66890838  0.49787038  0.16423536  1
  Mn  Mn88  1  0.66463756  0.50124140  0.50128837  1
  Mn  Mn89  1  0.66817191  0.50047739  0.83355558  1
  Mn  Mn90  1  -0.00295276  0.24885625  0.16734247  1
  Mn  Mn91  1  -0.00032117  0.24686491  0.50150304  1
  Mn  Mn92  1  -0.00102000  0.24733639  0.83465915  1
  Mn  Mn93  1  0.00277927  0.75182294  0.16605447  1
  Mn  Mn94  1  -0.00123146  0.75232004  0.50120329  1
  Mn  Mn95  1  0.00214792  0.74988981  0.83342334  1
  Mn  Mn96  1  0.33568006  0.24838312  0.16710478  1
  Mn  Mn97  1  0.33251399  0.24982074  0.50180436  1
  Mn  Mn98  1  0.33372556  0.25147720  0.83252649  1
  Mn  Mn99  1  0.33512101  0.75230660  0.16745858  1
  Mn  Mn100  1  0.33330961  0.74944848  0.49959616  1
  Mn  Mn101  1  0.33211247  0.74837029  0.83349788  1
  Mn  Mn102  1  0.66764474  0.24878620  0.16492365  1
  Mn  Mn103  1  0.66392812  0.24919115  0.50026146  1
  Mn  Mn104  1  0.66586803  0.25213430  0.83317780  1
  Mn  Mn105  1  0.66914388  0.75125681  0.16508067  1
  Mn  Mn106  1  0.66517155  0.75279001  0.49952672  1
  Mn  Mn107  1  0.66840786  0.74804518  0.83268559  1
  Mn  Mn108  1  0.16673757  0.24933960  0.00007120  1
  Mn  Mn109  1  0.16565811  0.24762437  0.33608822  1
  Mn  Mn110  1  0.16600390  0.24678874  0.66713114  1
  Mn  Mn111  1  0.16683494  0.74956893  0.00138394  1
  Mn  Mn112  1  0.16974382  0.75301967  0.33461371  1
  Mn  Mn113  1  0.16895891  0.75140517  0.66891284  1
  Mn  Mn114  1  0.50074870  0.25174467  -0.00195762  1
  Mn  Mn115  1  0.49780510  0.24881856  0.33244812  1
  Mn  Mn116  1  0.49831399  0.25215337  0.66685128  1
  Mn  Mn117  1  0.50286233  0.74884931  -0.00157379  1
  Mn  Mn118  1  0.49869884  0.75161783  0.33005475  1
  Mn  Mn119  1  0.49778064  0.74948596  0.66496840  1
  Mn  Mn120  1  0.83453172  0.25069044  0.00017213  1
  Mn  Mn121  1  0.83196061  0.24694478  0.33350704  1
  Mn  Mn122  1  0.83152175  0.24894524  0.66860806  1
  Mn  Mn123  1  0.83498665  0.74773157  0.00018309  1
  Mn  Mn124  1  0.83342597  0.75394182  0.33123202  1
  Mn  Mn125  1  0.83336167  0.75129357  0.66712933  1
  Mn  Mn126  1  0.16776083  -0.00066366  -0.00112441  1
  Mn  Mn127  1  0.16620093  -0.00012880  0.33530980  1
  Mn  Mn128  1  0.16740360  0.00050894  0.66786598  1
  Mn  Mn129  1  0.16513267  0.50106228  0.00300665  1
  Mn  Mn130  1  0.16946992  0.49818779  0.33543970  1
  Mn  Mn131  1  0.16757599  0.50047945  0.66733215  1
  Mn  Mn132  1  0.50111843  -0.00120119  -0.00124850  1
  Mn  Mn133  1  0.49905981  -0.00000827  0.33143426  1
  Mn  Mn134  1  0.49806010  0.00119980  0.66564735  1
  Mn  Mn135  1  0.50272084  0.50079792  -0.00225551  1
  Mn  Mn136  1  0.49731749  0.49863841  0.33175421  1
  Mn  Mn137  1  0.49958259  0.49917163  0.66477258  1
  Mn  Mn138  1  0.83404828  0.00027610  0.00162841  1
  Mn  Mn139  1  0.83038412  -0.00165044  0.33249257  1
  Mn  Mn140  1  0.83311170  0.00027807  0.66584648  1
  Mn  Mn141  1  0.83528441  0.50109218  -0.00156242  1
  Mn  Mn142  1  0.83474739  0.50091367  0.33184984  1
  Mn  Mn143  1  0.83157476  0.50099598  0.66941896  1
  O  O144  1  0.17073202  0.12289312  0.01123009  1
  O  O145  1  0.17689580  0.12260016  0.35284485  1
  O  O146  1  0.17301725  0.12136141  0.68633356  1
  O  O147  1  0.16083038  0.62559248  0.03085120  1
  O  O148  1  0.18013073  0.62688802  0.34053363  1
  O  O149  1  0.16166670  0.62998572  0.69102239  1
  O  O150  1  0.50228197  0.12630782  0.00783102  1
  O  O151  1  0.50005109  0.12445945  0.35743970  1
  O  O152  1  0.49244243  0.13198770  0.69627740  1
  O  O153  1  0.50922340  0.62389392  0.02452974  1
  O  O154  1  0.49411005  0.62617065  0.35360912  1
  O  O155  1  0.49525140  0.62277710  0.69183371  1
  O  O156  1  0.83049766  0.12450405  0.02645067  1
  O  O157  1  0.82825510  0.11852784  0.35997599  1
  O  O158  1  0.83536172  0.12345297  0.69034325  1
  O  O159  1  0.83133928  0.62371209  0.02439034  1
  O  O160  1  0.83549381  0.63095956  0.33912056  1
  O  O161  1  0.82517948  0.62613099  0.68946381  1
  O  O162  1  0.16233889  0.37299081  0.32601801  1
  O  O163  1  0.17394348  0.37322944  0.64498205  1
  O  O164  1  0.16414316  0.37592270  0.99156580  1
  O  O165  1  0.16771814  0.87623342  0.31803021  1
  O  O166  1  0.17445947  0.87496545  0.64281573  1
  O  O167  1  0.16487152  0.87495515  0.97727746  1
  O  O168  1  0.49091241  0.37215532  0.30791036  1
  O  O169  1  0.50336301  0.37686053  0.63849152  1
  O  O170  1  0.50443236  0.37648985  0.97359340  1
  O  O171  1  0.49741394  0.87558557  0.30689762  1
  O  O172  1  0.49447941  0.87075388  0.65402400  1
  O  O173  1  0.50322238  0.87350069  0.98630640  1
  O  O174  1  0.83772615  0.37123396  0.31514173  1
  O  O175  1  0.82807546  0.37493766  0.65955704  1
  O  O176  1  0.83570285  0.37730844  0.97032553  1
  O  O177  1  0.82058729  0.87885493  0.30562966  1
  O  O178  1  0.82765460  0.87619247  0.64561407  1
  O  O179  1  0.83282826  0.87414081  0.98763376  1
  O  O180  1  -0.00548218  0.37143207  0.18838781  1
  O  O181  1  0.00632861  0.37365871  0.50749281  1
  O  O182  1  -0.01007085  0.37671832  0.85811169  1
  O  O183  1  -0.00196882  0.87671064  0.18417444  1
  O  O184  1  0.00163438  0.87533550  0.52295605  1
  O  O185  1  0.00784727  0.87280471  0.86113869  1
  O  O186  1  0.34653811  0.37539450  0.18836878  1
  O  O187  1  0.34431755  0.37377936  0.52687634  1
  O  O188  1  0.34029709  0.37599831  0.85912088  1
  O  O189  1  0.34663863  0.87551622  0.18902343  1
  O  O190  1  0.33071392  0.87795256  0.52698209  1
  O  O191  1  0.32970135  0.87181060  0.85931710  1
  O  O192  1  0.66751658  0.37289953  0.17716780  1
  O  O193  1  0.65685791  0.37722366  0.52175697  1
  O  O194  1  0.67253245  0.37798495  0.86186915  1
  O  O195  1  0.66864148  0.87907235  0.18835217  1
  O  O196  1  0.67069052  0.87758494  0.52627801  1
  O  O197  1  0.66707336  0.87207042  0.85838863  1
  O  O198  1  -0.01166682  0.12334092  0.14317395  1
  O  O199  1  -0.00918596  0.12128902  0.49097043  1
  O  O200  1  -0.00683009  0.12130929  0.81612337  1
  O  O201  1  0.00371015  0.62759933  0.14892594  1
  O  O202  1  0.00006203  0.62989952  0.49391189  1
  O  O203  1  -0.00408494  0.62945466  0.80635265  1
  O  O204  1  0.33326116  0.12191120  0.14045293  1
  O  O205  1  0.33473180  0.12700994  0.47545031  1
  O  O206  1  0.33882722  0.12810561  0.81224446  1
  O  O207  1  0.32013100  0.62576667  0.16040563  1
  O  O208  1  0.33685887  0.62054633  0.47064808  1
  O  O209  1  0.32367971  0.62561354  0.80927668  1
  O  O210  1  0.67437383  0.12457559  0.13582826  1
  O  O211  1  0.66075720  0.12142705  0.47702234  1
  O  O212  1  0.66202626  0.12662329  0.82379480  1
  O  O213  1  0.66129410  0.62337137  0.14364069  1
  O  O214  1  0.65855502  0.62664178  0.48924812  1
  O  O215  1  0.66173107  0.62149533  0.80498995  1
  O  O216  1  0.07946897  0.00406914  0.25087287  1
  O  O217  1  0.08751745  0.00782861  0.58503008  1
  O  O218  1  0.08254744  0.01697852  0.91666987  1
  O  O219  1  0.09588733  0.51465831  0.24264053  1
  O  O220  1  0.08528939  0.51231631  0.58655189  1
  O  O221  1  0.08334261  0.52456169  0.91469855  1
  O  O222  1  0.41469487  0.01853266  0.25259293  1
  O  O223  1  0.41793310  0.02697557  0.58110141  1
  O  O224  1  0.41651822  0.01968688  0.91319316  1
  O  O225  1  0.42210160  0.52468742  0.24285556  1
  O  O226  1  0.42312462  0.52290605  0.57347312  1
  O  O227  1  0.42915757  0.51791058  0.90460573  1
  O  O228  1  0.74572831  0.02712081  0.25254313  1
  O  O229  1  0.75394887  0.01744481  0.57305414  1
  O  O230  1  0.75129556  0.02042026  0.92053709  1
  O  O231  1  0.75597924  0.50573631  0.23839229  1
  O  O232  1  0.74358405  0.51134563  0.59153898  1
  O  O233  1  0.75680814  0.52617785  0.90970480  1
  O  O234  1  0.25421974  0.24003086  0.26070353  1
  O  O235  1  0.25674467  0.23367003  0.58746960  1
  O  O236  1  0.25635252  0.23641257  0.91857437  1
  O  O237  1  0.26160205  0.74448486  0.26019396  1
  O  O238  1  0.25916005  0.73290485  0.59762754  1
  O  O239  1  0.24611661  0.73369955  0.91522837  1
  O  O240  1  0.58576452  0.23327664  0.25618588  1
  O  O241  1  0.57577113  0.23425790  0.58114538  1
  O  O242  1  0.58520329  0.23467694  0.91683198  1
  O  O243  1  0.58022051  0.73985185  0.24136454  1
  O  O244  1  0.58058237  0.73213194  0.58335326  1
  O  O245  1  0.58971072  0.72517343  0.91634042  1
  O  O246  1  0.90646399  0.23300640  0.24139742  1
  O  O247  1  0.91472671  0.23454004  0.58404463  1
  O  O248  1  0.91918719  0.22388623  0.92367073  1
  O  O249  1  0.92124217  0.75162009  0.25052523  1
  O  O250  1  0.91827952  0.74085935  0.59026875  1
  O  O251  1  0.91958338  0.72926060  0.91803027  1
  O  O252  1  0.07174615  0.48559573  0.07410267  1
  O  O253  1  0.08451133  0.48654278  0.41450235  1
  O  O254  1  0.07823292  0.49649913  0.75148627  1
  O  O255  1  0.07956952  0.98722225  0.07682418  1
  O  O256  1  0.08098698  0.97952351  0.41753683  1
  O  O257  1  0.08589184  0.97587075  0.74984715  1
  O  O258  1  0.41787855  0.48083430  0.08072190  1
  O  O259  1  0.40883020  0.47593985  0.40950300  1
  O  O260  1  0.41221356  0.48027848  0.73850843  1
  O  O261  1  0.41853320  0.98023513  0.08004054  1
  O  O262  1  0.40700353  0.98727114  0.41101614  1
  O  O263  1  0.40533081  0.98745002  0.74262202  1
  O  O264  1  0.74488610  0.48189351  0.07113969  1
  O  O265  1  0.74514416  0.49431895  0.41819479  1
  O  O266  1  0.74357220  0.47810739  0.74986601  1
  O  O267  1  0.75307806  0.97767509  0.08730314  1
  O  O268  1  0.74824849  0.97536645  0.41526673  1
  O  O269  1  0.74594470  0.98360951  0.74487299  1
  O  O270  1  0.25889668  0.26189131  0.07923746  1
  O  O271  1  0.24888520  0.27277996  0.42507220  1
  O  O272  1  0.25514325  0.26369136  0.74723581  1
  O  O273  1  0.25201097  0.77090628  0.08725895  1
  O  O274  1  0.24574001  0.77477136  0.42507935  1
  O  O275  1  0.24555406  0.77432586  0.75572839  1
  O  O276  1  0.58328143  0.27014358  0.08054863  1
  O  O277  1  0.57259991  0.26329030  0.42197220  1
  O  O278  1  0.57978733  0.27682690  0.74992904  1
  O  O279  1  0.58856566  0.77130305  0.08207899  1
  O  O280  1  0.58438606  0.76676815  0.40877452  1
  O  O281  1  0.58691524  0.76028109  0.74457622  1
  O  O282  1  0.91438883  0.27504740  0.08159741  1
  O  O283  1  0.91883535  0.26016594  0.41155519  1
  O  O284  1  0.90503459  0.25985030  0.76424847  1
  O  O285  1  0.91786930  0.76800703  0.08330109  1
  O  O286  1  0.91287823  0.77823287  0.41516780  1
  O  O287  1  0.92209010  0.76518125  0.74730701  1
  O  O288  1  0.25367288  0.48516537  0.08654297  1
  O  O289  1  0.24712456  0.47168783  0.42574670  1
  O  O290  1  0.25011642  0.48571350  0.74895132  1
  O  O291  1  0.25364746  0.97923976  0.08225426  1
  O  O292  1  0.24609811  0.97892841  0.42473608  1
  O  O293  1  0.24702830  0.97661736  0.75518688  1
  O  O294  1  0.58218537  0.47738051  0.08289055  1
  O  O295  1  0.56952985  0.48793525  0.42572984  1
  O  O296  1  0.57955438  0.47681236  0.75557892  1
  O  O297  1  0.58899898  0.98022992  0.08200181  1
  O  O298  1  0.58792782  0.98287569  0.40831372  1
  O  O299  1  0.58346774  0.98520593  0.74350119  1
  O  O300  1  0.91224160  0.47668740  0.08178437  1
  O  O301  1  0.92010319  0.48874835  0.41364117  1
  O  O302  1  0.90391824  0.49148143  0.76444675  1
  O  O303  1  0.91774738  0.97823365  0.08082911  1
  O  O304  1  0.91431214  0.97231838  0.41005550  1
  O  O305  1  0.92360743  0.98298001  0.74561315  1
  O  O306  1  0.07428009  0.25665239  0.07829538  1
  O  O307  1  0.08390869  0.26071169  0.41891539  1
  O  O308  1  0.08005700  0.25415595  0.75136736  1
  O  O309  1  0.07785716  0.77014225  0.07552856  1
  O  O310  1  0.08151196  0.77181336  0.41386608  1
  O  O311  1  0.08566991  0.77473940  0.75164800  1
  O  O312  1  0.42133977  0.27305736  0.07893624  1
  O  O313  1  0.41255103  0.26884107  0.41648072  1
  O  O314  1  0.41474564  0.27781055  0.74700735  1
  O  O315  1  0.41748617  0.76573664  0.08214758  1
  O  O316  1  0.40702039  0.76563804  0.40200926  1
  O  O317  1  0.40470090  0.75909128  0.73871405  1
  O  O318  1  0.75230287  0.27310773  0.07816848  1
  O  O319  1  0.74678873  0.25168822  0.41498468  1
  O  O320  1  0.74305042  0.27062770  0.74971934  1
  O  O321  1  0.74804078  0.76964094  0.07934969  1
  O  O322  1  0.74910499  0.77351204  0.41633322  1
  O  O323  1  0.74630523  0.76476369  0.74713733  1
  O  O324  1  0.25692865  0.00893933  0.25891281  1
  O  O325  1  0.25732940  0.01867547  0.59180424  1
  O  O326  1  0.25571122  0.01579402  0.92031693  1
  O  O327  1  0.26148679  0.50518818  0.26215811  1
  O  O328  1  0.26243559  0.51422024  0.59049876  1
  O  O329  1  0.24590082  0.51408124  0.91905981  1
  O  O330  1  0.58828083  0.01485283  0.25021947  1
  O  O331  1  0.57784409  0.01631100  0.57530025  1
  O  O332  1  0.58484053  0.01721417  0.91751845  1
  O  O333  1  0.57986425  0.51010579  0.24397049  1
  O  O334  1  0.58508645  0.52343147  0.59052430  1
  O  O335  1  0.59257027  0.52324662  0.91948665  1
  O  O336  1  0.90492555  0.00987968  0.24220213  1
  O  O337  1  0.91096500  0.01017188  0.57837034  1
  O  O338  1  0.91696389  0.01960701  0.91915616  1
  O  O339  1  0.92107863  0.50582638  0.24701911  1
  O  O340  1  0.91942340  0.51556704  0.59522550  1
  O  O341  1  0.92157216  0.52819033  0.92240157  1
  O  O342  1  0.07761983  0.24074017  0.25187458  1
  O  O343  1  0.08784787  0.23752941  0.58142152  1
  O  O344  1  0.07915955  0.23463693  0.91882938  1
  O  O345  1  0.09537107  0.74045511  0.24145160  1
  O  O346  1  0.08374757  0.74151188  0.59194635  1
  O  O347  1  0.08472815  0.72352169  0.91279679  1
  O  O348  1  0.41232413  0.22876485  0.25506131  1
  O  O349  1  0.41678254  0.22686637  0.58279897  1
  O  O350  1  0.41937553  0.23110841  0.91337763  1
  O  O351  1  0.42325972  0.72607723  0.24182435  1
  O  O352  1  0.41957561  0.72407359  0.57567324  1
  O  O353  1  0.42298821  0.72937882  0.90551271  1
  O  O354  1  0.74945878  0.22622392  0.24937621  1
  O  O355  1  0.75184321  0.23569940  0.58005739  1
  O  O356  1  0.75526073  0.22847142  0.91615039  1
  O  O357  1  0.75395928  0.74245202  0.24210414  1
  O  O358  1  0.74463042  0.73991547  0.58855055  1
  O  O359  1  0.75256204  0.72442972  0.91456193  1
