# generated using pymatgen
data_Ba17Sr5La8Pr42Mn72O216
_symmetry_space_group_name_H-M   'P 1'
_cell_length_a   16.67199628
_cell_length_b   15.70609049
_cell_length_c   16.82134632
_cell_angle_alpha   89.99483548
_cell_angle_beta   90.01753817
_cell_angle_gamma   90.00233735
_symmetry_Int_Tables_number   1
_chemical_formula_structural   Ba17Sr5La8Pr42Mn72O216
_chemical_formula_sum   'Ba17 Sr5 La8 Pr42 Mn72 O216'
_cell_volume   4404.70096823
_cell_formula_units_Z   1
loop_
 _symmetry_equiv_pos_site_id
 _symmetry_equiv_pos_as_xyz
  1  'x, y, z'
loop_
 _atom_site_type_symbol
 _atom_site_label
 _atom_site_symmetry_multiplicity
 _atom_site_fract_x
 _atom_site_fract_y
 _atom_site_fract_z
 _atom_site_occupancy
  Ba  Ba0  1  0.83196119  0.37305864  0.83175591  1
  Ba  Ba1  1  0.83025034  0.37628567  0.16602877  1
  Ba  Ba2  1  0.00006459  0.12475316  0.33189204  1
  Ba  Ba3  1  0.50075271  0.12559436  0.50303332  1
  Ba  Ba4  1  0.33678426  0.62368713  0.99980858  1
  Ba  Ba5  1  0.49990874  0.87371982  0.83684846  1
  Ba  Ba6  1  0.16625800  0.87388828  0.49899572  1
  Ba  Ba7  1  0.33344097  0.12678120  0.66457716  1
  Ba  Ba8  1  0.16571760  0.37720221  0.83281676  1
  Ba  Ba9  1  0.33265831  0.87388657  0.00041205  1
  Ba  Ba10  1  0.16479333  0.12400053  0.50004998  1
  Ba  Ba11  1  0.83487817  0.12530146  0.82954698  1
  Ba  Ba12  1  0.16645511  0.12566546  0.16786968  1
  Ba  Ba13  1  0.66555426  0.87361041  0.33683959  1
  Ba  Ba14  1  -0.00030965  0.62634946  0.99667262  1
  Ba  Ba15  1  0.66673708  0.87694579  0.00373054  1
  Ba  Ba16  1  0.50376508  0.62461905  0.83808085  1
  Sr  Sr17  1  0.66516048  0.37518434  0.33850851  1
  Sr  Sr18  1  0.32919019  0.37900805  0.00158699  1
  Sr  Sr19  1  0.83651862  0.62614313  0.16567448  1
  Sr  Sr20  1  0.66549888  0.12781531  0.33633138  1
  Sr  Sr21  1  0.83015734  0.37489350  0.49502104  1
  La  La22  1  0.50476998  0.62771631  0.16786701  1
  La  La23  1  0.49948079  0.12154904  0.17388194  1
  La  La24  1  0.00114133  0.12867824  0.99763006  1
  La  La25  1  0.49491231  0.37691462  0.83558710  1
  La  La26  1  0.16030746  0.37459601  0.15986147  1
  La  La27  1  0.66632938  0.12502488  0.66593879  1
  La  La28  1  0.83374018  0.87385702  0.83047497  1
  La  La29  1  0.82895411  0.12467369  0.50036263  1
  Pr  Pr30  1  0.00346519  0.62141762  0.66204664  1
  Pr  Pr31  1  0.17567687  0.62619241  0.49846330  1
  Pr  Pr32  1  -0.00365136  0.87617597  0.33127353  1
  Pr  Pr33  1  0.34165987  0.62341412  0.66766455  1
  Pr  Pr34  1  0.32659423  0.37164053  0.66871139  1
  Pr  Pr35  1  0.34209702  0.62593905  0.33066072  1
  Pr  Pr36  1  0.16542880  0.86769811  0.82875422  1
  Pr  Pr37  1  0.83447987  0.62483034  0.83835519  1
  Pr  Pr38  1  0.67452072  0.62448971  0.67065244  1
  Pr  Pr39  1  0.33271414  0.12430106  0.33338805  1
  Pr  Pr40  1  0.50134464  0.12413395  0.83729345  1
  Pr  Pr41  1  0.49207654  0.87533668  0.50257474  1
  Pr  Pr42  1  0.32722114  0.88044773  0.67227651  1
  Pr  Pr43  1  0.66372786  0.37398026  0.00608464  1
  Pr  Pr44  1  0.33196651  0.87720271  0.33411867  1
  Pr  Pr45  1  -0.00351307  0.37290201  0.66571800  1
  Pr  Pr46  1  0.83346058  0.87479132  0.49715239  1
  Pr  Pr47  1  -0.00350833  0.12946770  0.65737765  1
  Pr  Pr48  1  -0.00603493  0.37374654  0.33099760  1
  Pr  Pr49  1  0.16279998  0.37452105  0.49799735  1
  Pr  Pr50  1  0.32810182  0.37541755  0.33402349  1
  Pr  Pr51  1  0.82912625  0.12386043  0.17144773  1
  Pr  Pr52  1  0.51065453  0.62325137  0.50533681  1
  Pr  Pr53  1  0.16885501  0.12421545  0.83471759  1
  Pr  Pr54  1  0.49719022  0.37269590  0.16660561  1
  Pr  Pr55  1  0.83679805  0.62497633  0.49813471  1
  Pr  Pr56  1  0.33465243  0.12809012  0.99630755  1
  Pr  Pr57  1  0.66469610  0.87681553  0.67388190  1
  Pr  Pr58  1  0.66296014  0.37321670  0.66976451  1
  Pr  Pr59  1  -0.00452459  0.37485547  -0.00050175  1
  Pr  Pr60  1  0.83353871  0.87587068  0.16328380  1
  Pr  Pr61  1  0.66981805  0.12624302  1.00311533  1
  Pr  Pr62  1  0.16065708  0.87608791  0.16408944  1
  Pr  Pr63  1  0.49397298  0.37427801  0.49797926  1
  Pr  Pr64  1  0.00680748  0.62634505  0.32261496  1
  Pr  Pr65  1  -0.00244737  0.87750911  -0.00214884  1
  Pr  Pr66  1  0.17458835  0.62494102  0.83619450  1
  Pr  Pr67  1  0.17617285  0.62497125  0.16636382  1
  Pr  Pr68  1  0.67608741  0.62171464  0.33187210  1
  Pr  Pr69  1  -0.00010819  0.87744420  0.66482656  1
  Pr  Pr70  1  0.49918714  0.87668500  0.16304500  1
  Pr  Pr71  1  0.67236888  0.62344634  1.00020837  1
  Mn  Mn72  1  -0.00216887  -0.00143727  0.16403678  1
  Mn  Mn73  1  -0.00254292  -0.00266472  0.49814464  1
  Mn  Mn74  1  0.00224320  0.00014257  0.83094079  1
  Mn  Mn75  1  0.00126053  0.50195737  0.16391782  1
  Mn  Mn76  1  0.00083558  0.50231710  0.49480620  1
  Mn  Mn77  1  -0.00088299  0.50048708  0.82853389  1
  Mn  Mn78  1  0.33214031  0.00036652  0.16776163  1
  Mn  Mn79  1  0.33248215  -0.00155398  0.50152217  1
  Mn  Mn80  1  0.33250576  0.00136917  0.83408885  1
  Mn  Mn81  1  0.33519242  0.49979177  0.16887736  1
  Mn  Mn82  1  0.33347795  0.50155775  0.49955199  1
  Mn  Mn83  1  0.33437831  0.49807437  0.83226053  1
  Mn  Mn84  1  0.66634793  0.00086432  0.17144977  1
  Mn  Mn85  1  0.66597129  -0.00192576  0.50386267  1
  Mn  Mn86  1  0.66698254  0.00196182  0.83571240  1
  Mn  Mn87  1  0.66584953  0.49980533  0.16923225  1
  Mn  Mn88  1  0.66806210  0.50068033  0.50175821  1
  Mn  Mn89  1  0.66711644  0.49741680  0.83575881  1
  Mn  Mn90  1  -0.00250559  0.25027115  0.16481140  1
  Mn  Mn91  1  -0.00245709  0.25326204  0.49740582  1
  Mn  Mn92  1  0.00161178  0.24935910  0.82968426  1
  Mn  Mn93  1  0.00207579  0.75002168  0.16345952  1
  Mn  Mn94  1  0.00041512  0.74733602  0.49503737  1
  Mn  Mn95  1  -0.00091194  0.75027719  0.82785015  1
  Mn  Mn96  1  0.33372075  0.25143213  0.16608709  1
  Mn  Mn97  1  0.33128114  0.25402977  0.49989195  1
  Mn  Mn98  1  0.33378981  0.25084048  0.83321493  1
  Mn  Mn99  1  0.33445543  0.74944599  0.16986199  1
  Mn  Mn100  1  0.33536566  0.74702627  0.50028852  1
  Mn  Mn101  1  0.33388065  0.75036341  0.83228118  1
  Mn  Mn102  1  0.66445478  0.25023008  0.17058597  1
  Mn  Mn103  1  0.66635123  0.25135308  0.50120162  1
  Mn  Mn104  1  0.66427540  0.24924167  0.83627948  1
  Mn  Mn105  1  0.66837174  0.74892460  0.17005012  1
  Mn  Mn106  1  0.66770079  0.74853188  0.50378827  1
  Mn  Mn107  1  0.66894158  0.75013847  0.83478676  1
  Mn  Mn108  1  0.16658211  0.25030553  -0.00105811  1
  Mn  Mn109  1  0.16735832  0.25317659  0.33111834  1
  Mn  Mn110  1  0.16397513  0.25096716  0.66563968  1
  Mn  Mn111  1  0.16554021  0.75158316  -0.00153487  1
  Mn  Mn112  1  0.16865257  0.74948665  0.33122880  1
  Mn  Mn113  1  0.16665509  0.74651303  0.66497373  1
  Mn  Mn114  1  0.49902560  0.24917737  0.00298260  1
  Mn  Mn115  1  0.49865261  0.25115913  0.33388190  1
  Mn  Mn116  1  0.50076420  0.25353022  0.66871566  1
  Mn  Mn117  1  0.50224545  0.75029052  0.00412308  1
  Mn  Mn118  1  0.50059152  0.74966554  0.33724479  1
  Mn  Mn119  1  0.50193352  0.74718826  0.66612530  1
  Mn  Mn120  1  0.83244513  0.24933011  0.00064784  1
  Mn  Mn121  1  0.83091870  0.25018368  0.33377128  1
  Mn  Mn122  1  0.83153541  0.25165242  0.66223516  1
  Mn  Mn123  1  0.83358002  0.75096630  -0.00059536  1
  Mn  Mn124  1  0.83572331  0.74932761  0.33220163  1
  Mn  Mn125  1  0.83498130  0.74751696  0.66550950  1
  Mn  Mn126  1  0.16630551  0.00047168  -0.00163385  1
  Mn  Mn127  1  0.16731074  -0.00088544  0.33177865  1
  Mn  Mn128  1  0.16351773  -0.00109314  0.66832461  1
  Mn  Mn129  1  0.16518961  0.50091572  -0.00115104  1
  Mn  Mn130  1  0.16701543  0.50001655  0.33210288  1
  Mn  Mn131  1  0.16655862  0.50346172  0.66332058  1
  Mn  Mn132  1  0.49944096  0.00313161  0.00488117  1
  Mn  Mn133  1  0.49885666  -0.00144884  0.33578458  1
  Mn  Mn134  1  0.50040208  -0.00152514  0.66869902  1
  Mn  Mn135  1  0.50200485  0.49721719  0.00322014  1
  Mn  Mn136  1  0.50064149  0.50026382  0.33604422  1
  Mn  Mn137  1  0.50184871  0.49931659  0.66675745  1
  Mn  Mn138  1  0.83460038  0.00171557  0.00020295  1
  Mn  Mn139  1  0.83115568  -0.00037369  0.33330679  1
  Mn  Mn140  1  0.83317945  -0.00233060  0.66391481  1
  Mn  Mn141  1  0.83257155  0.49958876  -0.00133359  1
  Mn  Mn142  1  0.83525084  0.49999432  0.33330350  1
  Mn  Mn143  1  0.83380650  0.50069136  0.66442314  1
  O  O144  1  0.16711302  0.12414642  0.01298313  1
  O  O145  1  0.17192069  0.12952173  0.34350423  1
  O  O146  1  0.15416526  0.12142285  0.68765745  1
  O  O147  1  0.16512582  0.62620816  0.02201433  1
  O  O148  1  0.15637745  0.62322335  0.35593270  1
  O  O149  1  0.15635868  0.62546842  0.69237641  1
  O  O150  1  0.48929568  0.12847467  0.02893921  1
  O  O151  1  0.49119999  0.12516913  0.34777593  1
  O  O152  1  0.50435602  0.13047028  0.69020595  1
  O  O153  1  0.50822317  0.62172184  0.02188712  1
  O  O154  1  0.49211615  0.62479698  0.36406278  1
  O  O155  1  0.49213900  0.62260004  0.68221537  1
  O  O156  1  0.83790483  0.12421272  0.02465804  1
  O  O157  1  0.83312743  0.12458315  0.35562092  1
  O  O158  1  0.84204735  0.12314486  0.67259301  1
  O  O159  1  0.82824372  0.62520932  0.01450919  1
  O  O160  1  0.83902582  0.62571208  0.35385665  1
  O  O161  1  0.83461670  0.62564081  0.69556341  1
  O  O162  1  0.17624914  0.37935946  0.30564112  1
  O  O163  1  0.16949092  0.38368523  0.64191020  1
  O  O164  1  0.16176207  0.37485588  0.98944251  1
  O  O165  1  0.17933718  0.87043313  0.30898680  1
  O  O166  1  0.17311250  0.87006788  0.65519241  1
  O  O167  1  0.15976842  0.87776288  0.97223572  1
  O  O168  1  0.49846069  0.37773514  0.31036187  1
  O  O169  1  0.51169371  0.37893192  0.64178363  1
  O  O170  1  0.51198688  0.37010487  0.97910823  1
  O  O171  1  0.49438870  0.87196141  0.30804182  1
  O  O172  1  0.50960063  0.86729278  0.64624510  1
  O  O173  1  0.50157679  0.87891336  0.99724152  1
  O  O174  1  0.83583361  0.37585269  0.32192958  1
  O  O175  1  0.83049234  0.37804406  0.64481388  1
  O  O176  1  0.82989059  0.37403954  0.98870903  1
  O  O177  1  0.83669771  0.87229596  0.30764457  1
  O  O178  1  0.82980682  0.86960686  0.63958876  1
  O  O179  1  0.83697536  0.87793056  0.97592650  1
  O  O180  1  0.00463059  0.37998649  0.18475519  1
  O  O181  1  0.00653339  0.38210689  0.52303170  1
  O  O182  1  0.00044632  0.37578474  0.85431555  1
  O  O183  1  -0.00286824  0.87282430  0.18682761  1
  O  O184  1  -0.00604819  0.86859752  0.52171371  1
  O  O185  1  0.00167635  0.87644807  0.85503406  1
  O  O186  1  0.33897165  0.37756334  0.19239325  1
  O  O187  1  0.33060264  0.38169396  0.52480489  1
  O  O188  1  0.33692475  0.37255729  0.84953190  1
  O  O189  1  0.33867307  0.87130081  0.19159083  1
  O  O190  1  0.33803581  0.86490886  0.52742944  1
  O  O191  1  0.32338326  0.87536301  0.84011628  1
  O  O192  1  0.65986256  0.37545989  0.18822554  1
  O  O193  1  0.66662352  0.38000217  0.52569483  1
  O  O194  1  0.66276783  0.37077413  0.86136063  1
  O  O195  1  0.66918126  0.87506252  0.18044504  1
  O  O196  1  0.67574362  0.86989430  0.52951761  1
  O  O197  1  0.67520420  0.87561981  0.84458051  1
  O  O198  1  -0.00662444  0.12033800  0.14391709  1
  O  O199  1  -0.00835144  0.12327318  0.49158201  1
  O  O200  1  0.00855247  0.12087431  0.80286871  1
  O  O201  1  0.00693213  0.62687115  0.15337512  1
  O  O202  1  -0.00274418  0.62522256  0.46613312  1
  O  O203  1  -0.01143778  0.62733875  0.80489354  1
  O  O204  1  0.33756163  0.12892455  0.14140613  1
  O  O205  1  0.33355261  0.13228977  0.47902235  1
  O  O206  1  0.33601649  0.12709051  0.82147642  1
  O  O207  1  0.33236291  0.62343944  0.15536680  1
  O  O208  1  0.33276888  0.62284235  0.47286879  1
  O  O209  1  0.33058300  0.62477318  0.81342650  1
  O  O210  1  0.66586934  0.12591752  0.14859028  1
  O  O211  1  0.66928279  0.12227781  0.48655648  1
  O  O212  1  0.65851918  0.12732604  0.81110814  1
  O  O213  1  0.66082864  0.62347077  0.14574254  1
  O  O214  1  0.65988567  0.62499017  0.47522973  1
  O  O215  1  0.67400203  0.62487225  0.81465474  1
  O  O216  1  0.08250602  -0.00227764  0.24635123  1
  O  O217  1  0.07153393  0.00686334  0.59252761  1
  O  O218  1  0.08687180  0.02327204  0.91247120  1
  O  O219  1  0.09408827  0.51929444  0.24230068  1
  O  O220  1  0.08957949  0.52618706  0.57036216  1
  O  O221  1  0.08587484  0.52038367  0.90173400  1
  O  O222  1  0.41291268  0.01838620  0.25292930  1
  O  O223  1  0.41840873  -0.00023778  0.58289004  1
  O  O224  1  0.41758111  0.02100991  0.91969080  1
  O  O225  1  0.42327930  0.52136731  0.24893960  1
  O  O226  1  0.42294644  0.51749098  0.57381775  1
  O  O227  1  0.42475479  0.50070763  0.91513561  1
  O  O228  1  0.74749329  0.02055182  0.25442521  1
  O  O229  1  0.74810996  0.01867114  0.58690169  1
  O  O230  1  0.74649758  0.02012992  0.92443999  1
  O  O231  1  0.75304160  0.51990581  0.24846210  1
  O  O232  1  0.75588454  0.52792694  0.57995715  1
  O  O233  1  0.75405050  0.51962935  0.91140626  1
  O  O234  1  0.26123896  0.23820136  0.25846165  1
  O  O235  1  0.24659439  0.24798520  0.58129009  1
  O  O236  1  0.25255923  0.23160021  0.91934146  1
  O  O237  1  0.25674271  0.72505612  0.25766401  1
  O  O238  1  0.25645291  0.72177398  0.58750766  1
  O  O239  1  0.24615142  0.73675412  0.91389415  1
  O  O240  1  0.58097440  0.23302961  0.25089966  1
  O  O241  1  0.59254722  0.23854511  0.59674864  1
  O  O242  1  0.58167516  0.22107571  0.92542636  1
  O  O243  1  0.58679713  0.72545325  0.26292428  1
  O  O244  1  0.59015150  0.72374509  0.58985250  1
  O  O245  1  0.59202970  0.73665915  0.92606757  1
  O  O246  1  0.91150712  0.23660580  0.24428618  1
  O  O247  1  0.91346849  0.23995765  0.57849063  1
  O  O248  1  0.92515834  0.23557720  0.91776902  1
  O  O249  1  0.92788760  0.73547306  0.25325434  1
  O  O250  1  0.91739788  0.72310886  0.58444878  1
  O  O251  1  0.91233621  0.74097048  0.90735412  1
  O  O252  1  0.07795676  0.48006131  0.07729154  1
  O  O253  1  0.07885625  0.47421587  0.40582569  1
  O  O254  1  0.07367363  0.48640833  0.73341709  1
  O  O255  1  0.07910321  0.97902420  0.07750040  1
  O  O256  1  0.07911847  0.98317122  0.41165127  1
  O  O257  1  0.08357967  0.97072433  0.75131518  1
  O  O258  1  0.41795528  0.48073743  0.08495970  1
  O  O259  1  0.40910666  0.47629193  0.41199390  1
  O  O260  1  0.41292860  0.47867481  0.73932305  1
  O  O261  1  0.41920486  0.98634916  0.09248312  1
  O  O262  1  0.41477936  0.97554764  0.41614261  1
  O  O263  1  0.41211778  0.98524791  0.74664697  1
  O  O264  1  0.73807252  0.48945324  0.07291830  1
  O  O265  1  0.74477851  0.49430867  0.41491242  1
  O  O266  1  0.73856572  0.48605481  0.74220298  1
  O  O267  1  0.75790995  0.99203800  0.09465184  1
  O  O268  1  0.75580602  0.98419126  0.42739429  1
  O  O269  1  0.75360479  0.98319807  0.74690983  1
  O  O270  1  0.24696451  0.26946516  0.08957212  1
  O  O271  1  0.24673391  0.27695313  0.41744963  1
  O  O272  1  0.25028063  0.26132840  0.74604200  1
  O  O273  1  0.24201865  0.76364332  0.09722518  1
  O  O274  1  0.24932751  0.75726425  0.41783173  1
  O  O275  1  0.24431179  0.75998279  0.75260129  1
  O  O276  1  0.57947636  0.26797789  0.08776188  1
  O  O277  1  0.57732131  0.27026683  0.42524589  1
  O  O278  1  0.57744261  0.27371854  0.75775708  1
  O  O279  1  0.57772712  0.76168601  0.09968699  1
  O  O280  1  0.57254195  0.76633902  0.43118781  1
  O  O281  1  0.59005245  0.75941548  0.74800254  1
  O  O282  1  0.92008950  0.26476950  0.07629617  1
  O  O283  1  0.92006576  0.26855736  0.41239255  1
  O  O284  1  0.91988541  0.26208373  0.73994717  1
  O  O285  1  0.91633287  0.77177819  0.08147345  1
  O  O286  1  0.91314194  0.77283470  0.41677487  1
  O  O287  1  0.91622306  0.77729750  0.74600183  1
  O  O288  1  0.24407822  0.48729130  0.09658117  1
  O  O289  1  0.24110937  0.48278902  0.42438611  1
  O  O290  1  0.25217561  0.49119324  0.74290829  1
  O  O291  1  0.24307526  0.98164959  0.08964558  1
  O  O292  1  0.25626514  0.98785535  0.41277775  1
  O  O293  1  0.24291352  0.98832651  0.75444957  1
  O  O294  1  0.57673723  0.47778759  0.09337273  1
  O  O295  1  0.57309157  0.48372823  0.42871597  1
  O  O296  1  0.57958541  0.47872758  0.75979937  1
  O  O297  1  0.58018340  0.99462270  0.09170888  1
  O  O298  1  0.57798325  0.97978165  0.42822413  1
  O  O299  1  0.58595829  0.98779428  0.75059607  1
  O  O300  1  0.91757498  0.48740715  0.07759023  1
  O  O301  1  0.91697392  0.48121566  0.41789903  1
  O  O302  1  0.91831570  0.48196361  0.74179167  1
  O  O303  1  0.91753054  0.97455687  0.08033685  1
  O  O304  1  0.91669892  0.97577777  0.41184014  1
  O  O305  1  0.91802946  0.97631674  0.74472465  1
  O  O306  1  0.07787522  0.26467640  0.07585336  1
  O  O307  1  0.08288616  0.27439696  0.41479848  1
  O  O308  1  0.07789097  0.26960816  0.74327716  1
  O  O309  1  0.07927945  0.77662961  0.07646808  1
  O  O310  1  0.07564228  0.76718547  0.39794029  1
  O  O311  1  0.07634512  0.77027666  0.74053723  1
  O  O312  1  0.41498797  0.27436910  0.08155920  1
  O  O313  1  0.41062814  0.27552025  0.41339733  1
  O  O314  1  0.41616445  0.27424303  0.74704287  1
  O  O315  1  0.41944642  0.76009483  0.09261643  1
  O  O316  1  0.41125816  0.77398076  0.41270249  1
  O  O317  1  0.40703974  0.76321348  0.73580453  1
  O  O318  1  0.74085511  0.25798532  0.08076259  1
  O  O319  1  0.74765118  0.26123016  0.41750576  1
  O  O320  1  0.74213971  0.26011575  0.73906263  1
  O  O321  1  0.75566825  0.76179366  0.08774105  1
  O  O322  1  0.75299805  0.75842825  0.42495343  1
  O  O323  1  0.75302353  0.76788930  0.74827121  1
  O  O324  1  0.25654652  0.01375555  0.25422644  1
  O  O325  1  0.24917849  0.00497186  0.58728996  1
  O  O326  1  0.25243938  0.02233216  0.91959645  1
  O  O327  1  0.25788748  0.52223490  0.26181145  1
  O  O328  1  0.25491917  0.52896084  0.58490336  1
  O  O329  1  0.24770956  0.51365941  0.91551687  1
  O  O330  1  0.57873279  0.01367248  0.25230680  1
  O  O331  1  0.59005355  0.00901332  0.59243666  1
  O  O332  1  0.58051159  0.02493174  0.92327736  1
  O  O333  1  0.58744700  0.52431486  0.26118722  1
  O  O334  1  0.59274833  0.52335387  0.59415193  1
  O  O335  1  0.59663424  0.51113826  0.93161891  1
  O  O336  1  0.90782419  0.01093375  0.23989749  1
  O  O337  1  0.90909494  0.00727306  0.57599655  1
  O  O338  1  0.92560976  0.01559021  0.91871824  1
  O  O339  1  0.92775286  0.51430120  0.25443107  1
  O  O340  1  0.92253195  0.52536995  0.58022536  1
  O  O341  1  0.91452632  0.51278701  0.90956437  1
  O  O342  1  0.08414358  0.25032049  0.24846832  1
  O  O343  1  0.07518431  0.24112555  0.58591993  1
  O  O344  1  0.08659822  0.22805633  0.91037896  1
  O  O345  1  0.09594407  0.73582907  0.23855989  1
  O  O346  1  0.08809858  0.72583323  0.57534829  1
  O  O347  1  0.08785905  0.73461062  0.89879317  1
  O  O348  1  0.41839885  0.23221204  0.24566336  1
  O  O349  1  0.41905660  0.25281382  0.58230359  1
  O  O350  1  0.42166185  0.23084210  0.91612939  1
  O  O351  1  0.42197067  0.72738464  0.25183902  1
  O  O352  1  0.42454444  0.72659587  0.57384976  1
  O  O353  1  0.41726448  0.74421339  0.91371029  1
  O  O354  1  0.75030854  0.23093827  0.24895857  1
  O  O355  1  0.75147280  0.23012773  0.58022233  1
  O  O356  1  0.74595748  0.23117445  0.92182603  1
  O  O357  1  0.75200428  0.72862613  0.25268656  1
  O  O358  1  0.75387512  0.71971550  0.58488836  1
  O  O359  1  0.75252728  0.73058226  0.91534653  1
