# generated using pymatgen
data_Ba17Sr5La8Pr42Mn72O216
_symmetry_space_group_name_H-M   'P 1'
_cell_length_a   16.67724745
_cell_length_b   15.70303795
_cell_length_c   16.81839210
_cell_angle_alpha   90.00537683
_cell_angle_beta   89.97686148
_cell_angle_gamma   89.98514213
_symmetry_Int_Tables_number   1
_chemical_formula_structural   Ba17Sr5La8Pr42Mn72O216
_chemical_formula_sum   'Ba17 Sr5 La8 Pr42 Mn72 O216'
_cell_volume   4404.45801527
_cell_formula_units_Z   1
loop_
 _symmetry_equiv_pos_site_id
 _symmetry_equiv_pos_as_xyz
  1  'x, y, z'
loop_
 _atom_site_type_symbol
 _atom_site_label
 _atom_site_symmetry_multiplicity
 _atom_site_fract_x
 _atom_site_fract_y
 _atom_site_fract_z
 _atom_site_occupancy
  Ba  Ba0  1  0.66547611  0.12607337  0.33467933  1
  Ba  Ba1  1  0.50083128  0.62577646  0.83140002  1
  Ba  Ba2  1  0.83483593  0.87578115  0.50085534  1
  Ba  Ba3  1  0.33246699  0.12665148  0.33093487  1
  Ba  Ba4  1  0.49935220  0.37623245  0.49771297  1
  Ba  Ba5  1  -0.00065187  0.62506060  0.33407570  1
  Ba  Ba6  1  0.49604871  0.12470274  0.83213761  1
  Ba  Ba7  1  0.66935253  0.37597914  0.00133342  1
  Ba  Ba8  1  0.16506668  0.12480701  0.16987622  1
  Ba  Ba9  1  0.49853438  0.87464227  0.49842988  1
  Ba  Ba10  1  0.66348419  0.12759170  0.66744970  1
  Ba  Ba11  1  0.50078805  0.87338100  0.83143189  1
  Ba  Ba12  1  0.16753516  0.62411849  0.50351589  1
  Ba  Ba13  1  0.83202279  0.62329340  0.49956571  1
  Ba  Ba14  1  0.66580751  0.87459791  0.33412310  1
  Ba  Ba15  1  0.16392611  0.62520874  0.83565900  1
  Ba  Ba16  1  0.66712586  0.87418306  0.00077952  1
  Sr  Sr17  1  0.83574137  0.37223515  0.49845663  1
  Sr  Sr18  1  0.83855342  0.37615230  0.16322215  1
  Sr  Sr19  1  0.66708169  0.62551013  0.33725382  1
  Sr  Sr20  1  0.83925445  0.37217282  0.83306057  1
  Sr  Sr21  1  0.00494983  0.87338144  0.66683308  1
  La  La22  1  0.33164578  0.87676947  0.33539602  1
  La  La23  1  0.16390239  0.12516439  0.50202287  1
  La  La24  1  0.50169749  0.37359891  0.16644143  1
  La  La25  1  0.32831284  0.12410772  0.99708430  1
  La  La26  1  0.67170738  0.37823636  0.33407443  1
  La  La27  1  -0.00010063  0.62555307  0.65972348  1
  La  La28  1  0.00409833  0.37510384  0.00166003  1
  La  La29  1  0.50692159  0.62482165  0.16541684  1
  Pr  Pr30  1  0.16569081  0.37627725  0.50084146  1
  Pr  Pr31  1  -0.01059590  0.12471273  0.99747263  1
  Pr  Pr32  1  0.17190157  0.87538289  0.16971318  1
  Pr  Pr33  1  0.67751911  0.37633241  0.67158057  1
  Pr  Pr34  1  0.15867727  0.12250502  0.83948493  1
  Pr  Pr35  1  0.16987571  0.87564614  0.83187188  1
  Pr  Pr36  1  0.00170812  0.37431000  0.33454861  1
  Pr  Pr37  1  0.82240249  0.12635103  0.83478849  1
  Pr  Pr38  1  0.16815009  0.62439509  0.17449738  1
  Pr  Pr39  1  0.65941098  0.12776640  0.99541455  1
  Pr  Pr40  1  0.66693658  0.62279801  0.99931026  1
  Pr  Pr41  1  0.33321306  0.37890791  0.66905234  1
  Pr  Pr42  1  0.33502105  0.37813977  -0.00126965  1
  Pr  Pr43  1  0.83880504  0.87881678  0.82538939  1
  Pr  Pr44  1  0.82480614  0.12571488  0.16637150  1
  Pr  Pr45  1  0.32885794  0.37278481  0.33589162  1
  Pr  Pr46  1  0.33605020  0.87121913  -0.00060537  1
  Pr  Pr47  1  0.00647555  0.87535505  -0.00038685  1
  Pr  Pr48  1  0.82291348  0.12514626  0.49975872  1
  Pr  Pr49  1  -0.00730786  0.12502453  0.32980331  1
  Pr  Pr50  1  0.34131141  0.62690506  0.66326329  1
  Pr  Pr51  1  0.50399976  0.37739848  0.82431521  1
  Pr  Pr52  1  0.50166827  0.12545054  0.16607309  1
  Pr  Pr53  1  0.16530766  0.87301125  0.50039427  1
  Pr  Pr54  1  0.66405515  0.62457893  0.66268341  1
  Pr  Pr55  1  0.84026873  0.87260363  0.16716623  1
  Pr  Pr56  1  0.16881372  0.37345239  0.16808629  1
  Pr  Pr57  1  0.83195245  0.62456012  0.83386942  1
  Pr  Pr58  1  0.82436785  0.62396298  0.17379159  1
  Pr  Pr59  1  0.50088126  0.87793364  0.16415852  1
  Pr  Pr60  1  0.33467296  0.62532094  0.99570246  1
  Pr  Pr61  1  0.33844540  0.62255055  0.33271693  1
  Pr  Pr62  1  0.33392035  0.12179739  0.66215261  1
  Pr  Pr63  1  0.50536898  0.62617821  0.50041912  1
  Pr  Pr64  1  0.49907894  0.12208652  0.50252627  1
  Pr  Pr65  1  0.33228052  0.87180942  0.66838116  1
  Pr  Pr66  1  0.00245051  0.87619629  0.33852600  1
  Pr  Pr67  1  0.16888601  0.37288727  0.83263407  1
  Pr  Pr68  1  0.67255221  0.87323880  0.67093412  1
  Pr  Pr69  1  -0.00371116  0.62421887  0.99891517  1
  Pr  Pr70  1  0.00360974  0.37820313  0.66856900  1
  Pr  Pr71  1  -0.00735063  0.12501962  0.66397425  1
  Mn  Mn72  1  -0.00060947  -0.00091736  0.16666293  1
  Mn  Mn73  1  0.00097324  0.00225655  0.49941605  1
  Mn  Mn74  1  -0.00102493  0.00075820  0.83240182  1
  Mn  Mn75  1  0.00206215  0.50010604  0.16499919  1
  Mn  Mn76  1  -0.00048208  0.49691466  0.50152051  1
  Mn  Mn77  1  -0.00043807  0.49973412  0.83411974  1
  Mn  Mn78  1  0.33432361  -0.00130280  0.16536129  1
  Mn  Mn79  1  0.33085306  0.00047473  0.49957735  1
  Mn  Mn80  1  0.32978090  0.00035580  0.83125163  1
  Mn  Mn81  1  0.33438393  0.49998567  0.16569708  1
  Mn  Mn82  1  0.33275457  0.49933876  0.49982393  1
  Mn  Mn83  1  0.33176519  0.50032872  0.83429143  1
  Mn  Mn84  1  0.66663899  -0.00079898  0.16529864  1
  Mn  Mn85  1  0.66518785  0.00067856  0.50155753  1
  Mn  Mn86  1  0.66700167  -0.00017706  0.83515274  1
  Mn  Mn87  1  0.66755388  0.49945382  0.16797460  1
  Mn  Mn88  1  0.66833684  0.49730229  0.50077672  1
  Mn  Mn89  1  0.66951278  0.50013109  0.83358201  1
  Mn  Mn90  1  -0.00038051  0.24941930  0.16592069  1
  Mn  Mn91  1  0.00001010  0.24868235  0.49944867  1
  Mn  Mn92  1  -0.00039412  0.24916579  0.83260846  1
  Mn  Mn93  1  0.00202081  0.75109759  0.16481041  1
  Mn  Mn94  1  0.00050428  0.75138177  0.50144369  1
  Mn  Mn95  1  -0.00055155  0.74973728  0.83336554  1
  Mn  Mn96  1  0.33489172  0.25347699  0.16445660  1
  Mn  Mn97  1  0.33089749  0.25038944  0.50075912  1
  Mn  Mn98  1  0.32974715  0.25037389  0.83206140  1
  Mn  Mn99  1  0.33427946  0.74780192  0.16682179  1
  Mn  Mn100  1  0.33295862  0.74942921  0.49911666  1
  Mn  Mn101  1  0.33121331  0.74892573  0.83369345  1
  Mn  Mn102  1  0.66716472  0.25042631  0.16584018  1
  Mn  Mn103  1  0.66626382  0.25310185  0.49984406  1
  Mn  Mn104  1  0.66562311  0.25218339  0.83425640  1
  Mn  Mn105  1  0.66678455  0.75107693  0.16711617  1
  Mn  Mn106  1  0.66707531  0.74920560  0.50084271  1
  Mn  Mn107  1  0.67098623  0.74791779  0.83450961  1
  Mn  Mn108  1  0.16590022  0.24967381  0.00012145  1
  Mn  Mn109  1  0.16432464  0.25113636  0.33520669  1
  Mn  Mn110  1  0.16668265  0.24798846  0.66894020  1
  Mn  Mn111  1  0.16590042  0.75083846  0.00442525  1
  Mn  Mn112  1  0.16794001  0.74929082  0.33438046  1
  Mn  Mn113  1  0.16685048  0.75114919  0.66873803  1
  Mn  Mn114  1  0.49595078  0.25191984  -0.00128517  1
  Mn  Mn115  1  0.49986115  0.25190692  0.33188299  1
  Mn  Mn116  1  0.49726017  0.25162947  0.66428129  1
  Mn  Mn117  1  0.49944546  0.74885999  0.00084304  1
  Mn  Mn118  1  0.49858966  0.74698410  0.33124351  1
  Mn  Mn119  1  0.50149501  0.75046574  0.66416572  1
  Mn  Mn120  1  0.83448244  0.25075155  0.00007774  1
  Mn  Mn121  1  0.83462017  0.25198310  0.33102651  1
  Mn  Mn122  1  0.83557523  0.25065212  0.66522703  1
  Mn  Mn123  1  0.83660244  0.74980201  0.00005808  1
  Mn  Mn124  1  0.83421576  0.74968973  0.33210190  1
  Mn  Mn125  1  0.83528007  0.74959470  0.66987698  1
  Mn  Mn126  1  0.16568564  -0.00130329  0.00171029  1
  Mn  Mn127  1  0.16507775  -0.00016335  0.33562069  1
  Mn  Mn128  1  0.16615465  0.00191725  0.66909042  1
  Mn  Mn129  1  0.16624210  0.49995181  0.00423847  1
  Mn  Mn130  1  0.16732431  0.49978748  0.33419440  1
  Mn  Mn131  1  0.16753747  0.49916815  0.66938448  1
  Mn  Mn132  1  0.49659449  -0.00003264  0.00069577  1
  Mn  Mn133  1  0.49841323  0.00168873  0.33157390  1
  Mn  Mn134  1  0.49941183  -0.00088258  0.66539023  1
  Mn  Mn135  1  0.49918503  0.49909613  -0.00158608  1
  Mn  Mn136  1  0.49989456  0.50032198  0.33098588  1
  Mn  Mn137  1  0.50019292  0.49903380  0.66374032  1
  Mn  Mn138  1  0.83386425  -0.00234562  -0.00084210  1
  Mn  Mn139  1  0.83436290  0.00099497  0.33161774  1
  Mn  Mn140  1  0.83444986  0.00213965  0.66646032  1
  Mn  Mn141  1  0.83656052  0.50153043  0.00123637  1
  Mn  Mn142  1  0.83457842  0.49833791  0.33194400  1
  Mn  Mn143  1  0.83560442  0.49765140  0.66949922  1
  O  O144  1  0.17279277  0.12540014  0.01433198  1
  O  O145  1  0.16005359  0.12798663  0.35585256  1
  O  O146  1  0.16986372  0.12582918  0.69752417  1
  O  O147  1  0.16447775  0.62911695  0.03072120  1
  O  O148  1  0.17226995  0.62470993  0.34617630  1
  O  O149  1  0.15916594  0.62445430  0.67930152  1
  O  O150  1  0.48965865  0.12696276  0.02055255  1
  O  O151  1  0.49705246  0.13207754  0.35709717  1
  O  O152  1  0.48996388  0.12636114  0.67612000  1
  O  O153  1  0.49056093  0.62339172  0.01939329  1
  O  O154  1  0.49116134  0.62179834  0.35690615  1
  O  O155  1  0.49899398  0.62366055  0.67612844  1
  O  O156  1  0.84118897  0.12171727  0.02337637  1
  O  O157  1  0.84135984  0.12784905  0.35411815  1
  O  O158  1  0.84239026  0.12751833  0.69052676  1
  O  O159  1  0.84517192  0.62841317  0.02951926  1
  O  O160  1  0.83014049  0.62277567  0.33878348  1
  O  O161  1  0.83792176  0.62244135  0.68959851  1
  O  O162  1  0.16663848  0.37603614  0.31238287  1
  O  O163  1  0.16638923  0.37027845  0.64418097  1
  O  O164  1  0.16393139  0.37130175  0.97465571  1
  O  O165  1  0.16764304  0.87247000  0.31403681  1
  O  O166  1  0.17170807  0.87903971  0.64396313  1
  O  O167  1  0.16507013  0.87419525  0.97447218  1
  O  O168  1  0.49809127  0.37753698  0.30814712  1
  O  O169  1  0.48840918  0.37614151  0.65319098  1
  O  O170  1  0.49405432  0.37517881  0.97052889  1
  O  O171  1  0.49184383  0.86916623  0.30799207  1
  O  O172  1  0.49708048  0.87361616  0.65559986  1
  O  O173  1  0.49556748  0.87388358  0.98949023  1
  O  O174  1  0.84092955  0.37407101  0.31239945  1
  O  O175  1  0.83410408  0.37282623  0.64890816  1
  O  O176  1  0.84244640  0.37587638  0.98235952  1
  O  O177  1  0.84493217  0.87666698  0.31230329  1
  O  O178  1  0.82369115  0.87735751  0.66035952  1
  O  O179  1  0.84054738  0.87360111  0.96953076  1
  O  O180  1  0.00008910  0.37489946  0.18880113  1
  O  O181  1  -0.00001012  0.36920668  0.52530684  1
  O  O182  1  0.00207361  0.37165818  0.85857763  1
  O  O183  1  -0.00945707  0.87635448  0.19391137  1
  O  O184  1  0.00394679  0.87988858  0.51634839  1
  O  O185  1  -0.00615432  0.87648291  0.85720318  1
  O  O186  1  0.33778774  0.37928728  0.19331764  1
  O  O187  1  0.32456442  0.37393157  0.52497603  1
  O  O188  1  0.32789426  0.37542440  0.85583055  1
  O  O189  1  0.33666871  0.86832060  0.19264376  1
  O  O190  1  0.32533108  0.87667910  0.52424571  1
  O  O191  1  0.32536080  0.87366709  0.85422341  1
  O  O192  1  0.65863194  0.37601296  0.18565258  1
  O  O193  1  0.66910211  0.37494826  0.52635788  1
  O  O194  1  0.65892165  0.37579000  0.84458606  1
  O  O195  1  0.65307292  0.87595003  0.17532375  1
  O  O196  1  0.66565725  0.87374208  0.52392988  1
  O  O197  1  0.67781941  0.87408764  0.84307354  1
  O  O198  1  0.00051870  0.12140683  0.14056276  1
  O  O199  1  0.01158246  0.12648459  0.47336555  1
  O  O200  1  0.00869442  0.12580990  0.80743226  1
  O  O201  1  0.01489729  0.62759680  0.14124421  1
  O  O202  1  0.00201712  0.62381658  0.49666638  1
  O  O203  1  -0.00405494  0.62562678  0.80529680  1
  O  O204  1  0.33952738  0.12868591  0.13990203  1
  O  O205  1  0.33464842  0.12648116  0.48709758  1
  O  O206  1  0.32311162  0.12778461  0.80737902  1
  O  O207  1  0.32286785  0.62411874  0.13703152  1
  O  O208  1  0.33535625  0.62279633  0.47749607  1
  O  O209  1  0.32951628  0.62325867  0.80986472  1
  O  O210  1  0.67226737  0.12334897  0.14293337  1
  O  O211  1  0.66771419  0.12927344  0.49168833  1
  O  O212  1  0.67013120  0.12784013  0.82606852  1
  O  O213  1  0.67302862  0.62572993  0.14601656  1
  O  O214  1  0.66347081  0.62124615  0.48873171  1
  O  O215  1  0.67626948  0.62225828  0.80760674  1
  O  O216  1  0.07143802  0.01044957  0.26158950  1
  O  O217  1  0.08079490  0.02347231  0.59159932  1
  O  O218  1  0.07209843  0.01747729  0.92621631  1
  O  O219  1  0.09009889  0.51102669  0.24474826  1
  O  O220  1  0.08290466  0.50295095  0.58955325  1
  O  O221  1  0.07388581  0.51547807  0.92490869  1
  O  O222  1  0.42182873  0.01470310  0.24047339  1
  O  O223  1  0.41260937  0.01622034  0.58036329  1
  O  O224  1  0.40353707  0.01169761  0.92302832  1
  O  O225  1  0.41834916  0.52537321  0.24138299  1
  O  O226  1  0.41806961  0.52010219  0.57884063  1
  O  O227  1  0.41098412  0.51371784  0.91836701  1
  O  O228  1  0.75281298  0.00999411  0.24661060  1
  O  O229  1  0.75140499  0.01438367  0.58599475  1
  O  O230  1  0.74660868  0.02289137  0.92534497  1
  O  O231  1  0.74660846  0.50907810  0.25211198  1
  O  O232  1  0.74404879  0.51104107  0.59642213  1
  O  O233  1  0.75240883  0.52474960  0.92325081  1
  O  O234  1  0.24793633  0.24878971  0.24699947  1
  O  O235  1  0.24320732  0.22632309  0.58372485  1
  O  O236  1  0.23903275  0.23325337  0.90649587  1
  O  O237  1  0.25473257  0.73008834  0.25237968  1
  O  O238  1  0.26110862  0.73644853  0.59474406  1
  O  O239  1  0.25168456  0.73455700  0.92830932  1
  O  O240  1  0.57747393  0.23520429  0.24222426  1
  O  O241  1  0.57170413  0.23665496  0.57442533  1
  O  O242  1  0.57940413  0.23563852  0.92057083  1
  O  O243  1  0.57981506  0.72940087  0.25041052  1
  O  O244  1  0.58318914  0.72965617  0.58255200  1
  O  O245  1  0.59014207  0.73247647  0.92035474  1
  O  O246  1  0.91249226  0.22660157  0.24075335  1
  O  O247  1  0.91463840  0.22332276  0.57480586  1
  O  O248  1  0.91124491  0.22562709  0.90792352  1
  O  O249  1  0.91277600  0.73305854  0.23391392  1
  O  O250  1  0.91868092  0.73971349  0.59087319  1
  O  O251  1  0.91394886  0.72430174  0.91277924  1
  O  O252  1  0.08798002  0.47479967  0.08670297  1
  O  O253  1  0.08250632  0.47674395  0.41806167  1
  O  O254  1  0.08573235  0.47548831  0.75437217  1
  O  O255  1  0.08792327  0.97386869  0.09302725  1
  O  O256  1  0.08868950  0.97904621  0.42512537  1
  O  O257  1  0.09230207  0.98278330  0.76254777  1
  O  O258  1  0.41393647  0.47889865  0.08093496  1
  O  O259  1  0.40665408  0.48430864  0.40396741  1
  O  O260  1  0.41509120  0.48314555  0.74864431  1
  O  O261  1  0.41537212  0.97612886  0.08328880  1
  O  O262  1  0.40876824  0.98516440  0.40966500  1
  O  O263  1  0.41001318  0.98807097  0.74430199  1
  O  O264  1  0.75723484  0.49356598  0.08789265  1
  O  O265  1  0.75041279  0.47894384  0.41835444  1
  O  O266  1  0.75524830  0.47924139  0.75421981  1
  O  O267  1  0.76176266  0.98277726  0.09028246  1
  O  O268  1  0.75653467  0.99724303  0.41941414  1
  O  O269  1  0.76004249  0.99265251  0.75963387  1
  O  O270  1  0.25578547  0.27364273  0.07842515  1
  O  O271  1  0.24726172  0.27104089  0.41895732  1
  O  O272  1  0.25395025  0.27634253  0.74511800  1
  O  O273  1  0.24986978  0.77612535  0.08795098  1
  O  O274  1  0.24615223  0.77095225  0.42196605  1
  O  O275  1  0.24678016  0.77196733  0.75274919  1
  O  O276  1  0.57978091  0.25730841  0.08417103  1
  O  O277  1  0.59085913  0.27113716  0.40789688  1
  O  O278  1  0.58243097  0.27122435  0.74314618  1
  O  O279  1  0.57847102  0.75291927  0.08821274  1
  O  O280  1  0.57620553  0.75129588  0.41766521  1
  O  O281  1  0.59426116  0.75972401  0.74132235  1
  O  O282  1  0.92782083  0.26245004  0.07189794  1
  O  O283  1  0.92708351  0.26434336  0.40569969  1
  O  O284  1  0.92818439  0.26572829  0.73975877  1
  O  O285  1  0.92533325  0.77412776  0.07469432  1
  O  O286  1  0.92240903  0.76285066  0.40903059  1
  O  O287  1  0.91837698  0.77015282  0.75208035  1
  O  O288  1  0.25028288  0.47289071  0.08914315  1
  O  O289  1  0.24661740  0.47697883  0.42071717  1
  O  O290  1  0.24769951  0.47675829  0.75412186  1
  O  O291  1  0.25491883  0.97693549  0.07896825  1
  O  O292  1  0.24677563  0.98134459  0.42132118  1
  O  O293  1  0.25209792  0.97617623  0.74564097  1
  O  O294  1  0.57945522  0.49226684  0.08758726  1
  O  O295  1  0.58818145  0.48632479  0.41013710  1
  O  O296  1  0.58496951  0.48168469  0.74285941  1
  O  O297  1  0.57740616  0.99729287  0.08582635  1
  O  O298  1  0.57831139  0.99601636  0.41694173  1
  O  O299  1  0.59138492  0.98583920  0.74453466  1
  O  O300  1  0.92932830  0.48709376  0.07262279  1
  O  O301  1  0.92107511  0.48235259  0.41192240  1
  O  O302  1  0.92283963  0.47830877  0.74807799  1
  O  O303  1  0.92471062  0.97818956  0.07340713  1
  O  O304  1  0.92845546  0.99142992  0.40333931  1
  O  O305  1  0.92498294  0.98584713  0.74284299  1
  O  O306  1  0.08960743  0.27123025  0.09020987  1
  O  O307  1  0.08715999  0.27497194  0.42470392  1
  O  O308  1  0.08994447  0.27206491  0.75685879  1
  O  O309  1  0.08663681  0.78065659  0.08687655  1
  O  O310  1  0.08476255  0.77013454  0.41553506  1
  O  O311  1  0.08624938  0.77179690  0.75728773  1
  O  O312  1  0.41762407  0.27914009  0.08212778  1
  O  O313  1  0.41061648  0.26966705  0.40982159  1
  O  O314  1  0.41702276  0.27200756  0.75633918  1
  O  O315  1  0.41337979  0.76813553  0.08456607  1
  O  O316  1  0.40463092  0.76168462  0.40415032  1
  O  O317  1  0.40990048  0.75853870  0.73846648  1
  O  O318  1  0.75759238  0.25777967  0.08708472  1
  O  O319  1  0.75517055  0.26574289  0.41599553  1
  O  O320  1  0.75455074  0.26447364  0.75128114  1
  O  O321  1  0.76221577  0.76571383  0.08868345  1
  O  O322  1  0.74777500  0.75704479  0.42103443  1
  O  O323  1  0.76019192  0.76310049  0.76065285  1
  O  O324  1  0.24835543  0.00282974  0.24776883  1
  O  O325  1  0.24604367  0.02418382  0.58424398  1
  O  O326  1  0.24050213  0.01611366  0.90765141  1
  O  O327  1  0.25577943  0.51758009  0.25197777  1
  O  O328  1  0.25845848  0.51207394  0.59640302  1
  O  O329  1  0.25254028  0.51507504  0.92792202  1
  O  O330  1  0.57829020  0.01524517  0.24387205  1
  O  O331  1  0.57570582  0.01437562  0.57888904  1
  O  O332  1  0.58181028  0.01475630  0.92234581  1
  O  O333  1  0.58099114  0.51872693  0.24784664  1
  O  O334  1  0.58216542  0.51755885  0.58106412  1
  O  O335  1  0.58770256  0.51752048  0.92022778  1
  O  O336  1  0.91105989  0.02378222  0.23991092  1
  O  O337  1  0.91395262  0.02613692  0.57468938  1
  O  O338  1  0.90919022  0.02444871  0.90608113  1
  O  O339  1  0.91387885  0.51630437  0.23621965  1
  O  O340  1  0.92100135  0.50897772  0.59020608  1
  O  O341  1  0.91370225  0.52335124  0.91183526  1
  O  O342  1  0.07225532  0.23951720  0.26152976  1
  O  O343  1  0.07978892  0.22767615  0.59174644  1
  O  O344  1  0.07449956  0.22714820  0.92314075  1
  O  O345  1  0.09122144  0.74092282  0.24414853  1
  O  O346  1  0.08493877  0.74517174  0.58816648  1
  O  O347  1  0.07398287  0.73679030  0.92686617  1
  O  O348  1  0.42100154  0.23743257  0.24025272  1
  O  O349  1  0.40832682  0.23375114  0.58740520  1
  O  O350  1  0.40006685  0.23587099  0.92448068  1
  O  O351  1  0.41729270  0.71989879  0.24377733  1
  O  O352  1  0.42034592  0.72974527  0.57487821  1
  O  O353  1  0.41138008  0.73841571  0.92057246  1
  O  O354  1  0.75123893  0.23963531  0.24875995  1
  O  O355  1  0.75368359  0.23826177  0.58208865  1
  O  O356  1  0.74883741  0.23098641  0.92390112  1
  O  O357  1  0.75114341  0.74321511  0.24695652  1
  O  O358  1  0.74296062  0.73684264  0.59903817  1
  O  O359  1  0.75143640  0.72086869  0.92396585  1
