# generated using pymatgen
data_Ba17Sr5La8Pr42Mn72O216
_symmetry_space_group_name_H-M   'P 1'
_cell_length_a   16.67186695
_cell_length_b   15.70497785
_cell_length_c   16.81530303
_cell_angle_alpha   89.99072187
_cell_angle_beta   89.97966416
_cell_angle_gamma   90.04930460
_symmetry_Int_Tables_number   1
_chemical_formula_structural   Ba17Sr5La8Pr42Mn72O216
_chemical_formula_sum   'Ba17 Sr5 La8 Pr42 Mn72 O216'
_cell_volume   4402.77070693
_cell_formula_units_Z   1
loop_
 _symmetry_equiv_pos_site_id
 _symmetry_equiv_pos_as_xyz
  1  'x, y, z'
loop_
 _atom_site_type_symbol
 _atom_site_label
 _atom_site_symmetry_multiplicity
 _atom_site_fract_x
 _atom_site_fract_y
 _atom_site_fract_z
 _atom_site_occupancy
  Ba  Ba0  1  0.33995531  0.62621487  0.33168018  1
  Ba  Ba1  1  0.16713012  0.87444493  0.16462552  1
  Ba  Ba2  1  -0.00100344  0.12468771  0.66699760  1
  Ba  Ba3  1  0.33247274  0.12513231  0.99965024  1
  Ba  Ba4  1  0.66853150  0.62675601  0.66580095  1
  Ba  Ba5  1  0.50149384  0.37460055  0.49906689  1
  Ba  Ba6  1  0.16475287  0.37515885  0.16547498  1
  Ba  Ba7  1  0.16528552  0.37654993  0.83015757  1
  Ba  Ba8  1  -0.00195857  0.37507833  0.33396979  1
  Ba  Ba9  1  0.83098957  0.37388634  0.83670374  1
  Ba  Ba10  1  0.83398135  0.12480327  0.83743219  1
  Ba  Ba11  1  0.00072717  0.62566223  0.99848908  1
  Ba  Ba12  1  0.33597914  0.87560445  0.33483129  1
  Ba  Ba13  1  0.33293093  0.87575810  0.00022240  1
  Ba  Ba14  1  0.16593718  0.87542583  0.49796707  1
  Ba  Ba15  1  0.49760802  0.87483650  0.83341206  1
  Ba  Ba16  1  0.33240101  0.37551672  0.66508580  1
  Sr  Sr17  1  0.33067189  0.87480546  0.67053756  1
  Sr  Sr18  1  0.50412669  0.62692620  0.16816603  1
  Sr  Sr19  1  0.16268768  0.37379725  0.49532516  1
  Sr  Sr20  1  0.66493364  0.62440382  0.99863409  1
  Sr  Sr21  1  0.00290897  0.12484621  0.99612610  1
  La  La22  1  0.49649772  0.62464180  0.83620947  1
  La  La23  1  0.66764549  0.87617230  0.33171511  1
  La  La24  1  0.49820542  0.12212234  0.16802726  1
  La  La25  1  -0.00140210  0.87758633  0.00034717  1
  La  La26  1  0.17085316  0.12328525  0.16400673  1
  La  La27  1  0.16561940  0.12698029  0.83404811  1
  La  La28  1  0.83195892  0.87366510  0.83718055  1
  La  La29  1  0.00870826  0.62530932  0.32901189  1
  Pr  Pr30  1  0.00541078  0.62351963  0.66579627  1
  Pr  Pr31  1  0.83376556  0.87301970  0.16573371  1
  Pr  Pr32  1  0.17807920  0.62657362  0.16907188  1
  Pr  Pr33  1  0.50339975  0.87264069  0.49981360  1
  Pr  Pr34  1  0.17539415  0.62401227  0.83240001  1
  Pr  Pr35  1  0.33793986  0.62480573  0.66403291  1
  Pr  Pr36  1  0.83033058  0.37412964  0.50208358  1
  Pr  Pr37  1  0.66384607  0.12547911  0.99539908  1
  Pr  Pr38  1  -0.00259811  0.87661435  0.66926409  1
  Pr  Pr39  1  0.49363817  0.12472499  0.83525307  1
  Pr  Pr40  1  0.33293846  0.62456450  1.00300459  1
  Pr  Pr41  1  0.49911722  0.37667292  0.16586059  1
  Pr  Pr42  1  0.83355803  0.12519361  0.50750139  1
  Pr  Pr43  1  0.49939203  0.62575319  0.50049127  1
  Pr  Pr44  1  -0.00120408  0.37376751  0.66806942  1
  Pr  Pr45  1  0.17116591  0.12552767  0.50006559  1
  Pr  Pr46  1  0.66892953  0.62223130  0.32977467  1
  Pr  Pr47  1  0.83760030  0.62402682  0.17113540  1
  Pr  Pr48  1  0.16477423  0.87725548  0.82949786  1
  Pr  Pr49  1  0.83649282  0.12515507  0.17020125  1
  Pr  Pr50  1  0.83053026  0.37685248  0.16411963  1
  Pr  Pr51  1  0.66676860  0.87540270  0.00444564  1
  Pr  Pr52  1  0.66459359  0.37533349  0.00045449  1
  Pr  Pr53  1  0.49528691  0.12451670  0.50256678  1
  Pr  Pr54  1  0.66467711  0.12502794  0.66637335  1
  Pr  Pr55  1  0.49967954  0.37384502  0.82764642  1
  Pr  Pr56  1  0.83817139  0.62446036  0.50407193  1
  Pr  Pr57  1  0.32967654  0.12639576  0.33215298  1
  Pr  Pr58  1  0.00652243  0.12401184  0.33255826  1
  Pr  Pr59  1  0.49957192  0.87114382  0.16057880  1
  Pr  Pr60  1  -0.00360406  0.87315777  0.33629291  1
  Pr  Pr61  1  0.32832969  0.37401935  0.00102926  1
  Pr  Pr62  1  0.83183088  0.87518040  0.50257855  1
  Pr  Pr63  1  -0.00942455  0.37147866  0.00417513  1
  Pr  Pr64  1  0.66788749  0.87479247  0.67169191  1
  Pr  Pr65  1  0.83115638  0.62476492  0.83978082  1
  Pr  Pr66  1  0.17669404  0.62434047  0.49769048  1
  Pr  Pr67  1  0.66679406  0.12729752  0.33213480  1
  Pr  Pr68  1  0.66695182  0.37524617  0.33566402  1
  Pr  Pr69  1  0.32905923  0.12474877  0.66884041  1
  Pr  Pr70  1  0.66752135  0.37599479  0.67105306  1
  Pr  Pr71  1  0.32799970  0.37509422  0.34229625  1
  Mn  Mn72  1  -0.00132249  0.00136313  0.16633950  1
  Mn  Mn73  1  -0.00262003  -0.00091880  0.49820989  1
  Mn  Mn74  1  -0.00012645  -0.00102206  0.83486754  1
  Mn  Mn75  1  -0.00087677  0.50108257  0.16585959  1
  Mn  Mn76  1  0.00016172  0.50234209  0.49964205  1
  Mn  Mn77  1  -0.00178113  0.50100569  0.83205375  1
  Mn  Mn78  1  0.33545562  0.00130995  0.16807351  1
  Mn  Mn79  1  0.33620838  0.00042634  0.50182738  1
  Mn  Mn80  1  0.33133589  -0.00090189  0.83155431  1
  Mn  Mn81  1  0.33738616  0.49678039  0.16704944  1
  Mn  Mn82  1  0.33428850  0.49983824  0.49926264  1
  Mn  Mn83  1  0.33405012  0.50100060  0.83376072  1
  Mn  Mn84  1  0.66838998  0.00252541  0.16708676  1
  Mn  Mn85  1  0.66641765  -0.00021366  0.50019097  1
  Mn  Mn86  1  0.66517219  -0.00064655  0.83418711  1
  Mn  Mn87  1  0.66701867  0.50012731  0.16624617  1
  Mn  Mn88  1  0.66851762  0.50090588  0.49866609  1
  Mn  Mn89  1  0.66484544  0.50129421  0.83423918  1
  Mn  Mn90  1  -0.00237642  0.24706084  0.16625925  1
  Mn  Mn91  1  -0.00164190  0.24958424  0.49899012  1
  Mn  Mn92  1  -0.00046411  0.25103851  0.83496954  1
  Mn  Mn93  1  0.00069137  0.74994900  0.16629256  1
  Mn  Mn94  1  -0.00052161  0.74841235  0.49957182  1
  Mn  Mn95  1  -0.00053217  0.74945535  0.83097784  1
  Mn  Mn96  1  0.33500498  0.25068647  0.16844552  1
  Mn  Mn97  1  0.33336895  0.24873994  0.49902117  1
  Mn  Mn98  1  0.33271883  0.25063564  0.83326435  1
  Mn  Mn99  1  0.33751596  0.74997178  0.16594622  1
  Mn  Mn100  1  0.33594357  0.75089279  0.50239302  1
  Mn  Mn101  1  0.33130724  0.74941032  0.83243142  1
  Mn  Mn102  1  0.66679359  0.24931832  0.16622855  1
  Mn  Mn103  1  0.66741726  0.24851002  0.49969597  1
  Mn  Mn104  1  0.66418493  0.24911816  0.83340684  1
  Mn  Mn105  1  0.66914251  0.74842283  0.16729659  1
  Mn  Mn106  1  0.66851496  0.75124939  0.49787596  1
  Mn  Mn107  1  0.66581186  0.74945623  0.83521169  1
  Mn  Mn108  1  0.16419098  0.25127758  -0.00146393  1
  Mn  Mn109  1  0.16568054  0.24831997  0.33318365  1
  Mn  Mn110  1  0.16512090  0.24984130  0.66362872  1
  Mn  Mn111  1  0.16635581  0.74790705  -0.00269022  1
  Mn  Mn112  1  0.16735181  0.75101242  0.33252421  1
  Mn  Mn113  1  0.16508689  0.74896710  0.66562600  1
  Mn  Mn114  1  0.50024582  0.25294668  -0.00099341  1
  Mn  Mn115  1  0.50197007  0.24824317  0.33221961  1
  Mn  Mn116  1  0.50091813  0.24864964  0.66725200  1
  Mn  Mn117  1  0.50122199  0.74708009  0.00074277  1
  Mn  Mn118  1  0.50560630  0.75213396  0.33269593  1
  Mn  Mn119  1  0.49988676  0.75077759  0.66600692  1
  Mn  Mn120  1  0.83094156  0.24903474  0.00449296  1
  Mn  Mn121  1  0.83283048  0.24794858  0.33587470  1
  Mn  Mn122  1  0.83177944  0.24966696  0.66731866  1
  Mn  Mn123  1  0.83130735  0.74951350  0.00196547  1
  Mn  Mn124  1  0.83302024  0.75060623  0.33634436  1
  Mn  Mn125  1  0.83510480  0.75028213  0.66917156  1
  Mn  Mn126  1  0.16462723  0.00030441  -0.00216494  1
  Mn  Mn127  1  0.16571846  0.00005092  0.33259383  1
  Mn  Mn128  1  0.16562810  -0.00025916  0.66479164  1
  Mn  Mn129  1  0.16499613  0.50031060  -0.00133336  1
  Mn  Mn130  1  0.16787633  0.50069488  0.33254637  1
  Mn  Mn131  1  0.16542529  0.50145023  0.66330745  1
  Mn  Mn132  1  0.50202756  0.00110099  0.00088174  1
  Mn  Mn133  1  0.50306940  0.00125658  0.33506982  1
  Mn  Mn134  1  0.49962848  0.00115341  0.66606108  1
  Mn  Mn135  1  0.49908652  0.49899751  -0.00071613  1
  Mn  Mn136  1  0.50341303  0.49912032  0.33106591  1
  Mn  Mn137  1  0.50202203  0.50044951  0.66680722  1
  Mn  Mn138  1  0.83137795  -0.00065686  0.00373320  1
  Mn  Mn139  1  0.83303704  0.00077005  0.33642967  1
  Mn  Mn140  1  0.83117055  -0.00099788  0.66866774  1
  Mn  Mn141  1  0.82999529  0.50168956  0.00216588  1
  Mn  Mn142  1  0.83350989  0.49962347  0.33620736  1
  Mn  Mn143  1  0.83490414  0.50115388  0.66822638  1
  O  O144  1  0.15984922  0.12748602  0.01838187  1
  O  O145  1  0.16374822  0.12344260  0.35361803  1
  O  O146  1  0.16935869  0.12333697  0.68708865  1
  O  O147  1  0.16785348  0.62236691  0.02426201  1
  O  O148  1  0.16390931  0.62698133  0.34994149  1
  O  O149  1  0.15877421  0.62628333  0.68920072  1
  O  O150  1  0.50794296  0.12990803  0.02413604  1
  O  O151  1  0.51027424  0.12431098  0.36007110  1
  O  O152  1  0.50872241  0.12561642  0.69176479  1
  O  O153  1  0.49441295  0.62013900  0.02038593  1
  O  O154  1  0.51229607  0.62783236  0.35601011  1
  O  O155  1  0.49598689  0.62434691  0.68869474  1
  O  O156  1  0.82311207  0.12347681  0.02503381  1
  O  O157  1  0.82621028  0.12421929  0.36516549  1
  O  O158  1  0.82658827  0.12342819  0.67980943  1
  O  O159  1  0.82715268  0.62738668  0.02582032  1
  O  O160  1  0.82349541  0.62986173  0.36194071  1
  O  O161  1  0.84000139  0.62941607  0.69528992  1
  O  O162  1  0.17472742  0.37249500  0.32534143  1
  O  O163  1  0.15912790  0.37714871  0.64512625  1
  O  O164  1  0.17495993  0.37699248  0.98751058  1
  O  O165  1  0.15741670  0.87632529  0.32257408  1
  O  O166  1  0.16213804  0.87321052  0.65372797  1
  O  O167  1  0.16349651  0.87231858  0.97529378  1
  O  O168  1  0.50866355  0.37006472  0.30994176  1
  O  O169  1  0.50722208  0.37410521  0.65487898  1
  O  O170  1  0.50777860  0.37548061  0.97100721  1
  O  O171  1  0.50972377  0.87989570  0.30614834  1
  O  O172  1  0.50356362  0.87757396  0.64274923  1
  O  O173  1  0.50964022  0.87476651  0.99240805  1
  O  O174  1  0.82679748  0.36927830  0.30716060  1
  O  O175  1  0.82815509  0.37391933  0.64545235  1
  O  O176  1  0.83907277  0.37559467  0.99481109  1
  O  O177  1  0.83415623  0.87565093  0.30730890  1
  O  O178  1  0.82982264  0.87366162  0.64544808  1
  O  O179  1  0.82843092  0.87343165  0.98222106  1
  O  O180  1  -0.01082060  0.37443480  0.17746920  1
  O  O181  1  0.00080760  0.38040541  0.52314638  1
  O  O182  1  0.00033840  0.37812347  0.85863092  1
  O  O183  1  -0.00665736  0.87756577  0.19331661  1
  O  O184  1  -0.00268771  0.87263804  0.52459780  1
  O  O185  1  0.00790071  0.87293924  0.85488272  1
  O  O186  1  0.34056191  0.37122618  0.19578792  1
  O  O187  1  0.32951466  0.37304636  0.50648367  1
  O  O188  1  0.33993893  0.37813328  0.85567799  1
  O  O189  1  0.34388176  0.87929804  0.17566145  1
  O  O190  1  0.34313734  0.87633176  0.51992192  1
  O  O191  1  0.32260469  0.87278338  0.84288174  1
  O  O192  1  0.66667969  0.37326295  0.19387956  1
  O  O193  1  0.67342599  0.37213422  0.52710313  1
  O  O194  1  0.65669070  0.37531832  0.85510344  1
  O  O195  1  0.66637372  0.87803364  0.18988630  1
  O  O196  1  0.66516143  0.87637687  0.52864361  1
  O  O197  1  0.66861714  0.87467673  0.85860784  1
  O  O198  1  -0.00888969  0.12273125  0.14530196  1
  O  O199  1  -0.01524795  0.12012452  0.47705903  1
  O  O200  1  0.00353050  0.12361089  0.82496004  1
  O  O201  1  -0.00971812  0.62473916  0.15544906  1
  O  O202  1  -0.01439825  0.62737359  0.47353852  1
  O  O203  1  -0.01404748  0.62679220  0.80936677  1
  O  O204  1  0.33644905  0.12685493  0.15648912  1
  O  O205  1  0.34009030  0.12490365  0.47697327  1
  O  O206  1  0.33573079  0.12446837  0.81450775  1
  O  O207  1  0.33579752  0.62103735  0.14897091  1
  O  O208  1  0.33880729  0.62516487  0.48983371  1
  O  O209  1  0.33407356  0.62486459  0.80991752  1
  O  O210  1  0.67153666  0.12571141  0.13808357  1
  O  O211  1  0.67289536  0.12238515  0.47415892  1
  O  O212  1  0.66266223  0.12358530  0.81184239  1
  O  O213  1  0.67381378  0.62328162  0.14790897  1
  O  O214  1  0.67193664  0.62993057  0.47332436  1
  O  O215  1  0.67018927  0.62541337  0.82188455  1
  O  O216  1  0.08456185  0.02437158  0.24275401  1
  O  O217  1  0.08658995  0.01778810  0.57214414  1
  O  O218  1  0.08620756  0.01250234  0.91091289  1
  O  O219  1  0.08748242  0.51884678  0.24267202  1
  O  O220  1  0.08627734  0.52809011  0.57475913  1
  O  O221  1  0.08871837  0.52050724  0.90268910  1
  O  O222  1  0.41808837  0.02374878  0.26129032  1
  O  O223  1  0.41564504  0.02716452  0.58792098  1
  O  O224  1  0.41879116  0.01254661  0.91353163  1
  O  O225  1  0.42879644  0.50766658  0.24118486  1
  O  O226  1  0.41845974  0.51785409  0.58456452  1
  O  O227  1  0.41315437  0.52148627  0.92059491  1
  O  O228  1  0.74922925  0.02268124  0.25304759  1
  O  O229  1  0.74138595  0.01823655  0.58730146  1
  O  O230  1  0.74097341  0.01179533  0.92888113  1
  O  O231  1  0.75560228  0.51932490  0.24714581  1
  O  O232  1  0.76125900  0.51584614  0.57565232  1
  O  O233  1  0.74693312  0.51304160  0.91812184  1
  O  O234  1  0.25070492  0.22931443  0.25364962  1
  O  O235  1  0.25067488  0.22603816  0.58242468  1
  O  O236  1  0.24820457  0.23811626  0.91312304  1
  O  O237  1  0.25261556  0.73847332  0.24557591  1
  O  O238  1  0.25379316  0.72882705  0.59150762  1
  O  O239  1  0.25340003  0.72325524  0.91987091  1
  O  O240  1  0.58550076  0.22508267  0.24615139  1
  O  O241  1  0.58394719  0.22563080  0.58138295  1
  O  O242  1  0.58031723  0.22716582  0.91460763  1
  O  O243  1  0.59541583  0.73343607  0.25601730  1
  O  O244  1  0.57939060  0.73493222  0.57126621  1
  O  O245  1  0.58011926  0.73137914  0.91614567  1
  O  O246  1  0.91701792  0.22294143  0.25898948  1
  O  O247  1  0.91112812  0.24142210  0.58105189  1
  O  O248  1  0.91834531  0.24182474  0.92960347  1
  O  O249  1  0.91938870  0.73153550  0.26185198  1
  O  O250  1  0.92365890  0.73094545  0.59026178  1
  O  O251  1  0.91232809  0.74128896  0.91351668  1
  O  O252  1  0.07349573  0.48314957  0.07155405  1
  O  O253  1  0.07967954  0.49782205  0.41418589  1
  O  O254  1  0.07356177  0.48900741  0.73558860  1
  O  O255  1  0.07389785  0.98455662  0.07473233  1
  O  O256  1  0.07141731  0.99041652  0.40540126  1
  O  O257  1  0.08081742  0.98016614  0.74698887  1
  O  O258  1  0.41661543  0.46965551  0.07949348  1
  O  O259  1  0.41594356  0.48537506  0.40767603  1
  O  O260  1  0.42347760  0.48791603  0.75899583  1
  O  O261  1  0.42999014  0.99260022  0.09294740  1
  O  O262  1  0.42963858  0.98730991  0.42862487  1
  O  O263  1  0.41543704  0.99455055  0.74709109  1
  O  O264  1  0.74466440  0.47574083  0.08365959  1
  O  O265  1  0.74735235  0.47611226  0.41321785  1
  O  O266  1  0.74558627  0.48611285  0.74559775  1
  O  O267  1  0.75234369  0.97598324  0.08982614  1
  O  O268  1  0.75180407  0.97545383  0.42194319  1
  O  O269  1  0.75111385  0.97700744  0.75531725  1
  O  O270  1  0.25185977  0.26193609  0.08140325  1
  O  O271  1  0.24954681  0.25484325  0.41527877  1
  O  O272  1  0.25103708  0.25379928  0.74660170  1
  O  O273  1  0.25140604  0.75026522  0.08370945  1
  O  O274  1  0.24963277  0.75367873  0.42397506  1
  O  O275  1  0.23566068  0.75994034  0.75936645  1
  O  O276  1  0.58301856  0.27494397  0.08085222  1
  O  O277  1  0.59094971  0.26340532  0.40948177  1
  O  O278  1  0.58409629  0.26932995  0.74831136  1
  O  O279  1  0.58639316  0.76673167  0.08764281  1
  O  O280  1  0.58725063  0.77678134  0.41488684  1
  O  O281  1  0.58647280  0.76619311  0.74252297  1
  O  O282  1  0.90448384  0.26133376  0.09615490  1
  O  O283  1  0.90762401  0.26721693  0.42374584  1
  O  O284  1  0.91736233  0.26561668  0.74690862  1
  O  O285  1  0.91216471  0.76988874  0.08958162  1
  O  O286  1  0.90916890  0.77401415  0.42435868  1
  O  O287  1  0.91352846  0.77936508  0.75320608  1
  O  O288  1  0.25830842  0.48858754  0.08009374  1
  O  O289  1  0.24935496  0.49071071  0.41743362  1
  O  O290  1  0.24947057  0.49767601  0.74927411  1
  O  O291  1  0.24358752  0.99767796  0.08239764  1
  O  O292  1  0.25264841  0.99873150  0.41799520  1
  O  O293  1  0.24700514  0.98831525  0.74951184  1
  O  O294  1  0.58185584  0.47676876  0.08376497  1
  O  O295  1  0.58964476  0.48568166  0.40997268  1
  O  O296  1  0.58522652  0.48161951  0.74902640  1
  O  O297  1  0.59142767  0.98394981  0.08158262  1
  O  O298  1  0.58956689  0.97724751  0.41358842  1
  O  O299  1  0.59118625  0.98510132  0.73833300  1
  O  O300  1  0.90762206  0.48847199  0.09233680  1
  O  O301  1  0.90593959  0.48408451  0.42973021  1
  O  O302  1  0.91774537  0.47966842  0.74639813  1
  O  O303  1  0.91133108  0.97809110  0.08943796  1
  O  O304  1  0.91442399  0.97233738  0.41718128  1
  O  O305  1  0.91762488  0.97780239  0.75270176  1
  O  O306  1  0.07222785  0.26470845  0.07242792  1
  O  O307  1  0.07885104  0.25165662  0.41223305  1
  O  O308  1  0.07882413  0.26422894  0.73982059  1
  O  O309  1  0.07712899  0.76636636  0.07029220  1
  O  O310  1  0.06926772  0.75979202  0.40578355  1
  O  O311  1  0.07075525  0.76448465  0.73616496  1
  O  O312  1  0.41913117  0.27567782  0.08120792  1
  O  O313  1  0.41265268  0.26123631  0.40847001  1
  O  O314  1  0.42259513  0.25986754  0.75486267  1
  O  O315  1  0.42232735  0.76053877  0.08517279  1
  O  O316  1  0.42856789  0.76296239  0.42258191  1
  O  O317  1  0.40825950  0.75853696  0.74572542  1
  O  O318  1  0.74602860  0.27499970  0.08562535  1
  O  O319  1  0.74900245  0.27308217  0.41637377  1
  O  O320  1  0.74188789  0.26278544  0.74315799  1
  O  O321  1  0.74823975  0.77421200  0.08511031  1
  O  O322  1  0.74806163  0.77867509  0.41388851  1
  O  O323  1  0.74984112  0.77066936  0.75090659  1
  O  O324  1  0.24971964  0.01949869  0.25179145  1
  O  O325  1  0.25225274  0.02261368  0.58298509  1
  O  O326  1  0.24294535  0.01371945  0.90846821  1
  O  O327  1  0.25135911  0.51255539  0.24632195  1
  O  O328  1  0.25026902  0.52323665  0.58511490  1
  O  O329  1  0.25270771  0.52214017  0.91813150  1
  O  O330  1  0.58575533  0.02608065  0.24725276  1
  O  O331  1  0.57855282  0.02351371  0.57518883  1
  O  O332  1  0.57981907  0.02294481  0.91376416  1
  O  O333  1  0.59148886  0.51655111  0.25223607  1
  O  O334  1  0.58273729  0.51807194  0.57541726  1
  O  O335  1  0.57647112  0.51889424  0.91272626  1
  O  O336  1  0.91702005  0.02366526  0.25548448  1
  O  O337  1  0.90788989  0.00803541  0.57748747  1
  O  O338  1  0.91592025  0.00185252  0.92306133  1
  O  O339  1  0.91779859  0.52102694  0.25933718  1
  O  O340  1  0.92303498  0.52152492  0.58885434  1
  O  O341  1  0.90973773  0.51653741  0.91512328  1
  O  O342  1  0.08504593  0.22804202  0.24399732  1
  O  O343  1  0.08866000  0.23198752  0.57311813  1
  O  O344  1  0.08846899  0.23618884  0.91102227  1
  O  O345  1  0.08817916  0.72897463  0.24006964  1
  O  O346  1  0.08835845  0.72356796  0.57209726  1
  O  O347  1  0.09254947  0.73330017  0.89865185  1
  O  O348  1  0.42217944  0.22734971  0.25023321  1
  O  O349  1  0.41742181  0.22805419  0.58630313  1
  O  O350  1  0.42112755  0.23798604  0.91420153  1
  O  O351  1  0.42859046  0.74415220  0.24598624  1
  O  O352  1  0.41988057  0.72929041  0.58363613  1
  O  O353  1  0.41580930  0.73021524  0.91566104  1
  O  O354  1  0.75226425  0.22385636  0.25134659  1
  O  O355  1  0.74867818  0.22785435  0.58132606  1
  O  O356  1  0.74135506  0.24022993  0.92557237  1
  O  O357  1  0.75697819  0.73112369  0.24692839  1
  O  O358  1  0.76008069  0.73721852  0.57540595  1
  O  O359  1  0.75260212  0.73429501  0.91597230  1
