# generated using pymatgen
data_Ba17Sr5La8Pr42Mn72O216
_symmetry_space_group_name_H-M   'P 1'
_cell_length_a   16.67052572
_cell_length_b   15.70907759
_cell_length_c   16.82167574
_cell_angle_alpha   89.99629599
_cell_angle_beta   89.99929884
_cell_angle_gamma   90.00557612
_symmetry_Int_Tables_number   1
_chemical_formula_structural   Ba17Sr5La8Pr42Mn72O216
_chemical_formula_sum   'Ba17 Sr5 La8 Pr42 Mn72 O216'
_cell_volume   4405.23655849
_cell_formula_units_Z   1
loop_
 _symmetry_equiv_pos_site_id
 _symmetry_equiv_pos_as_xyz
  1  'x, y, z'
loop_
 _atom_site_type_symbol
 _atom_site_label
 _atom_site_symmetry_multiplicity
 _atom_site_fract_x
 _atom_site_fract_y
 _atom_site_fract_z
 _atom_site_occupancy
  Ba  Ba0  1  -0.00161887  0.12538549  0.66643493  1
  Ba  Ba1  1  0.33141659  0.87484470  0.66787911  1
  Ba  Ba2  1  0.50164238  0.87539904  0.16588006  1
  Ba  Ba3  1  0.50042563  0.62516971  0.83469417  1
  Ba  Ba4  1  0.83196292  0.37366033  0.49769325  1
  Ba  Ba5  1  0.00179444  0.87436958  -0.00113259  1
  Ba  Ba6  1  0.33440999  0.37462740  0.00270826  1
  Ba  Ba7  1  0.49987906  0.12548543  0.50000660  1
  Ba  Ba8  1  0.16450290  0.62445405  0.50082091  1
  Ba  Ba9  1  0.33259372  0.12468353  0.33454046  1
  Ba  Ba10  1  0.83432243  0.12565059  0.83332087  1
  Ba  Ba11  1  0.16645588  0.87349760  0.50123724  1
  Ba  Ba12  1  0.66606498  0.37550218  0.66531536  1
  Ba  Ba13  1  0.16597461  0.12707669  0.16764130  1
  Ba  Ba14  1  0.16561908  0.62184923  0.16877391  1
  Ba  Ba15  1  0.33336478  0.62522224  0.66861685  1
  Ba  Ba16  1  0.33279405  0.87591180  0.33282093  1
  Sr  Sr17  1  -0.00312166  0.62485322  0.33024815  1
  Sr  Sr18  1  0.83410619  0.62723449  0.16548651  1
  Sr  Sr19  1  0.83347671  0.12658295  0.50293404  1
  Sr  Sr20  1  0.16691970  0.87530411  0.83268087  1
  Sr  Sr21  1  0.66665043  0.62645786  0.99799634  1
  La  La22  1  0.17046904  0.87500876  0.16599362  1
  La  La23  1  0.16927455  0.12072893  0.83710487  1
  La  La24  1  0.50005846  0.87317904  0.83383135  1
  La  La25  1  0.67116786  0.87160390  -0.00003069  1
  La  La26  1  0.49975477  0.37835849  0.83081500  1
  La  La27  1  0.50025890  0.12647799  0.17281402  1
  La  La28  1  0.00256486  0.87299532  0.33196758  1
  La  La29  1  0.66704301  0.12202914  0.99773762  1
  Pr  Pr30  1  0.50198301  0.37175857  0.16475544  1
  Pr  Pr31  1  0.83544974  0.86947848  0.16289919  1
  Pr  Pr32  1  0.32879347  0.62839258  0.33292313  1
  Pr  Pr33  1  0.00605003  0.12312609  0.99222573  1
  Pr  Pr34  1  0.83307708  0.38079526  0.16616098  1
  Pr  Pr35  1  0.50114092  0.12626410  0.83194090  1
  Pr  Pr36  1  0.16992698  0.62765769  0.83892811  1
  Pr  Pr37  1  -0.00295283  0.37576313  0.66771705  1
  Pr  Pr38  1  0.33661715  0.62635667  0.99631817  1
  Pr  Pr39  1  0.83261852  0.62391618  0.49919764  1
  Pr  Pr40  1  0.83203057  0.37626433  0.82572804  1
  Pr  Pr41  1  0.66370751  0.62429484  0.66323908  1
  Pr  Pr42  1  0.66791561  0.87397939  0.33568412  1
  Pr  Pr43  1  0.16560807  0.37259060  0.83186779  1
  Pr  Pr44  1  0.16276982  0.37504490  0.50240757  1
  Pr  Pr45  1  0.32552948  0.37345918  0.33587013  1
  Pr  Pr46  1  0.33002869  0.37594294  0.67240688  1
  Pr  Pr47  1  0.66721861  0.62183562  0.32760276  1
  Pr  Pr48  1  0.33462893  0.87190170  0.00631816  1
  Pr  Pr49  1  0.49637059  0.37779457  0.49820877  1
  Pr  Pr50  1  -0.00244738  0.62724152  0.66218549  1
  Pr  Pr51  1  0.83587951  0.87931229  0.49631777  1
  Pr  Pr52  1  0.67024224  0.12776807  0.33055353  1
  Pr  Pr53  1  0.49874077  0.62787164  0.50352220  1
  Pr  Pr54  1  0.00111156  0.37900607  0.33462017  1
  Pr  Pr55  1  0.66841139  0.37684087  -0.00190717  1
  Pr  Pr56  1  0.16082596  0.37242494  0.16556529  1
  Pr  Pr57  1  0.49555086  0.87293880  0.49327489  1
  Pr  Pr58  1  0.83595498  0.12073844  0.16642224  1
  Pr  Pr59  1  -0.00186826  0.12596526  0.33437413  1
  Pr  Pr60  1  0.33962782  0.12477577  1.00148449  1
  Pr  Pr61  1  0.83479016  0.87371509  0.82747024  1
  Pr  Pr62  1  -0.00256603  0.37190686  0.00218127  1
  Pr  Pr63  1  0.66590396  0.87902257  0.66692469  1
  Pr  Pr64  1  -0.00061478  0.62546576  0.99682011  1
  Pr  Pr65  1  0.49900562  0.62353826  0.16608490  1
  Pr  Pr66  1  0.00429069  0.87476905  0.67033091  1
  Pr  Pr67  1  0.67013248  0.12717994  0.66026810  1
  Pr  Pr68  1  0.83041470  0.62252509  0.83568205  1
  Pr  Pr69  1  0.66394145  0.37680357  0.33854910  1
  Pr  Pr70  1  0.16826709  0.12217372  0.50313870  1
  Pr  Pr71  1  0.33188600  0.12383832  0.66211641  1
  Mn  Mn72  1  -0.00059825  0.00071635  0.16683241  1
  Mn  Mn73  1  -0.00103286  -0.00024496  0.49908857  1
  Mn  Mn74  1  0.00008590  -0.00140131  0.83320710  1
  Mn  Mn75  1  -0.00261201  0.49905377  0.16605201  1
  Mn  Mn76  1  -0.00219167  0.50102936  0.49991349  1
  Mn  Mn77  1  0.00051603  0.50090959  0.83318672  1
  Mn  Mn78  1  0.33416377  0.00055154  0.16571150  1
  Mn  Mn79  1  0.33331779  0.00112620  0.50081533  1
  Mn  Mn80  1  0.33530623  0.00249708  0.83542011  1
  Mn  Mn81  1  0.33559180  0.49852986  0.16979412  1
  Mn  Mn82  1  0.33300143  0.49730994  0.50068579  1
  Mn  Mn83  1  0.33170246  0.49857255  0.83627930  1
  Mn  Mn84  1  0.66944423  -0.00087761  0.16524470  1
  Mn  Mn85  1  0.66759575  -0.00109685  0.49981421  1
  Mn  Mn86  1  0.66668188  -0.00025221  0.83216293  1
  Mn  Mn87  1  0.66729808  0.49973099  0.16578756  1
  Mn  Mn88  1  0.66526815  0.50199188  0.49702997  1
  Mn  Mn89  1  0.66669402  0.50093760  0.83395371  1
  Mn  Mn90  1  -0.00432990  0.24951766  0.16654651  1
  Mn  Mn91  1  0.00001150  0.25137875  0.49907848  1
  Mn  Mn92  1  0.00095034  0.25215943  0.83504735  1
  Mn  Mn93  1  -0.00038240  0.74911157  0.16655035  1
  Mn  Mn94  1  -0.00319818  0.74994957  0.49921996  1
  Mn  Mn95  1  -0.00060871  0.74789346  0.83082990  1
  Mn  Mn96  1  0.33488440  0.25220439  0.16875053  1
  Mn  Mn97  1  0.33201585  0.25230973  0.50374287  1
  Mn  Mn98  1  0.33424128  0.24888377  0.83363348  1
  Mn  Mn99  1  0.33436905  0.74671558  0.16610706  1
  Mn  Mn100  1  0.33337543  0.74859223  0.49948065  1
  Mn  Mn101  1  0.33281799  0.75152181  0.83677378  1
  Mn  Mn102  1  0.67084916  0.25195154  0.16508593  1
  Mn  Mn103  1  0.66519368  0.25010264  0.49801407  1
  Mn  Mn104  1  0.66644819  0.24867299  0.83361601  1
  Mn  Mn105  1  0.66754028  0.74733620  0.16636665  1
  Mn  Mn106  1  0.66841606  0.74978414  0.49903294  1
  Mn  Mn107  1  0.66813561  0.75173951  0.83143485  1
  Mn  Mn108  1  0.16713101  0.25107024  -0.00013024  1
  Mn  Mn109  1  0.16353717  0.25221406  0.33544363  1
  Mn  Mn110  1  0.16523153  0.25071925  0.66749864  1
  Mn  Mn111  1  0.16747974  0.74897235  0.00144232  1
  Mn  Mn112  1  0.16435175  0.74843918  0.33271205  1
  Mn  Mn113  1  0.16479442  0.74940999  0.67022277  1
  Mn  Mn114  1  0.50380295  0.24880988  0.00046962  1
  Mn  Mn115  1  0.50115382  0.25211680  0.33286498  1
  Mn  Mn116  1  0.49873501  0.25091673  0.66810500  1
  Mn  Mn117  1  0.50262315  0.75036212  0.00029324  1
  Mn  Mn118  1  0.50203910  0.74679238  0.33366466  1
  Mn  Mn119  1  0.50179679  0.75216726  0.66507523  1
  Mn  Mn120  1  0.83298387  0.25215025  0.00151205  1
  Mn  Mn121  1  0.83311570  0.24810063  0.32991061  1
  Mn  Mn122  1  0.83300079  0.25064630  0.66540855  1
  Mn  Mn123  1  0.83408406  0.74721463  -0.00226204  1
  Mn  Mn124  1  0.83261554  0.75102740  0.33191006  1
  Mn  Mn125  1  0.83125153  0.74965653  0.66383870  1
  Mn  Mn126  1  0.16961199  -0.00032070  0.00052559  1
  Mn  Mn127  1  0.16369262  0.00116159  0.33377603  1
  Mn  Mn128  1  0.16544683  0.00087354  0.66974807  1
  Mn  Mn129  1  0.16540113  0.49863041  0.00182278  1
  Mn  Mn130  1  0.16559797  0.49871348  0.33442948  1
  Mn  Mn131  1  0.16378930  0.49920573  0.66963194  1
  Mn  Mn132  1  0.50161243  0.00206484  -0.00127484  1
  Mn  Mn133  1  0.50365229  -0.00009196  0.33323004  1
  Mn  Mn134  1  0.50092544  -0.00060334  0.66750202  1
  Mn  Mn135  1  0.50306473  0.49773588  0.00177993  1
  Mn  Mn136  1  0.49843229  0.50049131  0.33261917  1
  Mn  Mn137  1  0.49975654  0.50038974  0.66501007  1
  Mn  Mn138  1  0.83392793  -0.00073732  0.00060996  1
  Mn  Mn139  1  0.83320195  0.00062358  0.33206458  1
  Mn  Mn140  1  0.83247290  -0.00127520  0.66311620  1
  Mn  Mn141  1  0.83367858  0.50004884  -0.00217270  1
  Mn  Mn142  1  0.83277095  0.50108303  0.32993581  1
  Mn  Mn143  1  0.83304572  0.50259638  0.66682715  1
  O  O144  1  0.15654385  0.12599733  0.01078591  1
  O  O145  1  0.15594391  0.13090336  0.35759608  1
  O  O146  1  0.17082060  0.12858353  0.69135471  1
  O  O147  1  0.16328744  0.62165232  0.01362242  1
  O  O148  1  0.17117684  0.61936803  0.34301835  1
  O  O149  1  0.15574163  0.62114178  0.69292408  1
  O  O150  1  0.50557790  0.12607107  0.02724482  1
  O  O151  1  0.51184373  0.12599866  0.34252002  1
  O  O152  1  0.49934471  0.12483248  0.68971559  1
  O  O153  1  0.50033886  0.62040757  0.02030194  1
  O  O154  1  0.50714761  0.62162639  0.36044857  1
  O  O155  1  0.50746566  0.62692780  0.67742680  1
  O  O156  1  0.82881755  0.13019011  0.02389177  1
  O  O157  1  0.83387944  0.12262679  0.35494231  1
  O  O158  1  0.82558031  0.12392010  0.67612914  1
  O  O159  1  0.83952201  0.62270190  0.01713638  1
  O  O160  1  0.82969442  0.63033734  0.35647894  1
  O  O161  1  0.83567299  0.62741675  0.69254765  1
  O  O162  1  0.16325324  0.37531724  0.31092001  1
  O  O163  1  0.16575890  0.37407931  0.64593332  1
  O  O164  1  0.16053083  0.37669337  0.97572249  1
  O  O165  1  0.15876448  0.87622257  0.31390050  1
  O  O166  1  0.15867380  0.87558446  0.65990690  1
  O  O167  1  0.17983502  0.87512016  0.98389444  1
  O  O168  1  0.50716760  0.37847985  0.30688397  1
  O  O169  1  0.49422427  0.37493400  0.64404941  1
  O  O170  1  0.50823543  0.37013739  0.97527556  1
  O  O171  1  0.50750939  0.87232831  0.32223891  1
  O  O172  1  0.50849946  0.87579892  0.63909914  1
  O  O173  1  0.49475243  0.88168052  0.97822975  1
  O  O174  1  0.83065812  0.37092976  0.30882200  1
  O  O175  1  0.83941526  0.37869935  0.65668571  1
  O  O176  1  0.83486157  0.37674611  0.96962239  1
  O  O177  1  0.82741556  0.87726166  0.30524146  1
  O  O178  1  0.82658430  0.87126476  0.63899345  1
  O  O179  1  0.82825924  0.86936868  0.97339449  1
  O  O180  1  -0.00653138  0.37224995  0.19097889  1
  O  O181  1  0.00444982  0.37680649  0.52305840  1
  O  O182  1  -0.00344691  0.38080022  0.85980569  1
  O  O183  1  -0.00541186  0.87898865  0.18763831  1
  O  O184  1  -0.00833349  0.87177827  0.52445235  1
  O  O185  1  -0.00962661  0.87263722  0.84285471  1
  O  O186  1  0.34731933  0.37746208  0.19169999  1
  O  O187  1  0.33720625  0.37412572  0.52849605  1
  O  O188  1  0.32922118  0.37323161  0.84794906  1
  O  O189  1  0.33023748  0.87399956  0.17188545  1
  O  O190  1  0.34169354  0.87593239  0.50774483  1
  O  O191  1  0.33650786  0.88079931  0.86096911  1
  O  O192  1  0.67111123  0.37501258  0.19545179  1
  O  O193  1  0.66130735  0.37727838  0.50864776  1
  O  O194  1  0.66908604  0.37190792  0.85335678  1
  O  O195  1  0.67493287  0.86995691  0.19120855  1
  O  O196  1  0.67174068  0.87168799  0.52503585  1
  O  O197  1  0.67128831  0.87577715  0.85548049  1
  O  O198  1  -0.00816453  0.12706386  0.13626704  1
  O  O199  1  0.00329364  0.12821585  0.47805632  1
  O  O200  1  0.00833153  0.12534443  0.82614933  1
  O  O201  1  -0.00225485  0.61970176  0.14121068  1
  O  O202  1  -0.00938354  0.62524262  0.48078990  1
  O  O203  1  -0.00015030  0.62130058  0.80486164  1
  O  O204  1  0.33847888  0.12660694  0.14760851  1
  O  O205  1  0.32561742  0.12979765  0.49201071  1
  O  O206  1  0.34024985  0.12795724  0.80554307  1
  O  O207  1  0.33704839  0.61984724  0.14153489  1
  O  O208  1  0.34091030  0.61884982  0.47757003  1
  O  O209  1  0.32867064  0.62140280  0.82664895  1
  O  O210  1  0.67139405  0.13038398  0.13828716  1
  O  O211  1  0.66808807  0.12374441  0.47569111  1
  O  O212  1  0.66062537  0.12322276  0.80523044  1
  O  O213  1  0.65994656  0.62277387  0.14538346  1
  O  O214  1  0.66680766  0.62744018  0.47104952  1
  O  O215  1  0.67293541  0.63052713  0.80789739  1
  O  O216  1  0.07470065  0.01741218  0.25555603  1
  O  O217  1  0.08714030  0.01530603  0.57796677  1
  O  O218  1  0.08966128  0.01069336  0.91636645  1
  O  O219  1  0.07765360  0.50369486  0.25263666  1
  O  O220  1  0.07328285  0.51209033  0.59445069  1
  O  O221  1  0.07921500  0.52376521  0.91343861  1
  O  O222  1  0.42162207  0.01337020  0.24242136  1
  O  O223  1  0.41327917  0.01454429  0.59243867  1
  O  O224  1  0.41968284  0.03016305  0.91731164  1
  O  O225  1  0.41887477  0.52921179  0.25253040  1
  O  O226  1  0.42532136  0.51270191  0.57243054  1
  O  O227  1  0.41490128  0.51040398  0.92442661  1
  O  O228  1  0.75166374  0.02455548  0.25079388  1
  O  O229  1  0.74707975  0.01545945  0.58332062  1
  O  O230  1  0.74392968  0.01424027  0.92156415  1
  O  O231  1  0.74707396  0.51946478  0.24805978  1
  O  O232  1  0.74906290  0.52415950  0.58154449  1
  O  O233  1  0.75381124  0.51709439  0.91478808  1
  O  O234  1  0.25033957  0.24935536  0.25633868  1
  O  O235  1  0.24966056  0.23269044  0.58899406  1
  O  O236  1  0.25586742  0.22599839  0.91628811  1
  O  O237  1  0.25394721  0.73802084  0.24945068  1
  O  O238  1  0.24645292  0.74109151  0.58791752  1
  O  O239  1  0.24998586  0.72926802  0.92118582  1
  O  O240  1  0.59165226  0.23223878  0.24732813  1
  O  O241  1  0.58524162  0.23508048  0.59167161  1
  O  O242  1  0.58545505  0.22458237  0.91775628  1
  O  O243  1  0.58166576  0.72585313  0.24923264  1
  O  O244  1  0.58750793  0.72840742  0.57904857  1
  O  O245  1  0.58545374  0.74671304  0.91516589  1
  O  O246  1  0.91391769  0.22281798  0.24643479  1
  O  O247  1  0.91953116  0.24399239  0.58198018  1
  O  O248  1  0.92628933  0.23679830  0.93021634  1
  O  O249  1  0.91196112  0.73979455  0.24856494  1
  O  O250  1  0.90956769  0.72717715  0.57946016  1
  O  O251  1  0.91728239  0.72530517  0.91135764  1
  O  O252  1  0.07968415  0.47383224  0.08367539  1
  O  O253  1  0.08422017  0.47965370  0.42036262  1
  O  O254  1  0.08204418  0.47154894  0.75552760  1
  O  O255  1  0.08767740  0.98420870  0.09053501  1
  O  O256  1  0.07459610  0.98582799  0.41192720  1
  O  O257  1  0.07880861  0.98602760  0.74748577  1
  O  O258  1  0.42765992  0.48412486  0.09281192  1
  O  O259  1  0.41360401  0.47274434  0.41098273  1
  O  O260  1  0.41206456  0.48073226  0.74949133  1
  O  O261  1  0.41218890  0.99100115  0.07337187  1
  O  O262  1  0.42315335  0.99054365  0.42090655  1
  O  O263  1  0.42457219  0.98457047  0.75928572  1
  O  O264  1  0.75049625  0.47758389  0.08165231  1
  O  O265  1  0.74198954  0.48924848  0.40847768  1
  O  O266  1  0.75644676  0.48999893  0.75456838  1
  O  O267  1  0.75261364  0.97676755  0.08566528  1
  O  O268  1  0.74970356  0.97741827  0.41436485  1
  O  O269  1  0.75025521  0.97785347  0.74859039  1
  O  O270  1  0.24355286  0.26678685  0.08928686  1
  O  O271  1  0.24599342  0.27403083  0.42426657  1
  O  O272  1  0.24599509  0.27060975  0.75137374  1
  O  O273  1  0.25424438  0.76283003  0.08047071  1
  O  O274  1  0.25259553  0.75088920  0.41365282  1
  O  O275  1  0.24520279  0.75620141  0.76041619  1
  O  O276  1  0.58912418  0.27457026  0.08342007  1
  O  O277  1  0.57873591  0.27234867  0.41728330  1
  O  O278  1  0.57350209  0.26555997  0.75923278  1
  O  O279  1  0.59057845  0.76534344  0.07796936  1
  O  O280  1  0.58860077  0.77080157  0.41736749  1
  O  O281  1  0.58818636  0.77303571  0.74581582  1
  O  O282  1  0.91099733  0.27701228  0.08710884  1
  O  O283  1  0.92207662  0.26429077  0.40568767  1
  O  O284  1  0.91702839  0.26987626  0.75612493  1
  O  O285  1  0.91448510  0.76283181  0.08273965  1
  O  O286  1  0.91287042  0.77461448  0.41540769  1
  O  O287  1  0.91473490  0.77041816  0.74243372  1
  O  O288  1  0.24510864  0.47793111  0.09634142  1
  O  O289  1  0.24846072  0.47396987  0.42156780  1
  O  O290  1  0.24475661  0.47956110  0.75355054  1
  O  O291  1  0.25258027  0.98684912  0.08089698  1
  O  O292  1  0.24360960  0.99865305  0.41945037  1
  O  O293  1  0.24740745  0.99451663  0.75943615  1
  O  O294  1  0.58636963  0.47263245  0.08523829  1
  O  O295  1  0.57711574  0.48015862  0.41666226  1
  O  O296  1  0.57940967  0.48665151  0.75378332  1
  O  O297  1  0.59147846  0.98525821  0.07232952  1
  O  O298  1  0.58744659  0.97606185  0.41987592  1
  O  O299  1  0.58412109  0.97563553  0.75025606  1
  O  O300  1  0.91699699  0.47552022  0.07758373  1
  O  O301  1  0.91961859  0.48553759  0.40944904  1
  O  O302  1  0.92118632  0.48066928  0.75135409  1
  O  O303  1  0.91047706  0.98435964  0.09113828  1
  O  O304  1  0.91485291  0.97813498  0.41206017  1
  O  O305  1  0.91235119  0.97953319  0.74602931  1
  O  O306  1  0.07638838  0.27197544  0.08435523  1
  O  O307  1  0.08184261  0.27774588  0.41684124  1
  O  O308  1  0.08070284  0.27536828  0.74725346  1
  O  O309  1  0.08990912  0.76514258  0.08719124  1
  O  O310  1  0.07561976  0.76158044  0.41488135  1
  O  O311  1  0.07881137  0.76494339  0.75033842  1
  O  O312  1  0.42522117  0.26178567  0.08623710  1
  O  O313  1  0.41332730  0.27364095  0.41801177  1
  O  O314  1  0.41490487  0.27399487  0.75111354  1
  O  O315  1  0.41726820  0.75650647  0.08332483  1
  O  O316  1  0.42567583  0.75660716  0.41916756  1
  O  O317  1  0.42141163  0.76684747  0.75827131  1
  O  O318  1  0.75142298  0.28120489  0.08305231  1
  O  O319  1  0.74144574  0.26142929  0.40182517  1
  O  O320  1  0.75135306  0.26324971  0.75482439  1
  O  O321  1  0.75256883  0.76695891  0.08364146  1
  O  O322  1  0.75162735  0.77473066  0.41828950  1
  O  O323  1  0.75119586  0.77459275  0.74780857  1
  O  O324  1  0.24569083  0.00478605  0.24743921  1
  O  O325  1  0.24880834  0.01855157  0.58856628  1
  O  O326  1  0.25740190  0.02787322  0.92044205  1
  O  O327  1  0.26082630  0.50715032  0.26190061  1
  O  O328  1  0.24973467  0.50444118  0.58719043  1
  O  O329  1  0.24884437  0.51785301  0.91963293  1
  O  O330  1  0.58979015  0.01795724  0.24737932  1
  O  O331  1  0.59026083  0.01585495  0.59105612  1
  O  O332  1  0.57960723  0.02047886  0.91142787  1
  O  O333  1  0.58179922  0.52007248  0.24995354  1
  O  O334  1  0.58665248  0.52121734  0.58040678  1
  O  O335  1  0.58834551  0.50765146  0.92194677  1
  O  O336  1  0.91633845  0.02290770  0.25074872  1
  O  O337  1  0.91224619  0.00800863  0.57750513  1
  O  O338  1  0.92165587  0.01550617  0.92352235  1
  O  O339  1  0.91162138  0.51174494  0.24275098  1
  O  O340  1  0.91262781  0.52237029  0.58272405  1
  O  O341  1  0.91905273  0.52435281  0.91219671  1
  O  O342  1  0.07310498  0.23816785  0.25466437  1
  O  O343  1  0.09190992  0.23664753  0.57636004  1
  O  O344  1  0.08907680  0.23954805  0.91123280  1
  O  O345  1  0.07872506  0.74271054  0.25238037  1
  O  O346  1  0.07207354  0.73730541  0.59120601  1
  O  O347  1  0.08304707  0.72956554  0.91694154  1
  O  O348  1  0.42604244  0.23784765  0.24686018  1
  O  O349  1  0.41115388  0.23521493  0.59213807  1
  O  O350  1  0.42074993  0.22728899  0.91708744  1
  O  O351  1  0.41687643  0.72445183  0.25132573  1
  O  O352  1  0.42307105  0.73874119  0.57858186  1
  O  O353  1  0.41080362  0.73940556  0.92522638  1
  O  O354  1  0.75401968  0.22440799  0.24365301  1
  O  O355  1  0.74671962  0.23560170  0.58045756  1
  O  O356  1  0.74570281  0.23672416  0.92414243  1
  O  O357  1  0.74468402  0.72931268  0.25439872  1
  O  O358  1  0.74834549  0.72088895  0.58314633  1
  O  O359  1  0.75353925  0.73066577  0.91173172  1
