# generated using pymatgen
data_Ba17Sr5La8Pr42Mn72O216
_symmetry_space_group_name_H-M   'P 1'
_cell_length_a   16.68497051
_cell_length_b   15.71024354
_cell_length_c   16.82087766
_cell_angle_alpha   89.99677849
_cell_angle_beta   89.99908323
_cell_angle_gamma   89.99195653
_symmetry_Int_Tables_number   1
_chemical_formula_structural   Ba17Sr5La8Pr42Mn72O216
_chemical_formula_sum   'Ba17 Sr5 La8 Pr42 Mn72 O216'
_cell_volume   4409.17166657
_cell_formula_units_Z   1
loop_
 _symmetry_equiv_pos_site_id
 _symmetry_equiv_pos_as_xyz
  1  'x, y, z'
loop_
 _atom_site_type_symbol
 _atom_site_label
 _atom_site_symmetry_multiplicity
 _atom_site_fract_x
 _atom_site_fract_y
 _atom_site_fract_z
 _atom_site_occupancy
  Ba  Ba0  1  0.83407506  0.87416589  0.16751955  1
  Ba  Ba1  1  0.16332948  0.62563371  0.50277717  1
  Ba  Ba2  1  0.00395573  0.37437827  0.67109238  1
  Ba  Ba3  1  0.66468960  0.12455600  0.99554078  1
  Ba  Ba4  1  0.83007710  0.62316846  0.16892799  1
  Ba  Ba5  1  0.82930988  0.12611738  0.50089285  1
  Ba  Ba6  1  0.83010743  0.62354944  0.83589330  1
  Ba  Ba7  1  0.00119348  0.87495532  0.33661671  1
  Ba  Ba8  1  0.00419102  0.37532829  0.00361985  1
  Ba  Ba9  1  0.83046356  0.12672608  0.16711536  1
  Ba  Ba10  1  0.49570116  0.62507908  0.16497641  1
  Ba  Ba11  1  0.16652186  0.62582761  0.83494494  1
  Ba  Ba12  1  0.00311191  0.87512790  0.00476205  1
  Ba  Ba13  1  0.66682807  0.87221928  0.33279684  1
  Ba  Ba14  1  0.66558927  0.12596030  0.66506143  1
  Ba  Ba15  1  0.16569643  0.12394879  0.50287494  1
  Ba  Ba16  1  0.33028922  0.12473959  0.33049474  1
  Sr  Sr17  1  0.83011489  0.12685875  0.83654892  1
  Sr  Sr18  1  0.67029782  0.87514216  0.00167145  1
  Sr  Sr19  1  0.65955453  0.62538108  0.32948048  1
  Sr  Sr20  1  0.34012165  0.87342162  0.66561215  1
  Sr  Sr21  1  0.83952174  0.37590506  0.16611173  1
  La  La22  1  0.84150190  0.37263753  0.50253858  1
  La  La23  1  0.50485538  0.37492847  0.16084733  1
  La  La24  1  0.16071664  0.12473766  0.83466112  1
  La  La25  1  0.32877388  0.62432757  0.99855787  1
  La  La26  1  0.83916947  0.87936140  0.83765149  1
  La  La27  1  0.00182836  0.37385864  0.33631614  1
  La  La28  1  0.49811547  0.12303416  0.16312872  1
  La  La29  1  0.32671334  0.62489919  0.32766514  1
  Pr  Pr30  1  -0.01225880  0.12510307  1.00242289  1
  Pr  Pr31  1  0.15910397  0.62484205  0.17138141  1
  Pr  Pr32  1  0.17257907  0.37533917  0.49672600  1
  Pr  Pr33  1  0.50627986  0.37494623  0.82451379  1
  Pr  Pr34  1  -0.01032012  0.62563370  1.00123784  1
  Pr  Pr35  1  0.67745975  0.37990522  0.33108427  1
  Pr  Pr36  1  0.17689499  0.87400749  0.83263786  1
  Pr  Pr37  1  0.32834207  0.62635699  0.66219130  1
  Pr  Pr38  1  0.67529736  0.87504587  0.66567474  1
  Pr  Pr39  1  0.17324916  0.37615943  0.83130803  1
  Pr  Pr40  1  0.00723243  0.87503862  0.67306254  1
  Pr  Pr41  1  0.17686505  0.87428450  0.49922013  1
  Pr  Pr42  1  0.33509530  0.37594564  0.66444985  1
  Pr  Pr43  1  0.50952083  0.87453516  0.82791101  1
  Pr  Pr44  1  0.82679400  0.62771027  0.50351680  1
  Pr  Pr45  1  0.33991413  0.37506631  0.33402878  1
  Pr  Pr46  1  0.83893973  0.87892243  0.49531831  1
  Pr  Pr47  1  0.32885890  0.12610817  0.99602455  1
  Pr  Pr48  1  0.49367780  0.62734627  0.49573196  1
  Pr  Pr49  1  0.33643675  0.87254495  -0.00180536  1
  Pr  Pr50  1  0.49413162  0.12230906  0.83279159  1
  Pr  Pr51  1  -0.01256961  0.62327332  0.66740550  1
  Pr  Pr52  1  0.65845810  0.62337640  0.66320303  1
  Pr  Pr53  1  0.84233885  0.37021745  0.83299330  1
  Pr  Pr54  1  -0.00914340  0.62509745  0.33540664  1
  Pr  Pr55  1  0.33669791  0.37697820  -0.00196478  1
  Pr  Pr56  1  0.50354345  0.87645028  0.49533834  1
  Pr  Pr57  1  0.49839434  0.12212909  0.49803804  1
  Pr  Pr58  1  0.50664314  0.37324771  0.49266100  1
  Pr  Pr59  1  0.66168389  0.62947694  0.99795576  1
  Pr  Pr60  1  0.15657648  0.12549043  0.17273167  1
  Pr  Pr61  1  0.67764547  0.37524226  0.66732618  1
  Pr  Pr62  1  -0.01136074  0.12597658  0.66669809  1
  Pr  Pr63  1  0.67712187  0.37634012  0.00049744  1
  Pr  Pr64  1  0.66213929  0.12563755  0.32623770  1
  Pr  Pr65  1  0.33230325  0.12206158  0.65824217  1
  Pr  Pr66  1  0.50485125  0.87435895  0.16190120  1
  Pr  Pr67  1  0.33789046  0.87428985  0.33412912  1
  Pr  Pr68  1  -0.00870924  0.12414683  0.33474145  1
  Pr  Pr69  1  0.17312385  0.87789281  0.16560445  1
  Pr  Pr70  1  0.17469325  0.37312163  0.16563198  1
  Pr  Pr71  1  0.49429853  0.62735801  0.83430254  1
  Mn  Mn72  1  0.00108342  0.00031492  0.16934335  1
  Mn  Mn73  1  0.00100735  -0.00048378  0.50615639  1
  Mn  Mn74  1  0.00218393  0.00004794  0.83606948  1
  Mn  Mn75  1  0.00199485  0.50000283  0.17070387  1
  Mn  Mn76  1  -0.00002110  0.49991221  0.50267406  1
  Mn  Mn77  1  0.00272811  0.50096309  0.83667768  1
  Mn  Mn78  1  0.33335759  0.00005818  0.16226220  1
  Mn  Mn79  1  0.33471234  -0.00162132  0.49945757  1
  Mn  Mn80  1  0.33402913  0.00077050  0.83005857  1
  Mn  Mn81  1  0.33171667  0.49834381  0.16552187  1
  Mn  Mn82  1  0.33540437  0.49937877  0.49822941  1
  Mn  Mn83  1  0.33550283  0.49882980  0.83120044  1
  Mn  Mn84  1  0.66490934  0.00047657  0.16378210  1
  Mn  Mn85  1  0.66506205  -0.00045385  0.49903934  1
  Mn  Mn86  1  0.66719045  -0.00194441  0.83154450  1
  Mn  Mn87  1  0.66562693  0.49913952  0.16564616  1
  Mn  Mn88  1  0.66591301  0.50004580  0.49969765  1
  Mn  Mn89  1  0.66492642  0.49933316  0.83247886  1
  Mn  Mn90  1  0.00092609  0.25112068  0.16998076  1
  Mn  Mn91  1  0.00289952  0.25005904  0.50321036  1
  Mn  Mn92  1  0.00259401  0.24845915  0.83662416  1
  Mn  Mn93  1  0.00190569  0.74906235  0.16981982  1
  Mn  Mn94  1  -0.00126766  0.74927646  0.50555808  1
  Mn  Mn95  1  0.00222599  0.75062893  0.83604914  1
  Mn  Mn96  1  0.33439427  0.24997172  0.16344422  1
  Mn  Mn97  1  0.33566482  0.25049381  0.49955743  1
  Mn  Mn98  1  0.33396132  0.24985558  0.82971574  1
  Mn  Mn99  1  0.33063855  0.75153814  0.16559666  1
  Mn  Mn100  1  0.33497115  0.75050330  0.49854801  1
  Mn  Mn101  1  0.33550540  0.75092803  0.83161315  1
  Mn  Mn102  1  0.66522379  0.25204703  0.16466010  1
  Mn  Mn103  1  0.66510460  0.25353153  0.49677251  1
  Mn  Mn104  1  0.66502926  0.25157472  0.83188396  1
  Mn  Mn105  1  0.66489004  0.74918272  0.16499723  1
  Mn  Mn106  1  0.66481613  0.74729825  0.50179894  1
  Mn  Mn107  1  0.66707603  0.75074437  0.83089980  1
  Mn  Mn108  1  0.16835536  0.24765928  0.00152071  1
  Mn  Mn109  1  0.16546364  0.25017766  0.33318450  1
  Mn  Mn110  1  0.16941327  0.24948185  0.66893056  1
  Mn  Mn111  1  0.16774843  0.75005178  0.00360652  1
  Mn  Mn112  1  0.16604534  0.75043386  0.33449767  1
  Mn  Mn113  1  0.16684641  0.75062578  0.66775081  1
  Mn  Mn114  1  0.49801047  0.25256072  -0.00580914  1
  Mn  Mn115  1  0.50073556  0.25183446  0.32863129  1
  Mn  Mn116  1  0.49965644  0.25144942  0.66242363  1
  Mn  Mn117  1  0.49869883  0.75038011  -0.00358613  1
  Mn  Mn118  1  0.49806599  0.74949540  0.33096417  1
  Mn  Mn119  1  0.50152115  0.74860095  0.66448442  1
  Mn  Mn120  1  0.83328845  0.25170705  -0.00025616  1
  Mn  Mn121  1  0.83219323  0.25235679  0.33466021  1
  Mn  Mn122  1  0.83311407  0.24995732  0.66870642  1
  Mn  Mn123  1  0.83134150  0.74944847  0.00060639  1
  Mn  Mn124  1  0.83183050  0.74917608  0.33729893  1
  Mn  Mn125  1  0.83282062  0.75088077  0.66834450  1
  Mn  Mn126  1  0.16797381  0.00282252  0.00135795  1
  Mn  Mn127  1  0.16589084  -0.00017817  0.33452159  1
  Mn  Mn128  1  0.16875331  -0.00101674  0.66988786  1
  Mn  Mn129  1  0.16846090  0.49966169  0.00299317  1
  Mn  Mn130  1  0.16586186  0.49912707  0.33342097  1
  Mn  Mn131  1  0.16731393  0.50031107  0.66717042  1
  Mn  Mn132  1  0.49676385  -0.00044547  -0.00346438  1
  Mn  Mn133  1  0.49924625  0.00057208  0.33004488  1
  Mn  Mn134  1  0.50171159  -0.00145657  0.66460434  1
  Mn  Mn135  1  0.50027263  0.49909790  -0.00582291  1
  Mn  Mn136  1  0.49940176  0.49886066  0.33043786  1
  Mn  Mn137  1  0.49944515  0.50011029  0.66196527  1
  Mn  Mn138  1  0.83155088  0.00031482  -0.00070315  1
  Mn  Mn139  1  0.83113198  0.00013932  0.33522685  1
  Mn  Mn140  1  0.83429422  -0.00291518  0.66706644  1
  Mn  Mn141  1  0.83257014  0.50004920  0.00180363  1
  Mn  Mn142  1  0.83325465  0.49872370  0.33688328  1
  Mn  Mn143  1  0.83146365  0.50047233  0.67001644  1
  O  O144  1  0.18103793  0.12553031  0.02919479  1
  O  O145  1  0.16429276  0.12432811  0.34682446  1
  O  O146  1  0.18341020  0.12501538  0.69069908  1
  O  O147  1  0.18163635  0.62385741  0.02716186  1
  O  O148  1  0.17774730  0.62371454  0.34770361  1
  O  O149  1  0.17927887  0.62597393  0.67822933  1
  O  O150  1  0.49234915  0.12882471  0.01979375  1
  O  O151  1  0.50796942  0.12929339  0.35374910  1
  O  O152  1  0.49605614  0.12753304  0.68980582  1
  O  O153  1  0.50619472  0.62390801  0.00939152  1
  O  O154  1  0.49406859  0.62151747  0.35136841  1
  O  O155  1  0.50485912  0.62263207  0.69237226  1
  O  O156  1  0.83545755  0.12819880  0.00518722  1
  O  O157  1  0.83065793  0.12818915  0.34436740  1
  O  O158  1  0.83651323  0.12355545  0.68420870  1
  O  O159  1  0.83323236  0.62290159  0.00920279  1
  O  O160  1  0.83859960  0.62153115  0.36002471  1
  O  O161  1  0.82833013  0.62596347  0.68073418  1
  O  O162  1  0.15897273  0.37527480  0.30876990  1
  O  O163  1  0.17011397  0.37529852  0.64284691  1
  O  O164  1  0.17073910  0.37100114  0.97453452  1
  O  O165  1  0.17115586  0.87636177  0.30980976  1
  O  O166  1  0.15646886  0.87379366  0.64354064  1
  O  O167  1  0.16950508  0.88011937  0.97587811  1
  O  O168  1  0.49052376  0.37461285  0.30690014  1
  O  O169  1  0.48961628  0.37835057  0.63445894  1
  O  O170  1  0.48889980  0.37617373  0.96629990  1
  O  O171  1  0.49139278  0.87631046  0.30924196  1
  O  O172  1  0.50348636  0.86986487  0.63817164  1
  O  O173  1  0.48927978  0.87301236  0.97057557  1
  O  O174  1  0.83228749  0.37620622  0.31621040  1
  O  O175  1  0.83035462  0.37761842  0.64872143  1
  O  O176  1  0.83052376  0.37751457  0.97871618  1
  O  O177  1  0.83328806  0.87415489  0.32985006  1
  O  O178  1  0.83518527  0.87092928  0.64075828  1
  O  O179  1  0.83196373  0.87238926  0.98425141  1
  O  O180  1  0.00785849  0.37558875  0.19035755  1
  O  O181  1  0.00273104  0.37507332  0.51471195  1
  O  O182  1  0.00153954  0.37365215  0.84582019  1
  O  O183  1  0.00967228  0.87471629  0.17824457  1
  O  O184  1  -0.01093136  0.87143014  0.52909590  1
  O  O185  1  0.00074040  0.87625949  0.84721422  1
  O  O186  1  0.33063850  0.37361310  0.19031194  1
  O  O187  1  0.33789724  0.37612834  0.52039151  1
  O  O188  1  0.33351457  0.37365108  0.85595881  1
  O  O189  1  0.32967700  0.87649587  0.19054448  1
  O  O190  1  0.33862172  0.87470670  0.51572750  1
  O  O191  1  0.33293895  0.87935141  0.85577623  1
  O  O192  1  0.65864823  0.37476956  0.18595852  1
  O  O193  1  0.65414727  0.37839760  0.52464942  1
  O  O194  1  0.65353424  0.37789434  0.85571648  1
  O  O195  1  0.65638435  0.87635461  0.17314759  1
  O  O196  1  0.65306434  0.86763833  0.52260646  1
  O  O197  1  0.65637994  0.87359240  0.85022996  1
  O  O198  1  0.00849671  0.12676599  0.14886204  1
  O  O199  1  0.00172234  0.12836314  0.48051817  1
  O  O200  1  0.00606576  0.12314233  0.80979198  1
  O  O201  1  0.01032910  0.62351017  0.14736032  1
  O  O202  1  -0.00441678  0.62288084  0.47925620  1
  O  O203  1  0.00176000  0.62719446  0.81241103  1
  O  O204  1  0.34081074  0.12507712  0.13820588  1
  O  O205  1  0.33942765  0.12337826  0.48756123  1
  O  O206  1  0.33823561  0.12543338  0.80152390  1
  O  O207  1  0.32527776  0.62485074  0.14298238  1
  O  O208  1  0.33916135  0.62412986  0.47248762  1
  O  O209  1  0.34071314  0.62171629  0.80471643  1
  O  O210  1  0.65851808  0.12868251  0.15457889  1
  O  O211  1  0.65998488  0.13213501  0.47249621  1
  O  O212  1  0.66418553  0.12422262  0.82086250  1
  O  O213  1  0.66215578  0.62070789  0.14319858  1
  O  O214  1  0.67789602  0.62160438  0.48013646  1
  O  O215  1  0.66171210  0.62372022  0.80600154  1
  O  O216  1  0.07666993  0.02107280  0.25886560  1
  O  O217  1  0.07428538  0.01692262  0.60452804  1
  O  O218  1  0.07985360  0.02730135  0.92898431  1
  O  O219  1  0.07683394  0.52339868  0.26178901  1
  O  O220  1  0.07236313  0.51853523  0.59528566  1
  O  O221  1  0.07980387  0.51975420  0.93311927  1
  O  O222  1  0.41826364  0.01449020  0.24301803  1
  O  O223  1  0.41590417  0.01714066  0.58555780  1
  O  O224  1  0.40788208  0.02456200  0.91869892  1
  O  O225  1  0.40201599  0.51271162  0.25845162  1
  O  O226  1  0.41379380  0.52764953  0.58696907  1
  O  O227  1  0.41305906  0.52311359  0.91663644  1
  O  O228  1  0.74090176  0.01306693  0.25615908  1
  O  O229  1  0.74511618  -0.00033883  0.58677689  1
  O  O230  1  0.74984217  0.00119688  0.91047700  1
  O  O231  1  0.74305963  0.50821934  0.26453674  1
  O  O232  1  0.73880041  0.51276633  0.59631243  1
  O  O233  1  0.73386574  0.51215006  0.92738434  1
  O  O234  1  0.23764979  0.23833827  0.23966878  1
  O  O235  1  0.25234099  0.24115282  0.58684459  1
  O  O236  1  0.24535091  0.22796120  0.90907575  1
  O  O237  1  0.24144522  0.73449175  0.23976353  1
  O  O238  1  0.25080504  0.74287646  0.58133878  1
  O  O239  1  0.25159526  0.74119303  0.92030691  1
  O  O240  1  0.57417686  0.23417105  0.24027728  1
  O  O241  1  0.57055263  0.23608715  0.56633882  1
  O  O242  1  0.56810108  0.23704615  0.89972892  1
  O  O243  1  0.57501355  0.74267762  0.24662210  1
  O  O244  1  0.57715551  0.71928670  0.57827255  1
  O  O245  1  0.57565843  0.73303656  0.90369719  1
  O  O246  1  0.91848042  0.24008069  0.25510123  1
  O  O247  1  0.91545090  0.23967545  0.58730681  1
  O  O248  1  0.91726857  0.23745074  0.91583886  1
  O  O249  1  0.91905759  0.73442917  0.25534780  1
  O  O250  1  0.90763902  0.72451775  0.58108128  1
  O  O251  1  0.91479431  0.74039599  0.91595028  1
  O  O252  1  0.09818201  0.48671975  0.09890036  1
  O  O253  1  0.09164390  0.47998262  0.42205004  1
  O  O254  1  0.09528482  0.48562314  0.76129983  1
  O  O255  1  0.09850894  0.99152350  0.09649332  1
  O  O256  1  0.08964341  0.97902261  0.43715203  1
  O  O257  1  0.09569668  0.98317827  0.76458292  1
  O  O258  1  0.42036073  0.48034734  0.08158291  1
  O  O259  1  0.42322864  0.47808741  0.41987408  1
  O  O260  1  0.42235604  0.47762526  0.74956821  1
  O  O261  1  0.41827614  0.97511045  0.08259458  1
  O  O262  1  0.41893799  0.98184757  0.41618683  1
  O  O263  1  0.42784829  0.98156684  0.75515188  1
  O  O264  1  0.75215771  0.47990545  0.08661017  1
  O  O265  1  0.75717602  0.47529788  0.42969173  1
  O  O266  1  0.75387292  0.47257524  0.76054361  1
  O  O267  1  0.74641027  0.99264979  0.08292872  1
  O  O268  1  0.75205332  0.98510745  0.42487656  1
  O  O269  1  0.75630396  0.97481361  0.75051357  1
  O  O270  1  0.25947895  0.27213561  0.07350750  1
  O  O271  1  0.25404778  0.27443999  0.41166410  1
  O  O272  1  0.25656992  0.27685936  0.74659436  1
  O  O273  1  0.25611700  0.77706119  0.07909841  1
  O  O274  1  0.25601696  0.77119544  0.40909513  1
  O  O275  1  0.25605489  0.76951866  0.74900728  1
  O  O276  1  0.58398775  0.27458136  0.06982550  1
  O  O277  1  0.59014519  0.27731638  0.40341445  1
  O  O278  1  0.58716075  0.27565134  0.73675544  1
  O  O279  1  0.58001642  0.76595736  0.07394860  1
  O  O280  1  0.58006290  0.75588654  0.42194439  1
  O  O281  1  0.59329367  0.76792518  0.73785077  1
  O  O282  1  0.92227125  0.25685852  0.08470071  1
  O  O283  1  0.91974473  0.26721216  0.41443466  1
  O  O284  1  0.91474898  0.25919421  0.75391209  1
  O  O285  1  0.92354161  0.75000496  0.08273569  1
  O  O286  1  0.91690396  0.75951837  0.42372584  1
  O  O287  1  0.92356245  0.76592464  0.74106229  1
  O  O288  1  0.25675113  0.47344351  0.07841399  1
  O  O289  1  0.25525176  0.47504375  0.40927211  1
  O  O290  1  0.25719441  0.47730156  0.74702783  1
  O  O291  1  0.25934572  0.97725235  0.07226146  1
  O  O292  1  0.25419546  0.97776850  0.41297365  1
  O  O293  1  0.25541985  0.97669029  0.74678051  1
  O  O294  1  0.58544355  0.47694000  0.06849853  1
  O  O295  1  0.58735091  0.47975419  0.40870137  1
  O  O296  1  0.58913385  0.47779483  0.73625776  1
  O  O297  1  0.57623682  0.98706343  0.08151266  1
  O  O298  1  0.57850019  0.98742796  0.41660466  1
  O  O299  1  0.58950272  0.97771869  0.74061425  1
  O  O300  1  0.92262724  0.49353538  0.08627226  1
  O  O301  1  0.92182730  0.47913579  0.41561853  1
  O  O302  1  0.91650482  0.49116715  0.74957130  1
  O  O303  1  0.92332193  0.99957408  0.08270956  1
  O  O304  1  0.91753925  0.99231931  0.42145312  1
  O  O305  1  0.92335434  0.98107374  0.74626572  1
  O  O306  1  0.09789485  0.26173159  0.09783209  1
  O  O307  1  0.09159826  0.27178570  0.42244766  1
  O  O308  1  0.09855697  0.26043602  0.76596671  1
  O  O309  1  0.09889299  0.75976631  0.09945823  1
  O  O310  1  0.09143844  0.76773967  0.43319169  1
  O  O311  1  0.09230152  0.77175545  0.75964394  1
  O  O312  1  0.42180223  0.27503069  0.08000507  1
  O  O313  1  0.42401871  0.26939416  0.41677875  1
  O  O314  1  0.42222667  0.27367182  0.75044734  1
  O  O315  1  0.41728780  0.77100132  0.08616961  1
  O  O316  1  0.42178504  0.77014704  0.41946778  1
  O  O317  1  0.42972150  0.76619549  0.75473788  1
  O  O318  1  0.75114987  0.26966939  0.08491385  1
  O  O319  1  0.75329045  0.27751984  0.42336344  1
  O  O320  1  0.75247715  0.27292044  0.75443788  1
  O  O321  1  0.74746216  0.75477824  0.08131652  1
  O  O322  1  0.75770549  0.76346256  0.43572903  1
  O  O323  1  0.75773961  0.77736983  0.75675965  1
  O  O324  1  0.24374456  0.01521127  0.23208302  1
  O  O325  1  0.25104264  0.00607926  0.58361037  1
  O  O326  1  0.24466041  0.02264438  0.90969512  1
  O  O327  1  0.23938155  0.51301948  0.24269560  1
  O  O328  1  0.25367427  0.50910329  0.58287372  1
  O  O329  1  0.25331033  0.51009340  0.91921815  1
  O  O330  1  0.57887572  0.01893975  0.24673051  1
  O  O331  1  0.57404903  0.01652097  0.57369256  1
  O  O332  1  0.56870493  0.01194402  0.90463594  1
  O  O333  1  0.57556827  0.50621681  0.24485535  1
  O  O334  1  0.57480247  0.52501824  0.57225185  1
  O  O335  1  0.57443257  0.52031050  0.90307070  1
  O  O336  1  0.91767933  0.01372381  0.25465198  1
  O  O337  1  0.91728215  0.01583673  0.58712056  1
  O  O338  1  0.91670147  0.01424779  0.91233080  1
  O  O339  1  0.91968592  0.51218836  0.25687695  1
  O  O340  1  0.90612055  0.51809678  0.57995296  1
  O  O341  1  0.91711426  0.51083836  0.91904622  1
  O  O342  1  0.07470022  0.22995837  0.26154585  1
  O  O343  1  0.07946397  0.22964164  0.59961324  1
  O  O344  1  0.08043411  0.22292760  0.92970588  1
  O  O345  1  0.07818397  0.72650422  0.26217203  1
  O  O346  1  0.06752142  0.73362189  0.60031673  1
  O  O347  1  0.07858055  0.73033198  0.93377419  1
  O  O348  1  0.41603763  0.23562492  0.24525743  1
  O  O349  1  0.41393401  0.22825695  0.58771891  1
  O  O350  1  0.40867802  0.22615925  0.91681268  1
  O  O351  1  0.40054302  0.73691307  0.25722621  1
  O  O352  1  0.41460963  0.72550163  0.58658698  1
  O  O353  1  0.41151740  0.72717365  0.91926052  1
  O  O354  1  0.73776203  0.24291607  0.26327525  1
  O  O355  1  0.74466906  0.25020209  0.58645385  1
  O  O356  1  0.74608120  0.25118494  0.91560583  1
  O  O357  1  0.74604367  0.73731156  0.25982667  1
  O  O358  1  0.73769354  0.73380166  0.59553421  1
  O  O359  1  0.73727993  0.73625818  0.92163457  1
