# generated using pymatgen
data_Ba17Sr5La8Pr42Mn72O216
_symmetry_space_group_name_H-M   'P 1'
_cell_length_a   16.67879780
_cell_length_b   15.70438031
_cell_length_c   16.82565308
_cell_angle_alpha   89.98644013
_cell_angle_beta   89.99300092
_cell_angle_gamma   89.96162880
_symmetry_Int_Tables_number   1
_chemical_formula_structural   Ba17Sr5La8Pr42Mn72O216
_chemical_formula_sum   'Ba17 Sr5 La8 Pr42 Mn72 O216'
_cell_volume   4407.14526068
_cell_formula_units_Z   1
loop_
 _symmetry_equiv_pos_site_id
 _symmetry_equiv_pos_as_xyz
  1  'x, y, z'
loop_
 _atom_site_type_symbol
 _atom_site_label
 _atom_site_symmetry_multiplicity
 _atom_site_fract_x
 _atom_site_fract_y
 _atom_site_fract_z
 _atom_site_occupancy
  Ba  Ba0  1  0.00110425  0.37501496  0.66680977  1
  Ba  Ba1  1  0.16945598  0.12362749  0.50046025  1
  Ba  Ba2  1  0.33259705  0.12547336  1.00007884  1
  Ba  Ba3  1  0.83174512  0.12525072  0.83486465  1
  Ba  Ba4  1  0.17112833  0.87515119  0.50045524  1
  Ba  Ba5  1  0.49827221  0.37518493  0.83433073  1
  Ba  Ba6  1  0.33449755  0.87115595  0.00117372  1
  Ba  Ba7  1  -0.00358152  0.62660406  0.33205806  1
  Ba  Ba8  1  0.16646867  0.12529110  0.16764662  1
  Ba  Ba9  1  0.16290161  0.62572278  0.83459088  1
  Ba  Ba10  1  0.50187562  0.12527786  0.16866174  1
  Ba  Ba11  1  0.16848783  0.37438735  0.49994339  1
  Ba  Ba12  1  0.83321573  0.37287851  0.49866487  1
  Ba  Ba13  1  0.33500031  0.12577580  0.33056657  1
  Ba  Ba14  1  0.50028073  0.62353023  0.50020007  1
  Ba  Ba15  1  0.83225408  0.37321102  0.83206329  1
  Ba  Ba16  1  -0.00383611  0.62671358  0.66586225  1
  Sr  Sr17  1  0.66225904  0.62229945  0.33472218  1
  Sr  Sr18  1  0.32655459  0.62359748  0.99726954  1
  Sr  Sr19  1  0.33315297  0.37932524  -0.00022053  1
  Sr  Sr20  1  0.66800553  0.37365551  -0.00026938  1
  Sr  Sr21  1  0.50106166  0.37627537  0.50148913  1
  La  La22  1  0.50316033  0.87497383  0.16659332  1
  La  La23  1  0.32852367  0.62297376  0.33366646  1
  La  La24  1  0.66062574  0.62155736  0.99948585  1
  La  La25  1  0.33737027  0.12695639  0.66340106  1
  La  La26  1  0.00058773  0.37400081  -0.00156831  1
  La  La27  1  0.16951755  0.37579249  0.16683146  1
  La  La28  1  0.00693613  0.87708896  0.33439711  1
  La  La29  1  0.67103435  0.87735534  0.00370037  1
  Pr  Pr30  1  0.50041882  0.37440445  0.16070760  1
  Pr  Pr31  1  0.49052470  0.62423949  0.17104188  1
  Pr  Pr32  1  0.16049922  0.62508094  0.50638643  1
  Pr  Pr33  1  0.83371745  0.12431183  0.16622512  1
  Pr  Pr34  1  0.16201242  0.62672510  0.16438670  1
  Pr  Pr35  1  0.50289728  0.12552761  0.50004560  1
  Pr  Pr36  1  0.50086533  0.12582515  0.83990719  1
  Pr  Pr37  1  0.00677172  0.87823965  0.00013819  1
  Pr  Pr38  1  0.17263756  0.87509929  0.16716898  1
  Pr  Pr39  1  0.50257014  0.87323880  0.49792794  1
  Pr  Pr40  1  0.83995297  0.87561871  0.82878054  1
  Pr  Pr41  1  0.17838843  0.87267216  0.83154867  1
  Pr  Pr42  1  0.00348879  0.12661465  0.33323559  1
  Pr  Pr43  1  0.32760195  0.62083879  0.66306465  1
  Pr  Pr44  1  0.00380455  0.37264929  0.34022367  1
  Pr  Pr45  1  0.49353138  0.62352384  0.83497695  1
  Pr  Pr46  1  0.83846421  0.87474950  0.49669808  1
  Pr  Pr47  1  0.66758945  0.12943691  0.66757244  1
  Pr  Pr48  1  0.16241873  0.12574816  0.83935863  1
  Pr  Pr49  1  0.33468756  0.37611382  0.66857065  1
  Pr  Pr50  1  0.66550591  0.37486986  0.33603228  1
  Pr  Pr51  1  0.83542819  0.38023962  0.16269425  1
  Pr  Pr52  1  0.82666829  0.62459982  0.50197742  1
  Pr  Pr53  1  0.01305303  0.87827455  0.66987753  1
  Pr  Pr54  1  0.34006522  0.37083553  0.33311858  1
  Pr  Pr55  1  -0.00721182  0.62576634  0.99401131  1
  Pr  Pr56  1  0.66320728  0.12847689  0.99717000  1
  Pr  Pr57  1  0.33867055  0.87222126  0.66849133  1
  Pr  Pr58  1  0.83329044  0.12497574  0.50317557  1
  Pr  Pr59  1  -0.00379541  0.12465111  0.99793598  1
  Pr  Pr60  1  0.49915646  0.87634190  0.83359815  1
  Pr  Pr61  1  -0.00653677  0.12703517  0.66505224  1
  Pr  Pr62  1  0.66832669  0.87485385  0.33689491  1
  Pr  Pr63  1  0.83945664  0.87080260  0.16386358  1
  Pr  Pr64  1  0.66786530  0.87284437  0.67096911  1
  Pr  Pr65  1  0.17264661  0.37656015  0.82955779  1
  Pr  Pr66  1  0.82874217  0.62074958  0.83202839  1
  Pr  Pr67  1  0.66472317  0.37783994  0.67168439  1
  Pr  Pr68  1  0.66405841  0.62046665  0.66398872  1
  Pr  Pr69  1  0.82152634  0.62561742  0.16891931  1
  Pr  Pr70  1  0.33770615  0.87792976  0.33309425  1
  Pr  Pr71  1  0.67004159  0.12727807  0.33189581  1
  Mn  Mn72  1  -0.00093513  -0.00088640  0.16735555  1
  Mn  Mn73  1  -0.00039478  -0.00018918  0.50058700  1
  Mn  Mn74  1  0.00123150  -0.00138201  0.83447053  1
  Mn  Mn75  1  -0.00120431  0.50012184  0.16553030  1
  Mn  Mn76  1  -0.00181119  0.50053466  0.49729518  1
  Mn  Mn77  1  -0.00171623  0.50098999  0.83395661  1
  Mn  Mn78  1  0.33479572  -0.00157243  0.16708457  1
  Mn  Mn79  1  0.33832418  -0.00025000  0.50114881  1
  Mn  Mn80  1  0.33444241  -0.00020426  0.83049001  1
  Mn  Mn81  1  0.33163064  0.50202834  0.16600992  1
  Mn  Mn82  1  0.33430333  0.49826586  0.49724241  1
  Mn  Mn83  1  0.33244390  0.50081722  0.83403856  1
  Mn  Mn84  1  0.67082773  -0.00104721  0.16872708  1
  Mn  Mn85  1  0.66751681  -0.00012347  0.50167976  1
  Mn  Mn86  1  0.66612528  -0.00255351  0.83583451  1
  Mn  Mn87  1  0.66503866  0.50007712  0.16742947  1
  Mn  Mn88  1  0.66625693  0.49844375  0.49925398  1
  Mn  Mn89  1  0.66421370  0.50219083  0.83273825  1
  Mn  Mn90  1  -0.00227735  0.25156068  0.16837822  1
  Mn  Mn91  1  0.00032733  0.24807757  0.49904417  1
  Mn  Mn92  1  0.00161275  0.24912657  0.83416070  1
  Mn  Mn93  1  -0.00086865  0.75039530  0.16307405  1
  Mn  Mn94  1  -0.00194720  0.75207290  0.49917036  1
  Mn  Mn95  1  -0.00284968  0.75204437  0.83350090  1
  Mn  Mn96  1  0.33394314  0.25332893  0.16554298  1
  Mn  Mn97  1  0.33753208  0.25067715  0.49984088  1
  Mn  Mn98  1  0.33268371  0.24956320  0.83120297  1
  Mn  Mn99  1  0.33229605  0.74718767  0.16785680  1
  Mn  Mn100  1  0.33535320  0.74949293  0.49935631  1
  Mn  Mn101  1  0.33527758  0.74873291  0.83363071  1
  Mn  Mn102  1  0.66943610  0.25092714  0.16743619  1
  Mn  Mn103  1  0.66568552  0.24935857  0.49960250  1
  Mn  Mn104  1  0.66513198  0.25042679  0.83325545  1
  Mn  Mn105  1  0.66605675  0.75035835  0.16793184  1
  Mn  Mn106  1  0.66748796  0.75151183  0.50217414  1
  Mn  Mn107  1  0.66602696  0.75037139  0.83530053  1
  Mn  Mn108  1  0.16511352  0.25153724  -0.00030781  1
  Mn  Mn109  1  0.16717122  0.25115720  0.33203222  1
  Mn  Mn110  1  0.16952698  0.24816559  0.67046002  1
  Mn  Mn111  1  0.16277776  0.75090052  0.00105703  1
  Mn  Mn112  1  0.16790035  0.74811987  0.33360714  1
  Mn  Mn113  1  0.16829323  0.75046549  0.66628400  1
  Mn  Mn114  1  0.49950110  0.25225118  0.00058421  1
  Mn  Mn115  1  0.50336162  0.25252643  0.33370274  1
  Mn  Mn116  1  0.50118309  0.24886474  0.66620034  1
  Mn  Mn117  1  0.50200994  0.74850171  0.00120956  1
  Mn  Mn118  1  0.50043898  0.74868503  0.33294929  1
  Mn  Mn119  1  0.50114078  0.75043202  0.66777940  1
  Mn  Mn120  1  0.83244095  0.25185981  0.00275022  1
  Mn  Mn121  1  0.83355704  0.24785568  0.33025567  1
  Mn  Mn122  1  0.83153869  0.24876184  0.66593946  1
  Mn  Mn123  1  0.83177647  0.75038749  -0.00247675  1
  Mn  Mn124  1  0.83076389  0.75116867  0.33211114  1
  Mn  Mn125  1  0.83138642  0.75364555  0.66514040  1
  Mn  Mn126  1  0.16598747  -0.00010469  0.00038695  1
  Mn  Mn127  1  0.16841519  -0.00115490  0.33285646  1
  Mn  Mn128  1  0.17069528  0.00081166  0.67106901  1
  Mn  Mn129  1  0.16305408  0.49838655  0.00036428  1
  Mn  Mn130  1  0.16583000  0.50177395  0.33199994  1
  Mn  Mn131  1  0.16640440  0.49941909  0.66576951  1
  Mn  Mn132  1  0.50184705  -0.00172873  0.00054702  1
  Mn  Mn133  1  0.50416169  -0.00231895  0.33439360  1
  Mn  Mn134  1  0.50271807  -0.00020542  0.66717352  1
  Mn  Mn135  1  0.49953328  0.50102628  0.00211651  1
  Mn  Mn136  1  0.50002246  0.50006316  0.33218059  1
  Mn  Mn137  1  0.49897140  0.50000971  0.66674845  1
  Mn  Mn138  1  0.83293989  -0.00139553  0.00085726  1
  Mn  Mn139  1  0.83339448  -0.00070914  0.33237501  1
  Mn  Mn140  1  0.83237936  -0.00125934  0.66488124  1
  Mn  Mn141  1  0.83238774  0.50087875  0.00066692  1
  Mn  Mn142  1  0.83105933  0.50054153  0.33066831  1
  Mn  Mn143  1  0.83134123  0.50111157  0.66589564  1
  O  O144  1  0.16076814  0.12435510  0.01168791  1
  O  O145  1  0.16259463  0.12353143  0.34060269  1
  O  O146  1  0.17836926  0.12238662  0.69536410  1
  O  O147  1  0.15573173  0.62541931  0.02028160  1
  O  O148  1  0.17358265  0.62590299  0.36097888  1
  O  O149  1  0.17360017  0.62642000  0.67578596  1
  O  O150  1  0.50764464  0.12511705  0.01118046  1
  O  O151  1  0.50851952  0.12284369  0.35509368  1
  O  O152  1  0.50220573  0.12097656  0.69603926  1
  O  O153  1  0.50727589  0.62603687  0.02748288  1
  O  O154  1  0.49615645  0.62533299  0.34445811  1
  O  O155  1  0.50641720  0.62946472  0.69023906  1
  O  O156  1  0.83695279  0.12581826  0.02336297  1
  O  O157  1  0.83006798  0.12042203  0.36081381  1
  O  O158  1  0.83428529  0.12139964  0.67891475  1
  O  O159  1  0.84007962  0.62791876  0.02525031  1
  O  O160  1  0.82982995  0.63139167  0.35839846  1
  O  O161  1  0.82625851  0.63237861  0.68833112  1
  O  O162  1  0.15509062  0.37864894  0.31304209  1
  O  O163  1  0.17294906  0.37446270  0.65760359  1
  O  O164  1  0.15772420  0.37372845  0.97429450  1
  O  O165  1  0.16600574  0.87093987  0.31306299  1
  O  O166  1  0.16627312  0.87606580  0.65727021  1
  O  O167  1  0.15848657  0.87664672  0.97572031  1
  O  O168  1  0.50681145  0.37920089  0.30774327  1
  O  O169  1  0.50095946  0.37320265  0.65106098  1
  O  O170  1  0.50026346  0.37784404  0.99147947  1
  O  O171  1  0.50728319  0.87158427  0.31242357  1
  O  O172  1  0.49950727  0.87571260  0.64061762  1
  O  O173  1  0.50767342  0.87141820  0.97720318  1
  O  O174  1  0.82936701  0.36994937  0.30573798  1
  O  O175  1  0.82173061  0.37201962  0.65697959  1
  O  O176  1  0.83420132  0.37644545  0.98851665  1
  O  O177  1  0.82457410  0.87626012  0.30512493  1
  O  O178  1  0.82090704  0.87716469  0.63994787  1
  O  O179  1  0.82474450  0.87183506  0.97207577  1
  O  O180  1  -0.01113083  0.37531044  0.19583601  1
  O  O181  1  0.00011901  0.37233251  0.50556985  1
  O  O182  1  0.00468576  0.37372423  0.85231714  1
  O  O183  1  -0.01077346  0.87502946  0.19174777  1
  O  O184  1  -0.00730073  0.87712535  0.52467234  1
  O  O185  1  -0.00967444  0.87559534  0.85675052  1
  O  O186  1  0.33241879  0.38179252  0.18684864  1
  O  O187  1  0.33860631  0.37460906  0.52436027  1
  O  O188  1  0.32784684  0.37686418  0.84780458  1
  O  O189  1  0.32782084  0.86759083  0.18666634  1
  O  O190  1  0.34494598  0.87497077  0.52516393  1
  O  O191  1  0.33619334  0.87265257  0.84504475  1
  O  O192  1  0.67058766  0.37563999  0.19250422  1
  O  O193  1  0.66482545  0.36978253  0.52723653  1
  O  O194  1  0.66662678  0.37786536  0.84617839  1
  O  O195  1  0.67001223  0.87401201  0.19295226  1
  O  O196  1  0.66529466  0.87849156  0.52836539  1
  O  O197  1  0.66350009  0.87256667  0.86195882  1
  O  O198  1  -0.00537408  0.12332902  0.14003223  1
  O  O199  1  -0.00851760  0.12192628  0.47824547  1
  O  O200  1  0.00925112  0.12010415  0.81060380  1
  O  O201  1  0.00833062  0.62756910  0.13702788  1
  O  O202  1  0.00068315  0.62863950  0.48996660  1
  O  O203  1  -0.00679683  0.62973780  0.82378757  1
  O  O204  1  0.33428618  0.12783868  0.15949686  1
  O  O205  1  0.34330323  0.12371551  0.48713570  1
  O  O206  1  0.33372706  0.12220052  0.80900564  1
  O  O207  1  0.33950631  0.62516693  0.14667031  1
  O  O208  1  0.33064488  0.62423539  0.47704244  1
  O  O209  1  0.33928511  0.62723639  0.80945065  1
  O  O210  1  0.67433160  0.12243559  0.13996822  1
  O  O211  1  0.66350699  0.12225862  0.47329640  1
  O  O212  1  0.65779386  0.12023638  0.81274693  1
  O  O213  1  0.67000836  0.62778711  0.14283086  1
  O  O214  1  0.67415257  0.62886611  0.48386198  1
  O  O215  1  0.67075823  0.63060388  0.80715998  1
  O  O216  1  0.07464023  0.00844439  0.25487360  1
  O  O217  1  0.07814717  0.01457618  0.60057017  1
  O  O218  1  0.07640129  0.01768026  0.92481754  1
  O  O219  1  0.08462715  0.51744943  0.24413900  1
  O  O220  1  0.08610849  0.51271568  0.58100581  1
  O  O221  1  0.06993587  0.51272290  0.92880402  1
  O  O222  1  0.42184777  -0.00340986  0.25170919  1
  O  O223  1  0.42535045  0.02161722  0.58158421  1
  O  O224  1  0.42218306  0.01077698  0.90481563  1
  O  O225  1  0.40984163  0.51729925  0.25431584  1
  O  O226  1  0.41083304  0.51519502  0.59056375  1
  O  O227  1  0.41526131  0.52012804  0.91773319  1
  O  O228  1  0.75227165  0.02539412  0.25065985  1
  O  O229  1  0.74767133  0.02457047  0.58161562  1
  O  O230  1  0.74206107  0.01650023  0.92879865  1
  O  O231  1  0.74495340  0.51953581  0.25143797  1
  O  O232  1  0.74809902  0.52060607  0.58368915  1
  O  O233  1  0.74555346  0.52324740  0.91778557  1
  O  O234  1  0.24769629  0.25509150  0.24820863  1
  O  O235  1  0.25860110  0.23647350  0.59035312  1
  O  O236  1  0.24189219  0.23707514  0.90591923  1
  O  O237  1  0.24515893  0.72476436  0.24664880  1
  O  O238  1  0.24785866  0.73090146  0.57430759  1
  O  O239  1  0.24437589  0.74323256  0.91493533  1
  O  O240  1  0.59518334  0.23681554  0.25944631  1
  O  O241  1  0.58515255  0.22303521  0.58451098  1
  O  O242  1  0.58295032  0.23292012  0.91621317  1
  O  O243  1  0.57312054  0.73447686  0.23838018  1
  O  O244  1  0.58404249  0.73864596  0.58666057  1
  O  O245  1  0.57890453  0.72468144  0.91070112  1
  O  O246  1  0.91472868  0.22046153  0.24822385  1
  O  O247  1  0.91417643  0.23014945  0.58059904  1
  O  O248  1  0.92079502  0.23687826  0.92429887  1
  O  O249  1  0.90556822  0.73459382  0.23129941  1
  O  O250  1  0.90082687  0.73978512  0.56920850  1
  O  O251  1  0.90114853  0.73409689  0.90363532  1
  O  O252  1  0.08400772  0.47393197  0.08805469  1
  O  O253  1  0.08244325  0.49085818  0.41226738  1
  O  O254  1  0.08941574  0.48758821  0.75770915  1
  O  O255  1  0.08345418  0.97589199  0.08902423  1
  O  O256  1  0.08121253  0.98773422  0.41510431  1
  O  O257  1  0.09040223  0.97682254  0.76280358  1
  O  O258  1  0.42229365  0.48697336  0.09265404  1
  O  O259  1  0.41818233  0.47959940  0.41409916  1
  O  O260  1  0.41497106  0.49093005  0.74701465  1
  O  O261  1  0.42421627  0.98328103  0.08538563  1
  O  O262  1  0.42254072  0.97608732  0.41793505  1
  O  O263  1  0.41787885  0.97703916  0.74429006  1
  O  O264  1  0.75641575  0.48924854  0.08961055  1
  O  O265  1  0.74655622  0.48369154  0.41387908  1
  O  O266  1  0.74326324  0.49308307  0.74470214  1
  O  O267  1  0.75646329  0.97653109  0.09001100  1
  O  O268  1  0.74984168  0.97726564  0.41692736  1
  O  O269  1  0.75037754  0.97805104  0.75363451  1
  O  O270  1  0.24695655  0.27129421  0.08029634  1
  O  O271  1  0.25650066  0.26582334  0.41068357  1
  O  O272  1  0.25380668  0.27100798  0.74840632  1
  O  O273  1  0.24333943  0.75884163  0.08783995  1
  O  O274  1  0.26385795  0.76699935  0.40686523  1
  O  O275  1  0.25802302  0.76608101  0.74396957  1
  O  O276  1  0.58533680  0.26715566  0.08998921  1
  O  O277  1  0.58369010  0.27024609  0.41917306  1
  O  O278  1  0.58617477  0.26232369  0.74368247  1
  O  O279  1  0.59439982  0.77142228  0.07830691  1
  O  O280  1  0.58991104  0.77055670  0.41564985  1
  O  O281  1  0.58755523  0.77536884  0.75033763  1
  O  O282  1  0.91577563  0.27107957  0.08710588  1
  O  O283  1  0.91944876  0.25981483  0.40434705  1
  O  O284  1  0.92334123  0.25148060  0.74847460  1
  O  O285  1  0.92308273  0.77346984  0.06879494  1
  O  O286  1  0.91938139  0.77647680  0.40806492  1
  O  O287  1  0.92007528  0.77852710  0.73887511  1
  O  O288  1  0.24625751  0.48699523  0.08311315  1
  O  O289  1  0.25842325  0.48204979  0.40301550  1
  O  O290  1  0.25509469  0.48612008  0.74384625  1
  O  O291  1  0.24614643  0.98392174  0.08368767  1
  O  O292  1  0.25931518  0.98428155  0.41345042  1
  O  O293  1  0.25515882  0.97555220  0.74847170  1
  O  O294  1  0.58919628  0.48313409  0.08261973  1
  O  O295  1  0.58701612  0.48364930  0.41177526  1
  O  O296  1  0.58552376  0.49084092  0.74629383  1
  O  O297  1  0.59046660  0.97800255  0.08687228  1
  O  O298  1  0.58459577  0.97563115  0.42194562  1
  O  O299  1  0.58289204  0.97251569  0.75066975  1
  O  O300  1  0.92361109  0.48092190  0.07757532  1
  O  O301  1  0.91884424  0.48486008  0.40362997  1
  O  O302  1  0.91252709  0.49699376  0.75049408  1
  O  O303  1  0.91811136  0.97661565  0.08086031  1
  O  O304  1  0.91480217  0.97475030  0.41026531  1
  O  O305  1  0.92211168  0.97909680  0.74382065  1
  O  O306  1  0.08015851  0.27399830  0.08816374  1
  O  O307  1  0.08213688  0.25602622  0.41323380  1
  O  O308  1  0.09540908  0.25972189  0.76369051  1
  O  O309  1  0.08493693  0.77879754  0.08819124  1
  O  O310  1  0.08308285  0.76377601  0.41508587  1
  O  O311  1  0.08608033  0.77207137  0.75899970  1
  O  O312  1  0.41709265  0.26898916  0.08451489  1
  O  O313  1  0.41974221  0.26903808  0.41329146  1
  O  O314  1  0.41017056  0.26095513  0.73891379  1
  O  O315  1  0.42838625  0.76355790  0.09575188  1
  O  O316  1  0.42378660  0.77172073  0.42247476  1
  O  O317  1  0.42562424  0.77100984  0.75431721  1
  O  O318  1  0.75354601  0.26887574  0.08911766  1
  O  O319  1  0.74329245  0.26144639  0.40665070  1
  O  O320  1  0.74275078  0.25519039  0.74289886  1
  O  O321  1  0.75892760  0.76833741  0.09017004  1
  O  O322  1  0.75342881  0.77588935  0.42569251  1
  O  O323  1  0.75455643  0.77585388  0.75785074  1
  O  O324  1  0.24937559  -0.00215586  0.25012212  1
  O  O325  1  0.26046914  0.01015270  0.58943223  1
  O  O326  1  0.24198419  0.00980345  0.90669263  1
  O  O327  1  0.24389909  0.52286141  0.24350597  1
  O  O328  1  0.24825976  0.51929040  0.57743111  1
  O  O329  1  0.24490188  0.50806805  0.91559408  1
  O  O330  1  0.59431715  0.01090047  0.25963907  1
  O  O331  1  0.58614297  0.02463660  0.58656041  1
  O  O332  1  0.58344947  0.01780433  0.91682598  1
  O  O333  1  0.57513616  0.51780725  0.24140318  1
  O  O334  1  0.58690466  0.51158890  0.58788128  1
  O  O335  1  0.58015436  0.52436657  0.91282429  1
  O  O336  1  0.91451793  0.02272148  0.24869167  1
  O  O337  1  0.91280681  0.01882499  0.57911165  1
  O  O338  1  0.91749982  0.01322215  0.91901022  1
  O  O339  1  0.90523032  0.51939289  0.23432890  1
  O  O340  1  0.90736909  0.51446405  0.57557286  1
  O  O341  1  0.90975031  0.52016771  0.91493348  1
  O  O342  1  0.07406828  0.23864290  0.25509687  1
  O  O343  1  0.08059177  0.22910659  0.59655452  1
  O  O344  1  0.07728726  0.22783130  0.92242984  1
  O  O345  1  0.08454315  0.73790603  0.24452510  1
  O  O346  1  0.08144813  0.74417424  0.58572288  1
  O  O347  1  0.06736277  0.74102223  0.93022280  1
  O  O348  1  0.42182036  0.25258572  0.24918518  1
  O  O349  1  0.42533980  0.22793026  0.58070429  1
  O  O350  1  0.41810486  0.23465458  0.90766571  1
  O  O351  1  0.40768130  0.73561567  0.25828668  1
  O  O352  1  0.40705372  0.73332726  0.59478270  1
  O  O353  1  0.41628994  0.72954420  0.91742020  1
  O  O354  1  0.75373238  0.22281860  0.24724642  1
  O  O355  1  0.74869613  0.22463928  0.57791637  1
  O  O356  1  0.74391347  0.23529685  0.92469168  1
  O  O357  1  0.74172328  0.73057814  0.25442324  1
  O  O358  1  0.74280992  0.73155019  0.59129079  1
  O  O359  1  0.74210680  0.72497835  0.92445531  1
