# generated using pymatgen
data_Ba17Sr5La8Pr42Mn72O216
_symmetry_space_group_name_H-M   'P 1'
_cell_length_a   16.67153637
_cell_length_b   15.70705028
_cell_length_c   16.82104496
_cell_angle_alpha   89.99651062
_cell_angle_beta   89.98767834
_cell_angle_gamma   90.02005156
_symmetry_Int_Tables_number   1
_chemical_formula_structural   Ba17Sr5La8Pr42Mn72O216
_chemical_formula_sum   'Ba17 Sr5 La8 Pr42 Mn72 O216'
_cell_volume   4404.76955589
_cell_formula_units_Z   1
loop_
 _symmetry_equiv_pos_site_id
 _symmetry_equiv_pos_as_xyz
  1  'x, y, z'
loop_
 _atom_site_type_symbol
 _atom_site_label
 _atom_site_symmetry_multiplicity
 _atom_site_fract_x
 _atom_site_fract_y
 _atom_site_fract_z
 _atom_site_occupancy
  Ba  Ba0  1  0.50042581  0.37586114  0.16622663  1
  Ba  Ba1  1  0.33012838  0.87726452  0.33439694  1
  Ba  Ba2  1  0.33573259  0.62684774  0.99895438  1
  Ba  Ba3  1  0.50177104  0.62578336  0.16719115  1
  Ba  Ba4  1  0.49840662  0.62702574  0.50202501  1
  Ba  Ba5  1  0.83405981  0.87368477  0.16506466  1
  Ba  Ba6  1  0.66949982  0.12264292  0.99767586  1
  Ba  Ba7  1  0.33130191  0.37401065  0.33346812  1
  Ba  Ba8  1  0.82830353  0.37344140  0.49905452  1
  Ba  Ba9  1  0.33255557  0.37554477  0.00130670  1
  Ba  Ba10  1  -0.00120276  0.87534196  0.66773503  1
  Ba  Ba11  1  0.33648574  0.62479572  0.66792767  1
  Ba  Ba12  1  0.16459403  0.37400999  0.16443593  1
  Ba  Ba13  1  0.66662495  0.37242698  -0.00050544  1
  Ba  Ba14  1  0.49956963  0.37470977  0.83312190  1
  Ba  Ba15  1  0.83635105  0.62656110  0.16699113  1
  Ba  Ba16  1  0.83262611  0.62305074  0.50082686  1
  Sr  Sr17  1  0.50187297  0.62510954  0.83699575  1
  Sr  Sr18  1  0.66231623  0.37621669  0.33363925  1
  Sr  Sr19  1  0.16708228  0.87612563  0.16601261  1
  Sr  Sr20  1  0.66727118  0.87471682  0.00313076  1
  Sr  Sr21  1  0.33194329  0.37651107  0.66881957  1
  La  La22  1  0.17003862  0.62725793  0.83293250  1
  La  La23  1  0.00282033  0.12326020  1.00020959  1
  La  La24  1  0.33241274  0.12646705  1.00253558  1
  La  La25  1  0.00125268  0.12514167  0.66356205  1
  La  La26  1  0.00277602  0.62414199  0.33103691  1
  La  La27  1  0.16972746  0.12510120  0.50050231  1
  La  La28  1  0.33482689  0.87541822  0.66624709  1
  La  La29  1  0.16812535  0.12284143  0.83292162  1
  Pr  Pr30  1  0.49694857  0.37678229  0.49750673  1
  Pr  Pr31  1  0.49649205  0.87545128  0.49899857  1
  Pr  Pr32  1  -0.00433507  0.37680371  0.33521189  1
  Pr  Pr33  1  0.66274756  0.37919686  0.66878129  1
  Pr  Pr34  1  0.83827450  0.62473450  0.83650685  1
  Pr  Pr35  1  0.66589779  0.87070482  0.66764350  1
  Pr  Pr36  1  0.00171093  0.87390371  0.00246089  1
  Pr  Pr37  1  0.66404223  0.87019083  0.33391477  1
  Pr  Pr38  1  0.66834508  0.12760346  0.32831582  1
  Pr  Pr39  1  0.66829930  0.62339532  1.00106966  1
  Pr  Pr40  1  0.17023501  0.87360390  0.83013836  1
  Pr  Pr41  1  0.33658913  0.12416904  0.32915559  1
  Pr  Pr42  1  0.66572260  0.12537725  0.66481400  1
  Pr  Pr43  1  0.82963968  0.37576827  0.16524112  1
  Pr  Pr44  1  0.82954411  0.87515838  0.49564020  1
  Pr  Pr45  1  0.82968104  0.87625376  0.83293604  1
  Pr  Pr46  1  0.17202162  0.62426183  0.16859714  1
  Pr  Pr47  1  0.67156971  0.62057948  0.32928768  1
  Pr  Pr48  1  -0.00632836  0.37676277  0.66893392  1
  Pr  Pr49  1  0.83210977  0.12645253  0.50143899  1
  Pr  Pr50  1  0.33784855  0.87469940  0.00566996  1
  Pr  Pr51  1  0.49668393  0.12418219  0.49999504  1
  Pr  Pr52  1  0.16403947  0.37673472  0.49531059  1
  Pr  Pr53  1  0.00484617  0.62525656  0.66116831  1
  Pr  Pr54  1  -0.00246521  0.37601756  0.00240890  1
  Pr  Pr55  1  0.33959187  0.62577187  0.32867354  1
  Pr  Pr56  1  0.33812759  0.12698259  0.66718100  1
  Pr  Pr57  1  0.17221777  0.62589653  0.50125566  1
  Pr  Pr58  1  0.16014280  0.87499050  0.49465514  1
  Pr  Pr59  1  0.50449452  0.87525873  0.83476901  1
  Pr  Pr60  1  0.16920131  0.12596372  0.16940104  1
  Pr  Pr61  1  0.50070271  0.87646956  0.16293147  1
  Pr  Pr62  1  0.66415505  0.62283231  0.66440391  1
  Pr  Pr63  1  0.82619966  0.37154828  0.82958710  1
  Pr  Pr64  1  0.49465972  0.12471333  0.83893225  1
  Pr  Pr65  1  0.00412046  0.62630779  1.00148190  1
  Pr  Pr66  1  0.83868350  0.12332735  0.83610618  1
  Pr  Pr67  1  0.16699032  0.37758083  0.83068428  1
  Pr  Pr68  1  -0.00545210  0.87359995  0.33615191  1
  Pr  Pr69  1  -0.00248472  0.12711463  0.32900673  1
  Pr  Pr70  1  0.50411697  0.12879294  0.16641038  1
  Pr  Pr71  1  0.83041382  0.12334025  0.16591958  1
  Mn  Mn72  1  0.00132760  -0.00014215  0.16614704  1
  Mn  Mn73  1  -0.00224381  0.00190729  0.49857361  1
  Mn  Mn74  1  0.00126424  -0.00068548  0.83355203  1
  Mn  Mn75  1  0.00107535  0.49960667  0.16658177  1
  Mn  Mn76  1  0.00022079  0.49971888  0.50014134  1
  Mn  Mn77  1  0.00108204  0.50000052  0.83341124  1
  Mn  Mn78  1  0.33290390  -0.00098370  0.16665728  1
  Mn  Mn79  1  0.33103342  0.00205591  0.50112764  1
  Mn  Mn80  1  0.33306450  -0.00141039  0.83504554  1
  Mn  Mn81  1  0.33338317  0.50132889  0.16633267  1
  Mn  Mn82  1  0.33188040  0.49849146  0.50089029  1
  Mn  Mn83  1  0.33371097  0.49987900  0.83290201  1
  Mn  Mn84  1  0.66693485  0.00014477  0.16706502  1
  Mn  Mn85  1  0.66545033  0.00102470  0.49874143  1
  Mn  Mn86  1  0.66874779  -0.00114520  0.83081199  1
  Mn  Mn87  1  0.66865304  0.49988696  0.16649331  1
  Mn  Mn88  1  0.66439337  0.49942936  0.50000019  1
  Mn  Mn89  1  0.66812244  0.50202418  0.83228626  1
  Mn  Mn90  1  -0.00229287  0.24869472  0.16527364  1
  Mn  Mn91  1  -0.00057584  0.24907885  0.49897632  1
  Mn  Mn92  1  0.00215585  0.25083822  0.83267538  1
  Mn  Mn93  1  0.00437631  0.75136813  0.16704250  1
  Mn  Mn94  1  -0.00138771  0.74979448  0.50003039  1
  Mn  Mn95  1  0.00017088  0.74916785  0.83384712  1
  Mn  Mn96  1  0.33241950  0.24749563  0.16640940  1
  Mn  Mn97  1  0.33147861  0.24842460  0.50201324  1
  Mn  Mn98  1  0.33116298  0.24919069  0.83197200  1
  Mn  Mn99  1  0.33319195  0.75252383  0.16750890  1
  Mn  Mn100  1  0.33092221  0.75250662  0.50007308  1
  Mn  Mn101  1  0.33530243  0.75353628  0.83428683  1
  Mn  Mn102  1  0.66807485  0.24877470  0.16670127  1
  Mn  Mn103  1  0.66307822  0.24643786  0.49895973  1
  Mn  Mn104  1  0.66780701  0.24749194  0.82942097  1
  Mn  Mn105  1  0.66727144  0.75153801  0.16682191  1
  Mn  Mn106  1  0.66589644  0.75160357  0.50149446  1
  Mn  Mn107  1  0.66956894  0.75091634  0.83373638  1
  Mn  Mn108  1  0.16477096  0.24715557  -0.00177032  1
  Mn  Mn109  1  0.16356531  0.24916242  0.33493096  1
  Mn  Mn110  1  0.16515326  0.24964893  0.66605158  1
  Mn  Mn111  1  0.16628316  0.75258666  -0.00059702  1
  Mn  Mn112  1  0.16423118  0.75085033  0.33344601  1
  Mn  Mn113  1  0.16775643  0.75219669  0.66537069  1
  Mn  Mn114  1  0.50004750  0.24777758  0.00047148  1
  Mn  Mn115  1  0.50029754  0.24927964  0.33620959  1
  Mn  Mn116  1  0.50076512  0.24677207  0.66578597  1
  Mn  Mn117  1  0.50435207  0.75155618  -0.00093489  1
  Mn  Mn118  1  0.50066606  0.75190480  0.33472777  1
  Mn  Mn119  1  0.50107017  0.75335973  0.66866409  1
  Mn  Mn120  1  0.83722857  0.24990626  -0.00085523  1
  Mn  Mn121  1  0.83191347  0.24886800  0.33262203  1
  Mn  Mn122  1  0.83231391  0.24840541  0.66694658  1
  Mn  Mn123  1  0.83532698  0.74876044  -0.00217776  1
  Mn  Mn124  1  0.83299638  0.75071447  0.33418525  1
  Mn  Mn125  1  0.83317423  0.75026048  0.66803609  1
  Mn  Mn126  1  0.16643886  -0.00132550  -0.00076500  1
  Mn  Mn127  1  0.16160844  0.00107465  0.33344587  1
  Mn  Mn128  1  0.16754958  0.00104876  0.66602847  1
  Mn  Mn129  1  0.16519281  0.50185975  -0.00170242  1
  Mn  Mn130  1  0.16561658  0.50083686  0.33426450  1
  Mn  Mn131  1  0.16580470  0.49874972  0.66498012  1
  Mn  Mn132  1  0.50106840  0.00011338  -0.00044319  1
  Mn  Mn133  1  0.50184624  0.00030437  0.33382920  1
  Mn  Mn134  1  0.50180146  0.00030422  0.66837033  1
  Mn  Mn135  1  0.50136770  0.50188169  -0.00056684  1
  Mn  Mn136  1  0.49991418  0.49925167  0.33556094  1
  Mn  Mn137  1  0.49921295  0.49967979  0.66676799  1
  Mn  Mn138  1  0.83690739  -0.00072620  -0.00098710  1
  Mn  Mn139  1  0.83208692  0.00030121  0.33444271  1
  Mn  Mn140  1  0.83175173  0.00076382  0.66587334  1
  Mn  Mn141  1  0.83538663  0.50020382  -0.00075315  1
  Mn  Mn142  1  0.83321823  0.49895149  0.33306913  1
  Mn  Mn143  1  0.83366296  0.49975541  0.66972469  1
  O  O144  1  0.16338062  0.11879722  0.02465859  1
  O  O145  1  0.15517492  0.12504562  0.35743168  1
  O  O146  1  0.15832309  0.12548451  0.69055854  1
  O  O147  1  0.15887854  0.63046031  0.02290216  1
  O  O148  1  0.15773027  0.62607997  0.35874398  1
  O  O149  1  0.15782950  0.62425453  0.68801329  1
  O  O150  1  0.49551048  0.12045128  0.01870734  1
  O  O151  1  0.50254260  0.12310354  0.35844986  1
  O  O152  1  0.49993849  0.12091594  0.69582177  1
  O  O153  1  0.50912308  0.63053217  0.00738120  1
  O  O154  1  0.49731290  0.62654890  0.34587482  1
  O  O155  1  0.50658869  0.63253400  0.68398399  1
  O  O156  1  0.84364789  0.12679348  0.02140865  1
  O  O157  1  0.83190457  0.12263848  0.35864947  1
  O  O158  1  0.83060983  0.12365172  0.69315314  1
  O  O159  1  0.83229537  0.62354345  0.01103716  1
  O  O160  1  0.82924129  0.62734307  0.34345822  1
  O  O161  1  0.83307362  0.62144469  0.69221149  1
  O  O162  1  0.16074337  0.37352750  0.32097121  1
  O  O163  1  0.16418268  0.37153317  0.63926041  1
  O  O164  1  0.15779688  0.37433725  0.97592715  1
  O  O165  1  0.15661636  0.87739972  0.31519793  1
  O  O166  1  0.17257208  0.87956238  0.63916092  1
  O  O167  1  0.15942991  0.87695200  0.97153937  1
  O  O168  1  0.50077215  0.37136260  0.32451975  1
  O  O169  1  0.50951666  0.36662404  0.64351221  1
  O  O170  1  0.50099782  0.37052232  0.99308105  1
  O  O171  1  0.50741253  0.87913238  0.30731208  1
  O  O172  1  0.50653089  0.88001199  0.64237378  1
  O  O173  1  0.50104643  0.87824821  0.97857211  1
  O  O174  1  0.83998952  0.37073802  0.30987390  1
  O  O175  1  0.83862858  0.37437075  0.65392156  1
  O  O176  1  0.84298111  0.37572493  0.97325218  1
  O  O177  1  0.83719085  0.87750286  0.32142416  1
  O  O178  1  0.82907560  0.88055535  0.63791390  1
  O  O179  1  0.84412970  0.87234470  0.97585627  1
  O  O180  1  -0.00422745  0.36960518  0.19171704  1
  O  O181  1  0.00662874  0.37185550  0.52490031  1
  O  O182  1  0.00970930  0.37419293  0.86049846  1
  O  O183  1  0.00446679  0.87704198  0.19220232  1
  O  O184  1  -0.00073586  0.87645331  0.51269991  1
  O  O185  1  0.00082126  0.87151237  0.85839605  1
  O  O186  1  0.33165335  0.37074374  0.17493858  1
  O  O187  1  0.32722866  0.36848535  0.51804490  1
  O  O188  1  0.32292588  0.37037480  0.84269255  1
  O  O189  1  0.33698954  0.87708187  0.17904461  1
  O  O190  1  0.32753087  0.88059492  0.52064575  1
  O  O191  1  0.32648187  0.87877357  0.86177286  1
  O  O192  1  0.67449029  0.37064901  0.18141892  1
  O  O193  1  0.65717594  0.36666559  0.52558428  1
  O  O194  1  0.67235896  0.37245583  0.84245997  1
  O  O195  1  0.66011313  0.87847957  0.18906009  1
  O  O196  1  0.67053497  0.87896307  0.52593278  1
  O  O197  1  0.66894482  0.87581289  0.85452507  1
  O  O198  1  -0.00414246  0.12470309  0.14238031  1
  O  O199  1  -0.00423123  0.12498709  0.47363313  1
  O  O200  1  -0.00111093  0.12885906  0.80567084  1
  O  O201  1  0.00808032  0.62832240  0.14563975  1
  O  O202  1  0.00532077  0.62713629  0.47701509  1
  O  O203  1  -0.00317399  0.62479751  0.80343243  1
  O  O204  1  0.32626544  0.11919388  0.14889781  1
  O  O205  1  0.33439690  0.12354076  0.47429344  1
  O  O206  1  0.33490376  0.12116704  0.80946923  1
  O  O207  1  0.32653430  0.63169510  0.15930118  1
  O  O208  1  0.32640865  0.62848616  0.47653153  1
  O  O209  1  0.32984548  0.63105235  0.82383851  1
  O  O210  1  0.66998236  0.12275364  0.15562761  1
  O  O211  1  0.66343498  0.12128111  0.46995400  1
  O  O212  1  0.67729046  0.12170188  0.80847478  1
  O  O213  1  0.66932438  0.62780838  0.14987756  1
  O  O214  1  0.66389225  0.63207562  0.47515747  1
  O  O215  1  0.67543281  0.62924586  0.80687905  1
  O  O216  1  0.08229580  0.02627403  0.24815030  1
  O  O217  1  0.08219451  0.02032356  0.57727830  1
  O  O218  1  0.08340592  0.02128861  0.91795871  1
  O  O219  1  0.08892743  0.52048661  0.24574691  1
  O  O220  1  0.08686198  0.52117328  0.57882526  1
  O  O221  1  0.08555576  0.52641382  0.90884597  1
  O  O222  1  0.41903038  0.02311586  0.25292028  1
  O  O223  1  0.41643160  0.02038275  0.59061795  1
  O  O224  1  0.41159069  0.01949742  0.91921926  1
  O  O225  1  0.41375245  0.51225193  0.25647074  1
  O  O226  1  0.41816031  0.49941431  0.58090472  1
  O  O227  1  0.42176750  0.50739010  0.91404509  1
  O  O228  1  0.75031587  0.01980170  0.25313912  1
  O  O229  1  0.74908807  0.02728189  0.57946540  1
  O  O230  1  0.76052970  0.01131918  0.90675433  1
  O  O231  1  0.75162450  0.50807528  0.24925479  1
  O  O232  1  0.74593307  0.51095999  0.59024709  1
  O  O233  1  0.75514456  0.51886761  0.91219587  1
  O  O234  1  0.25041032  0.22538111  0.25605087  1
  O  O235  1  0.25290135  0.22346489  0.59034528  1
  O  O236  1  0.25126589  0.22539416  0.91859675  1
  O  O237  1  0.24852442  0.73135922  0.25688829  1
  O  O238  1  0.24691729  0.73536715  0.58025301  1
  O  O239  1  0.24105190  0.74153742  0.90908741  1
  O  O240  1  0.58505348  0.22924954  0.25362864  1
  O  O241  1  0.58161275  0.21730462  0.58181852  1
  O  O242  1  0.58113334  0.23037678  0.90580118  1
  O  O243  1  0.59170462  0.73809001  0.26390085  1
  O  O244  1  0.59082216  0.74051346  0.59288162  1
  O  O245  1  0.59717270  0.73544380  0.92261918  1
  O  O246  1  0.91484053  0.22335775  0.24736384  1
  O  O247  1  0.91674757  0.22760023  0.58519583  1
  O  O248  1  0.92503674  0.22867573  0.91898587  1
  O  O249  1  0.92847152  0.73990915  0.25905671  1
  O  O250  1  0.92324796  0.73280013  0.59174652  1
  O  O251  1  0.92154900  0.72470549  0.91746066  1
  O  O252  1  0.07268950  0.48698772  0.07164395  1
  O  O253  1  0.07812734  0.47951954  0.41211814  1
  O  O254  1  0.07770262  0.47679941  0.74379355  1
  O  O255  1  0.08531802  0.98085132  0.08013782  1
  O  O256  1  0.07501993  0.98099006  0.41201395  1
  O  O257  1  0.08966673  0.98477936  0.75621498  1
  O  O258  1  0.41742543  0.49850256  0.08249960  1
  O  O259  1  0.41425476  0.48740628  0.42023351  1
  O  O260  1  0.41561766  0.48955514  0.74556146  1
  O  O261  1  0.41954807  0.98070545  0.08298544  1
  O  O262  1  0.42316477  0.98676540  0.42339880  1
  O  O263  1  0.42012556  0.97647456  0.75756254  1
  O  O264  1  0.75534186  0.48495833  0.08366909  1
  O  O265  1  0.74144698  0.49038057  0.41312855  1
  O  O266  1  0.75127650  0.47945763  0.74976314  1
  O  O267  1  0.75341172  0.99145555  0.08189279  1
  O  O268  1  0.74823745  0.97836361  0.41710429  1
  O  O269  1  0.74809013  0.97532691  0.74458597  1
  O  O270  1  0.24394593  0.24920440  0.08579198  1
  O  O271  1  0.23959041  0.25783003  0.42916673  1
  O  O272  1  0.23878502  0.26095232  0.75601907  1
  O  O273  1  0.25106573  0.77104258  0.07731554  1
  O  O274  1  0.23705591  0.76629053  0.42334432  1
  O  O275  1  0.25363658  0.77380681  0.74798413  1
  O  O276  1  0.58230895  0.24816982  0.08788848  1
  O  O277  1  0.57710596  0.26441636  0.42393153  1
  O  O278  1  0.59109261  0.25786753  0.73901504  1
  O  O279  1  0.57974390  0.77093659  0.08943594  1
  O  O280  1  0.57996844  0.77823163  0.42276551  1
  O  O281  1  0.58261108  0.77374336  0.75575932  1
  O  O282  1  0.91517593  0.27497702  0.08541450  1
  O  O283  1  0.91917488  0.26262882  0.40942789  1
  O  O284  1  0.91639817  0.27106374  0.75724008  1
  O  O285  1  0.92535874  0.76155370  0.07814131  1
  O  O286  1  0.91151036  0.76863303  0.42234379  1
  O  O287  1  0.90895457  0.76641380  0.76041192  1
  O  O288  1  0.24155467  0.49866931  0.08662962  1
  O  O289  1  0.23906292  0.48871680  0.42447688  1
  O  O290  1  0.24041534  0.48622630  0.75174557  1
  O  O291  1  0.25304789  0.98149781  0.07397734  1
  O  O292  1  0.23520168  0.98942155  0.42336504  1
  O  O293  1  0.25462739  0.98000922  0.75085731  1
  O  O294  1  0.58945057  0.49876854  0.08089585  1
  O  O295  1  0.57636596  0.48173087  0.42345593  1
  O  O296  1  0.58981006  0.49013900  0.74541972  1
  O  O297  1  0.58051307  0.98551754  0.08727355  1
  O  O298  1  0.58452963  0.97410964  0.41713010  1
  O  O299  1  0.58737559  0.97871714  0.74598221  1
  O  O300  1  0.91471541  0.47841060  0.08706511  1
  O  O301  1  0.91813279  0.48510412  0.41652611  1
  O  O302  1  0.91415891  0.47613385  0.76023044  1
  O  O303  1  0.92532528  0.98363017  0.07775006  1
  O  O304  1  0.91188090  0.98200119  0.42047345  1
  O  O305  1  0.90995562  0.98631130  0.75682950  1
  O  O306  1  0.07246761  0.26063240  0.07245989  1
  O  O307  1  0.07887628  0.27064854  0.41439562  1
  O  O308  1  0.07822370  0.27408012  0.74396968  1
  O  O309  1  0.08388635  0.77322950  0.08086797  1
  O  O310  1  0.07552397  0.77115134  0.41124231  1
  O  O311  1  0.08993198  0.76554128  0.75675502  1
  O  O312  1  0.41315966  0.24475581  0.08574647  1
  O  O313  1  0.41715055  0.25948906  0.42305867  1
  O  O314  1  0.41188620  0.25594485  0.74446249  1
  O  O315  1  0.41922461  0.77128867  0.08075087  1
  O  O316  1  0.41778228  0.76881234  0.42088232  1
  O  O317  1  0.41814752  0.77882362  0.75038221  1
  O  O318  1  0.75834718  0.25937262  0.08803806  1
  O  O319  1  0.74374274  0.25715155  0.41153419  1
  O  O320  1  0.74886583  0.26911916  0.74426274  1
  O  O321  1  0.74700154  0.75928985  0.07301709  1
  O  O322  1  0.74608883  0.77357051  0.41790535  1
  O  O323  1  0.74768318  0.77554029  0.74776939  1
  O  O324  1  0.24708925  0.02204172  0.25443324  1
  O  O325  1  0.25149190  0.02797389  0.58780139  1
  O  O326  1  0.24664780  0.02154966  0.91356442  1
  O  O327  1  0.25046178  0.52310436  0.25798676  1
  O  O328  1  0.24619361  0.51492092  0.58139585  1
  O  O329  1  0.24327990  0.51135620  0.91318556  1
  O  O330  1  0.58259615  0.02406991  0.25208809  1
  O  O331  1  0.58280900  0.02417005  0.58007270  1
  O  O332  1  0.57605232  0.01415445  0.90588178  1
  O  O333  1  0.59104116  0.51163887  0.25895757  1
  O  O334  1  0.58823141  0.51352166  0.58894107  1
  O  O335  1  0.59156285  0.51849417  0.91632712  1
  O  O336  1  0.91557985  0.02209386  0.25239839  1
  O  O337  1  0.91555543  0.02567706  0.58354755  1
  O  O338  1  0.92084632  0.02178319  0.91633229  1
  O  O339  1  0.92782348  0.51158925  0.25709966  1
  O  O340  1  0.92607735  0.51269416  0.59647703  1
  O  O341  1  0.92477630  0.52125697  0.92153436  1
  O  O342  1  0.08147323  0.22633980  0.24505983  1
  O  O343  1  0.08526395  0.22546553  0.58070943  1
  O  O344  1  0.08853340  0.22501786  0.90782633  1
  O  O345  1  0.08846901  0.72748918  0.24721587  1
  O  O346  1  0.08532157  0.73275675  0.57864824  1
  O  O347  1  0.08032409  0.72738799  0.91761557  1
  O  O348  1  0.41784704  0.22416688  0.25172051  1
  O  O349  1  0.41800107  0.22426706  0.58285430  1
  O  O350  1  0.41531141  0.22858710  0.91489345  1
  O  O351  1  0.41609748  0.74138515  0.25598686  1
  O  O352  1  0.41648819  0.75374170  0.58570562  1
  O  O353  1  0.42435002  0.74962761  0.91131808  1
  O  O354  1  0.75328981  0.22738456  0.24887584  1
  O  O355  1  0.74714351  0.22398316  0.57902514  1
  O  O356  1  0.76154102  0.23640801  0.90728497  1
  O  O357  1  0.74811060  0.74249977  0.25500337  1
  O  O358  1  0.74736183  0.73498682  0.58701812  1
  O  O359  1  0.75984231  0.73378945  0.90608390  1
