# generated using pymatgen
data_Ba17Sr5La8Pr42Mn72O216
_symmetry_space_group_name_H-M   'P 1'
_cell_length_a   16.67146026
_cell_length_b   15.70972165
_cell_length_c   16.81808802
_cell_angle_alpha   90.00259762
_cell_angle_beta   89.96532044
_cell_angle_gamma   89.99137080
_symmetry_Int_Tables_number   1
_chemical_formula_structural   Ba17Sr5La8Pr42Mn72O216
_chemical_formula_sum   'Ba17 Sr5 La8 Pr42 Mn72 O216'
_cell_volume   4404.72367004
_cell_formula_units_Z   1
loop_
 _symmetry_equiv_pos_site_id
 _symmetry_equiv_pos_as_xyz
  1  'x, y, z'
loop_
 _atom_site_type_symbol
 _atom_site_label
 _atom_site_symmetry_multiplicity
 _atom_site_fract_x
 _atom_site_fract_y
 _atom_site_fract_z
 _atom_site_occupancy
  Ba  Ba0  1  0.66454559  0.62576492  0.99807302  1
  Ba  Ba1  1  0.33423458  0.87450974  0.66702570  1
  Ba  Ba2  1  0.66697461  0.87558316  0.00158711  1
  Ba  Ba3  1  0.83252727  0.62389790  0.83279659  1
  Ba  Ba4  1  0.49836279  0.12650585  0.83622907  1
  Ba  Ba5  1  0.83538026  0.87576325  0.16593987  1
  Ba  Ba6  1  0.16407761  0.62370296  0.16866324  1
  Ba  Ba7  1  0.67001956  0.87475005  0.33609418  1
  Ba  Ba8  1  0.33418757  0.62542864  0.33461268  1
  Ba  Ba9  1  0.33505856  0.87445265  0.33636178  1
  Ba  Ba10  1  0.50362952  0.12713528  0.50247948  1
  Ba  Ba11  1  0.33205048  0.12692970  0.99953669  1
  Ba  Ba12  1  0.16867722  0.87498636  0.50039766  1
  Ba  Ba13  1  0.00198055  0.12730250  0.32983903  1
  Ba  Ba14  1  0.66793983  0.12572623  0.99779699  1
  Ba  Ba15  1  0.50054195  0.62276469  0.16938405  1
  Ba  Ba16  1  0.16553315  0.62447767  0.50027716  1
  Sr  Sr17  1  0.49893435  0.62618635  0.50177056  1
  Sr  Sr18  1  0.83507828  0.87456531  0.49456215  1
  Sr  Sr19  1  0.50145820  0.87448305  0.49695282  1
  Sr  Sr20  1  0.49463375  0.62527521  0.83828153  1
  Sr  Sr21  1  0.49838091  0.37502123  0.50030595  1
  La  La22  1  0.16661870  0.37118519  0.83117742  1
  La  La23  1  -0.00451794  0.62481062  0.66293044  1
  La  La24  1  0.16902737  0.87517101  0.16705674  1
  La  La25  1  0.83033565  0.62681116  0.16599384  1
  La  La26  1  -0.00207900  0.62703069  0.33255285  1
  La  La27  1  0.83639986  0.12072011  0.49829813  1
  La  La28  1  0.33100735  0.62350513  1.00053698  1
  La  La29  1  0.66215330  0.62529622  0.66662336  1
  Pr  Pr30  1  0.16950370  0.12372626  0.83398854  1
  Pr  Pr31  1  0.33555149  0.12607112  0.66461729  1
  Pr  Pr32  1  0.83514139  0.36927101  0.16179839  1
  Pr  Pr33  1  0.00117226  0.87252944  0.00128757  1
  Pr  Pr34  1  0.00271012  0.87389135  0.33628148  1
  Pr  Pr35  1  0.83391046  0.37454173  0.49443617  1
  Pr  Pr36  1  -0.00108690  0.87432083  0.66721282  1
  Pr  Pr37  1  0.66381592  0.37691535  0.33818047  1
  Pr  Pr38  1  0.83527089  0.12465855  0.83326096  1
  Pr  Pr39  1  0.82478000  0.87353041  0.83090692  1
  Pr  Pr40  1  0.33302250  0.37881906  0.33666917  1
  Pr  Pr41  1  0.16584910  0.87808004  0.82704463  1
  Pr  Pr42  1  0.33750037  0.37675683  0.66838489  1
  Pr  Pr43  1  0.82586292  0.37589453  0.82889092  1
  Pr  Pr44  1  0.16362971  0.62653121  0.83556658  1
  Pr  Pr45  1  0.65848567  0.37600407  0.66775185  1
  Pr  Pr46  1  0.82851623  0.62776277  0.50255052  1
  Pr  Pr47  1  0.17295112  0.12259406  0.49855366  1
  Pr  Pr48  1  0.50057183  0.37390379  0.83713928  1
  Pr  Pr49  1  0.16918279  0.37503098  0.16447105  1
  Pr  Pr50  1  0.66847699  0.12346248  0.33271633  1
  Pr  Pr51  1  0.50114550  0.87070397  0.16811813  1
  Pr  Pr52  1  0.66235556  0.37729342  0.00102693  1
  Pr  Pr53  1  0.33206930  0.62382172  0.66107279  1
  Pr  Pr54  1  0.17176054  0.12645678  0.16901204  1
  Pr  Pr55  1  0.16697177  0.37400926  0.49693642  1
  Pr  Pr56  1  0.33617715  0.37419658  0.00230500  1
  Pr  Pr57  1  0.00268200  0.37595355  0.33373214  1
  Pr  Pr58  1  0.66183970  0.87579608  0.66574073  1
  Pr  Pr59  1  0.66258461  0.62710365  0.33173323  1
  Pr  Pr60  1  0.33940293  0.12142836  0.33193444  1
  Pr  Pr61  1  0.67234784  0.12630135  0.66261130  1
  Pr  Pr62  1  0.00583593  0.12590266  0.65847190  1
  Pr  Pr63  1  0.82915923  0.12073249  0.16715250  1
  Pr  Pr64  1  0.49652208  0.37704697  0.16843496  1
  Pr  Pr65  1  -0.00179251  0.62638935  0.99704636  1
  Pr  Pr66  1  -0.00187839  0.37624509  0.66791273  1
  Pr  Pr67  1  -0.00108098  0.37850514  -0.00031426  1
  Pr  Pr68  1  0.33708183  0.87578965  0.00220133  1
  Pr  Pr69  1  0.50461961  0.12303743  0.17172101  1
  Pr  Pr70  1  0.50457453  0.87628359  0.83430446  1
  Pr  Pr71  1  0.00083701  0.12490402  0.99727309  1
  Mn  Mn72  1  0.00367096  0.00142098  0.16360424  1
  Mn  Mn73  1  0.00106430  0.00078419  0.49880916  1
  Mn  Mn74  1  -0.00233612  0.00186572  0.83140424  1
  Mn  Mn75  1  -0.00254642  0.49772060  0.16680658  1
  Mn  Mn76  1  -0.00192395  0.49738229  0.49955302  1
  Mn  Mn77  1  0.00011596  0.49739312  0.83271425  1
  Mn  Mn78  1  0.33498866  0.00052784  0.16640327  1
  Mn  Mn79  1  0.33600352  0.00162092  0.49996127  1
  Mn  Mn80  1  0.33201877  -0.00116182  0.83449904  1
  Mn  Mn81  1  0.33225041  0.49775181  0.16818799  1
  Mn  Mn82  1  0.33315289  0.49824742  0.50310551  1
  Mn  Mn83  1  0.32987715  0.49956151  0.83374018  1
  Mn  Mn84  1  0.66611402  0.00080461  0.16692209  1
  Mn  Mn85  1  0.67020620  0.00092563  0.50095249  1
  Mn  Mn86  1  0.66683891  0.00049793  0.83074908  1
  Mn  Mn87  1  0.66959945  0.49693554  0.17009383  1
  Mn  Mn88  1  0.66659889  0.49934963  0.50150900  1
  Mn  Mn89  1  0.66458419  0.49899793  0.83378424  1
  Mn  Mn90  1  0.00147598  0.25082307  0.16268442  1
  Mn  Mn91  1  0.00052701  0.25019031  0.49891847  1
  Mn  Mn92  1  -0.00179941  0.24900773  0.83023051  1
  Mn  Mn93  1  0.00032548  0.75020921  0.16623336  1
  Mn  Mn94  1  -0.00144514  0.74988222  0.49946289  1
  Mn  Mn95  1  -0.00108030  0.75184819  0.83286369  1
  Mn  Mn96  1  0.33519465  0.24958489  0.16904135  1
  Mn  Mn97  1  0.33298402  0.25174105  0.50029899  1
  Mn  Mn98  1  0.33090921  0.25321592  0.83338711  1
  Mn  Mn99  1  0.33262978  0.75210328  0.16651993  1
  Mn  Mn100  1  0.33539736  0.74847706  0.50132386  1
  Mn  Mn101  1  0.33077133  0.74840905  0.83540322  1
  Mn  Mn102  1  0.66770069  0.25204768  0.16812128  1
  Mn  Mn103  1  0.67047771  0.25235071  0.50049478  1
  Mn  Mn104  1  0.66740423  0.25126189  0.83182838  1
  Mn  Mn105  1  0.66685368  0.74840225  0.16749408  1
  Mn  Mn106  1  0.66630886  0.74825063  0.50131880  1
  Mn  Mn107  1  0.66440789  0.75028343  0.83208657  1
  Mn  Mn108  1  0.16414562  0.25125498  -0.00123687  1
  Mn  Mn109  1  0.16902503  0.25113914  0.33207342  1
  Mn  Mn110  1  0.16630577  0.25056329  0.66416772  1
  Mn  Mn111  1  0.16666552  0.74965754  -0.00200972  1
  Mn  Mn112  1  0.16593594  0.74960702  0.33332671  1
  Mn  Mn113  1  0.16422558  0.74945690  0.66978954  1
  Mn  Mn114  1  0.49999778  0.25248293  0.00361028  1
  Mn  Mn115  1  0.50147515  0.25082149  0.33485484  1
  Mn  Mn116  1  0.50011538  0.25163331  0.66877780  1
  Mn  Mn117  1  0.49678972  0.74963965  -0.00008097  1
  Mn  Mn118  1  0.50158632  0.74967757  0.33612094  1
  Mn  Mn119  1  0.49877775  0.74915342  0.66928823  1
  Mn  Mn120  1  0.83575642  0.25058225  -0.00404511  1
  Mn  Mn121  1  0.83367058  0.25138288  0.32991831  1
  Mn  Mn122  1  0.83425819  0.25112734  0.66484449  1
  Mn  Mn123  1  0.83483579  0.74988678  -0.00111580  1
  Mn  Mn124  1  0.83473604  0.74788275  0.33502379  1
  Mn  Mn125  1  0.83160952  0.75161763  0.66425117  1
  Mn  Mn126  1  0.16553096  -0.00058026  -0.00192997  1
  Mn  Mn127  1  0.16793318  0.00247284  0.33234179  1
  Mn  Mn128  1  0.16589182  0.00200316  0.66659442  1
  Mn  Mn129  1  0.16524543  0.49935186  -0.00135154  1
  Mn  Mn130  1  0.16482096  0.49799468  0.33276632  1
  Mn  Mn131  1  0.16455085  0.49746902  0.66804737  1
  Mn  Mn132  1  0.49866636  -0.00057299  0.00167060  1
  Mn  Mn133  1  0.50288618  0.00119292  0.33574456  1
  Mn  Mn134  1  0.50078147  0.00028590  0.66771804  1
  Mn  Mn135  1  0.49735025  0.49949393  0.00109106  1
  Mn  Mn136  1  0.50120043  0.49730837  0.33707734  1
  Mn  Mn137  1  0.49883136  0.49972097  0.67041949  1
  Mn  Mn138  1  0.83716116  0.00219723  -0.00236690  1
  Mn  Mn139  1  0.83609738  0.00079642  0.33336498  1
  Mn  Mn140  1  0.83428465  -0.00139302  0.66618716  1
  Mn  Mn141  1  0.83426892  0.49675690  -0.00076929  1
  Mn  Mn142  1  0.83397070  0.49845337  0.33180275  1
  Mn  Mn143  1  0.83175487  0.49895963  0.66357258  1
  O  O144  1  0.15744951  0.13025179  0.02577874  1
  O  O145  1  0.17030293  0.13026918  0.35425380  1
  O  O146  1  0.16151823  0.12885690  0.69162947  1
  O  O147  1  0.16118607  0.62386604  0.01510082  1
  O  O148  1  0.15668095  0.61884081  0.34221233  1
  O  O149  1  0.16271114  0.61990489  0.69148189  1
  O  O150  1  0.49932833  0.13074516  0.02454261  1
  O  O151  1  0.50041440  0.12930148  0.34538336  1
  O  O152  1  0.49992793  0.12812047  0.68006885  1
  O  O153  1  0.49105287  0.62182822  0.01101072  1
  O  O154  1  0.50862044  0.61947755  0.34882750  1
  O  O155  1  0.49732034  0.62209520  0.68965574  1
  O  O156  1  0.84051825  0.12906268  0.02208813  1
  O  O157  1  0.82958775  0.13004158  0.35405060  1
  O  O158  1  0.83132931  0.12689491  0.69223102  1
  O  O159  1  0.84191434  0.61763886  0.01987289  1
  O  O160  1  0.83999220  0.61906671  0.35954065  1
  O  O161  1  0.83850509  0.62513603  0.67849046  1
  O  O162  1  0.16813347  0.37264795  0.30949357  1
  O  O163  1  0.16221709  0.37195097  0.63940210  1
  O  O164  1  0.16529281  0.37478599  0.97380875  1
  O  O165  1  0.16005387  0.87957694  0.31364170  1
  O  O166  1  0.15831057  0.87856981  0.65740215  1
  O  O167  1  0.16404023  0.87092177  0.97009098  1
  O  O168  1  0.50500544  0.37152076  0.31258726  1
  O  O169  1  0.50169759  0.37519650  0.64879916  1
  O  O170  1  0.49710514  0.37621853  0.98269917  1
  O  O171  1  0.50333888  0.87909427  0.31594369  1
  O  O172  1  0.50687606  0.87499767  0.64814386  1
  O  O173  1  0.49164275  0.87244352  0.98011020  1
  O  O174  1  0.83336959  0.37456726  0.30430064  1
  O  O175  1  0.83771622  0.37345865  0.63760618  1
  O  O176  1  0.84134786  0.37184254  0.97193880  1
  O  O177  1  0.84311647  0.87455326  0.32233617  1
  O  O178  1  0.83367763  0.87511303  0.64295455  1
  O  O179  1  0.84491765  0.88085282  0.97709439  1
  O  O180  1  -0.00787183  0.37333520  0.19143880  1
  O  O181  1  -0.00178027  0.37299817  0.52427284  1
  O  O182  1  0.00177979  0.37104493  0.85729752  1
  O  O183  1  0.00498333  0.88065067  0.19051066  1
  O  O184  1  -0.00258221  0.87859095  0.52232071  1
  O  O185  1  0.00521062  0.88186464  0.85896603  1
  O  O186  1  0.33072753  0.36958323  0.19185955  1
  O  O187  1  0.32460381  0.37305146  0.52507558  1
  O  O188  1  0.32044241  0.37751379  0.85945376  1
  O  O189  1  0.32885161  0.87893316  0.17824244  1
  O  O190  1  0.33778433  0.87849968  0.50900810  1
  O  O191  1  0.31923458  0.87001489  0.85706404  1
  O  O192  1  0.67923958  0.37306350  0.19558354  1
  O  O193  1  0.67894438  0.37604274  0.52608161  1
  O  O194  1  0.67266140  0.37390304  0.85366575  1
  O  O195  1  0.66065279  0.87719974  0.17683409  1
  O  O196  1  0.66984137  0.87395082  0.52162329  1
  O  O197  1  0.66806327  0.87599991  0.84248993  1
  O  O198  1  0.01189299  0.12754249  0.14007347  1
  O  O199  1  -0.00272773  0.12723139  0.48635637  1
  O  O200  1  -0.00897965  0.12670820  0.79981297  1
  O  O201  1  -0.00390928  0.61831689  0.14065134  1
  O  O202  1  -0.00670528  0.61929026  0.47757088  1
  O  O203  1  0.00630466  0.62078576  0.80659836  1
  O  O204  1  0.33595020  0.12605666  0.15348183  1
  O  O205  1  0.32898919  0.13152092  0.47763770  1
  O  O206  1  0.32689679  0.13093818  0.80949617  1
  O  O207  1  0.33258602  0.62538139  0.14618162  1
  O  O208  1  0.33646873  0.61876553  0.49591252  1
  O  O209  1  0.33146473  0.62155897  0.80645505  1
  O  O210  1  0.66448794  0.12880576  0.15315466  1
  O  O211  1  0.67436498  0.13101393  0.47819057  1
  O  O212  1  0.67295976  0.12679262  0.80764012  1
  O  O213  1  0.67130781  0.61906841  0.15618237  1
  O  O214  1  0.67100206  0.61933589  0.47621956  1
  O  O215  1  0.66175605  0.62380438  0.81310527  1
  O  O216  1  0.09473459  0.01816598  0.23816519  1
  O  O217  1  0.08784482  0.02336984  0.57933701  1
  O  O218  1  0.08055687  0.02767161  0.91060296  1
  O  O219  1  0.07136709  0.50467036  0.25770257  1
  O  O220  1  0.07351740  0.51162458  0.59439415  1
  O  O221  1  0.08138413  0.51837180  0.91746610  1
  O  O222  1  0.42170953  0.01889206  0.24717102  1
  O  O223  1  0.41320789  0.01744856  0.58995214  1
  O  O224  1  0.41194480  0.00325161  0.92007434  1
  O  O225  1  0.41837534  0.49832326  0.25293925  1
  O  O226  1  0.41123178  0.50858496  0.59472201  1
  O  O227  1  0.40392141  0.50987098  0.92279084  1
  O  O228  1  0.74956955  0.02019248  0.25080297  1
  O  O229  1  0.75596456  0.02505018  0.58267945  1
  O  O230  1  0.75956857  0.01183783  0.90436629  1
  O  O231  1  0.75273430  0.52277105  0.25357607  1
  O  O232  1  0.74917081  0.52321298  0.58193871  1
  O  O233  1  0.75068155  0.50284895  0.91699311  1
  O  O234  1  0.25648505  0.22810075  0.25425493  1
  O  O235  1  0.24849056  0.22492902  0.58442465  1
  O  O236  1  0.24113599  0.23525530  0.90767723  1
  O  O237  1  0.24432625  0.74784796  0.24323161  1
  O  O238  1  0.24984219  0.73535095  0.59357124  1
  O  O239  1  0.24650286  0.72172872  0.91591534  1
  O  O240  1  0.58721668  0.23280558  0.25366404  1
  O  O241  1  0.59841701  0.24065648  0.59278534  1
  O  O242  1  0.58621158  0.25060522  0.92231821  1
  O  O243  1  0.58712732  0.73775820  0.25524560  1
  O  O244  1  0.58563154  0.72966683  0.58717459  1
  O  O245  1  0.57303355  0.74445646  0.91008875  1
  O  O246  1  0.91190736  0.23293117  0.23650643  1
  O  O247  1  0.92120106  0.23049512  0.59028191  1
  O  O248  1  0.92022717  0.22540197  0.91454735  1
  O  O249  1  0.91203349  0.72687716  0.24626854  1
  O  O250  1  0.91160136  0.73135025  0.57740354  1
  O  O251  1  0.92175519  0.73548362  0.91752478  1
  O  O252  1  0.08255586  0.47412568  0.08633695  1
  O  O253  1  0.08430174  0.47417849  0.42030722  1
  O  O254  1  0.08424372  0.47204230  0.75189273  1
  O  O255  1  0.08488668  0.97478455  0.07827563  1
  O  O256  1  0.07965410  0.98773715  0.40938582  1
  O  O257  1  0.07455818  0.98451142  0.74605739  1
  O  O258  1  0.41560720  0.47606865  0.08608695  1
  O  O259  1  0.41474627  0.47864414  0.41783045  1
  O  O260  1  0.41578316  0.47354197  0.75780842  1
  O  O261  1  0.41657431  0.97870641  0.08518542  1
  O  O262  1  0.41772556  0.99867159  0.41520102  1
  O  O263  1  0.41830662  0.98547880  0.75753742  1
  O  O264  1  0.75256563  0.47424025  0.08317448  1
  O  O265  1  0.75303671  0.47657602  0.41498393  1
  O  O266  1  0.74777009  0.47951873  0.74428091  1
  O  O267  1  0.75510607  0.99820713  0.08394006  1
  O  O268  1  0.75515350  0.99519548  0.42179457  1
  O  O269  1  0.74697422  0.97965240  0.74146045  1
  O  O270  1  0.25014061  0.27049470  0.08749373  1
  O  O271  1  0.24740365  0.27378028  0.41907617  1
  O  O272  1  0.24875262  0.27313270  0.74460395  1
  O  O273  1  0.25259137  0.76976155  0.07484891  1
  O  O274  1  0.24935285  0.75260552  0.41595097  1
  O  O275  1  0.24058744  0.76009885  0.75971736  1
  O  O276  1  0.58388436  0.27802752  0.09078660  1
  O  O277  1  0.58698805  0.26969517  0.41852603  1
  O  O278  1  0.58088469  0.27324215  0.75608018  1
  O  O279  1  0.57622682  0.76152447  0.08626438  1
  O  O280  1  0.58699909  0.75599149  0.41964404  1
  O  O281  1  0.58561420  0.76955477  0.74646178  1
  O  O282  1  0.91968880  0.27124229  0.07717202  1
  O  O283  1  0.91504158  0.27230407  0.41337191  1
  O  O284  1  0.91102881  0.27613369  0.75273423  1
  O  O285  1  0.92731797  0.76236338  0.07637979  1
  O  O286  1  0.92503405  0.76352408  0.40898903  1
  O  O287  1  0.91617702  0.77306514  0.74677220  1
  O  O288  1  0.25123651  0.47782270  0.07778823  1
  O  O289  1  0.24899260  0.47814101  0.41738925  1
  O  O290  1  0.24935714  0.47558870  0.74820472  1
  O  O291  1  0.24845398  0.98450788  0.08385347  1
  O  O292  1  0.24821449  1.00059457  0.41859783  1
  O  O293  1  0.24119208  0.99148363  0.75478583  1
  O  O294  1  0.58488091  0.47530914  0.08941823  1
  O  O295  1  0.58556381  0.47709723  0.42074807  1
  O  O296  1  0.58167060  0.47664053  0.75229852  1
  O  O297  1  0.57411554  0.99048454  0.09350410  1
  O  O298  1  0.58684960  0.99461558  0.42057357  1
  O  O299  1  0.58203701  0.98064475  0.75136397  1
  O  O300  1  0.91592642  0.47278744  0.08359141  1
  O  O301  1  0.91792980  0.47190373  0.41014288  1
  O  O302  1  0.91618450  0.47727181  0.74800368  1
  O  O303  1  0.92839718  0.99010203  0.07317138  1
  O  O304  1  0.92034504  0.98797933  0.41682765  1
  O  O305  1  0.91100047  0.97442791  0.75444605  1
  O  O306  1  0.08105256  0.27978232  0.08011347  1
  O  O307  1  0.08354644  0.27344445  0.41202337  1
  O  O308  1  0.07815839  0.27065417  0.74372791  1
  O  O309  1  0.08805572  0.77233411  0.08348021  1
  O  O310  1  0.07982312  0.76305420  0.41572611  1
  O  O311  1  0.08003883  0.77182673  0.75292897  1
  O  O312  1  0.41655088  0.27506979  0.08708282  1
  O  O313  1  0.41173556  0.27024221  0.41215065  1
  O  O314  1  0.41311012  0.27574320  0.75469933  1
  O  O315  1  0.41555541  0.77227370  0.08478886  1
  O  O316  1  0.42373899  0.75492240  0.42211815  1
  O  O317  1  0.42163965  0.76737925  0.76427696  1
  O  O318  1  0.75036136  0.27205141  0.07869564  1
  O  O319  1  0.75001623  0.27492930  0.41464983  1
  O  O320  1  0.74593989  0.27421495  0.73905924  1
  O  O321  1  0.75642962  0.75189170  0.08586589  1
  O  O322  1  0.75902520  0.75325826  0.42387138  1
  O  O323  1  0.74932602  0.76873230  0.74593472  1
  O  O324  1  0.25436470  0.02247802  0.25158037  1
  O  O325  1  0.25175976  0.02478666  0.58633423  1
  O  O326  1  0.24186541  0.01700335  0.91279181  1
  O  O327  1  0.24700844  0.50195983  0.24797989  1
  O  O328  1  0.24899689  0.51123278  0.59040088  1
  O  O329  1  0.24485274  0.52314937  0.91035849  1
  O  O330  1  0.58626916  0.02258564  0.25376352  1
  O  O331  1  0.59635383  0.01445411  0.59268176  1
  O  O332  1  0.58167704  0.00533548  0.91719225  1
  O  O333  1  0.59265603  0.50546107  0.26022616  1
  O  O334  1  0.58737969  0.51433996  0.59059033  1
  O  O335  1  0.57868268  0.50111998  0.91651975  1
  O  O336  1  0.91526716  0.02052870  0.23930257  1
  O  O337  1  0.92196985  0.02008571  0.59064097  1
  O  O338  1  0.91910224  0.02795773  0.91354899  1
  O  O339  1  0.91327890  0.52129212  0.24716085  1
  O  O340  1  0.91162987  0.51599179  0.57766185  1
  O  O341  1  0.92389723  0.51269516  0.92225822  1
  O  O342  1  0.09424757  0.24041274  0.23845941  1
  O  O343  1  0.08919265  0.22939473  0.57926668  1
  O  O344  1  0.08032722  0.22597719  0.90815598  1
  O  O345  1  0.07213493  0.73985159  0.25586065  1
  O  O346  1  0.07172819  0.73663019  0.59282028  1
  O  O347  1  0.08157777  0.72871563  0.91798846  1
  O  O348  1  0.42142473  0.23227691  0.24683986  1
  O  O349  1  0.40959359  0.24051726  0.59110097  1
  O  O350  1  0.41238549  0.25095243  0.91789306  1
  O  O351  1  0.41993577  0.74809713  0.24851673  1
  O  O352  1  0.41390530  0.73218010  0.59419527  1
  O  O353  1  0.40354146  0.73477845  0.92641311  1
  O  O354  1  0.75157579  0.22624637  0.24784921  1
  O  O355  1  0.76011610  0.22688499  0.57785535  1
  O  O356  1  0.76062125  0.23730236  0.90304184  1
  O  O357  1  0.75038799  0.72903304  0.25688978  1
  O  O358  1  0.74575868  0.72689772  0.58680066  1
  O  O359  1  0.75142626  0.74690322  0.91277945  1
