# generated using pymatgen
data_Ba17Sr5La8Pr42Mn72O216
_symmetry_space_group_name_H-M   'P 1'
_cell_length_a   16.67410267
_cell_length_b   15.70306298
_cell_length_c   16.81513903
_cell_angle_alpha   90.01006338
_cell_angle_beta   89.95500172
_cell_angle_gamma   90.02046164
_symmetry_Int_Tables_number   1
_chemical_formula_structural   Ba17Sr5La8Pr42Mn72O216
_chemical_formula_sum   'Ba17 Sr5 La8 Pr42 Mn72 O216'
_cell_volume   4402.78155239
_cell_formula_units_Z   1
loop_
 _symmetry_equiv_pos_site_id
 _symmetry_equiv_pos_as_xyz
  1  'x, y, z'
loop_
 _atom_site_type_symbol
 _atom_site_label
 _atom_site_symmetry_multiplicity
 _atom_site_fract_x
 _atom_site_fract_y
 _atom_site_fract_z
 _atom_site_occupancy
  Ba  Ba0  1  0.83021094  0.62559477  0.50179819  1
  Ba  Ba1  1  0.16918948  0.37507538  0.83381777  1
  Ba  Ba2  1  0.16198689  0.62502657  0.17007891  1
  Ba  Ba3  1  0.00017480  0.12458254  0.66330401  1
  Ba  Ba4  1  0.66588261  0.37391365  0.33215403  1
  Ba  Ba5  1  0.66623681  0.12435686  0.66574639  1
  Ba  Ba6  1  0.33325650  0.12456070  0.66601862  1
  Ba  Ba7  1  0.82928958  0.12387593  0.50042122  1
  Ba  Ba8  1  0.33475837  0.37511107  0.00051942  1
  Ba  Ba9  1  0.49612077  0.12343138  0.16613355  1
  Ba  Ba10  1  -0.00003223  0.62521459  0.66417817  1
  Ba  Ba11  1  0.16622588  0.12474385  0.50211990  1
  Ba  Ba12  1  0.83375109  0.62529287  0.83306417  1
  Ba  Ba13  1  0.16484889  0.62586450  0.50217363  1
  Ba  Ba14  1  0.66557779  0.62541984  0.66486543  1
  Ba  Ba15  1  0.67269792  0.87464952  0.00064934  1
  Ba  Ba16  1  0.33420314  0.12461052  1.00143016  1
  Sr  Sr17  1  0.83846823  0.87411759  0.83214138  1
  Sr  Sr18  1  0.83953495  0.37214750  0.16519000  1
  Sr  Sr19  1  0.33415608  0.37578504  0.67170774  1
  Sr  Sr20  1  0.17031879  0.87651134  0.83031230  1
  Sr  Sr21  1  0.33366843  0.87457902  0.67014387  1
  La  La22  1  0.00394722  0.87398017  0.33586041  1
  La  La23  1  0.00583696  0.87343816  -0.00231589  1
  La  La24  1  0.66375824  0.62442626  0.99413429  1
  La  La25  1  0.33448786  0.87222042  0.33624847  1
  La  La26  1  0.33309668  0.37797305  0.33434122  1
  La  La27  1  -0.00214295  0.12589180  0.99520352  1
  La  La28  1  0.50126368  0.37245364  0.83099145  1
  La  La29  1  0.50408722  0.87497673  0.16210446  1
  Pr  Pr30  1  0.00052678  0.87478970  0.66524615  1
  Pr  Pr31  1  0.17236424  0.87650325  0.50716007  1
  Pr  Pr32  1  0.49618746  0.12447377  0.83661048  1
  Pr  Pr33  1  0.00316993  0.37693013  0.33587695  1
  Pr  Pr34  1  0.50078974  0.37363616  0.50094027  1
  Pr  Pr35  1  0.16703089  0.62660177  0.83536661  1
  Pr  Pr36  1  0.83468874  0.37415570  0.50216756  1
  Pr  Pr37  1  0.16710038  0.12491893  0.83115254  1
  Pr  Pr38  1  0.65762072  0.62301287  0.33288327  1
  Pr  Pr39  1  0.32525440  0.62701382  0.33222962  1
  Pr  Pr40  1  0.33088055  0.62508215  0.99784715  1
  Pr  Pr41  1  0.49905201  0.12718146  0.50123713  1
  Pr  Pr42  1  -0.01481388  0.62558996  0.33077503  1
  Pr  Pr43  1  0.83908092  0.37451895  0.83011743  1
  Pr  Pr44  1  0.33694522  0.87431293  0.00049006  1
  Pr  Pr45  1  0.50309065  0.87807988  0.82805944  1
  Pr  Pr46  1  0.00079429  0.37512565  0.66185394  1
  Pr  Pr47  1  0.82477700  0.62504721  0.16842217  1
  Pr  Pr48  1  0.00003232  0.62444288  0.99438658  1
  Pr  Pr49  1  -0.01388246  0.12523959  0.32963532  1
  Pr  Pr50  1  0.17025437  0.37643831  0.16176018  1
  Pr  Pr51  1  0.65715651  0.12686220  0.33173196  1
  Pr  Pr52  1  0.66995531  0.37461831  0.66533654  1
  Pr  Pr53  1  0.32499599  0.12344897  0.32852889  1
  Pr  Pr54  1  0.16219680  0.12793802  0.17276891  1
  Pr  Pr55  1  0.66827430  0.87780275  0.33400476  1
  Pr  Pr56  1  0.00769201  0.37728731  0.00230113  1
  Pr  Pr57  1  0.50157204  0.87509255  0.50160460  1
  Pr  Pr58  1  0.67664045  0.37633123  0.00585420  1
  Pr  Pr59  1  0.82136036  0.12514487  0.16866889  1
  Pr  Pr60  1  0.49342692  0.62589035  0.16720925  1
  Pr  Pr61  1  0.66178891  0.12601806  0.99448383  1
  Pr  Pr62  1  0.17200685  0.37375068  0.50653234  1
  Pr  Pr63  1  0.83480503  0.87500471  0.50577326  1
  Pr  Pr64  1  0.32907298  0.62534305  0.66860280  1
  Pr  Pr65  1  0.49657318  0.62565890  0.83471821  1
  Pr  Pr66  1  0.82704641  0.12223009  0.83399969  1
  Pr  Pr67  1  0.67292427  0.87476714  0.67152543  1
  Pr  Pr68  1  0.50609025  0.37484062  0.15999479  1
  Pr  Pr69  1  0.17369262  0.87454602  0.16250866  1
  Pr  Pr70  1  0.49536195  0.62239678  0.50299075  1
  Pr  Pr71  1  0.84404546  0.87655463  0.16052506  1
  Mn  Mn72  1  0.00104680  0.00139266  0.16538019  1
  Mn  Mn73  1  -0.00012009  -0.00208458  0.49750188  1
  Mn  Mn74  1  0.00128823  -0.00012497  0.83277932  1
  Mn  Mn75  1  -0.00370865  0.49977566  0.16734504  1
  Mn  Mn76  1  -0.00001313  0.49821684  0.49744029  1
  Mn  Mn77  1  0.00163664  0.49875546  0.83320972  1
  Mn  Mn78  1  0.33114805  -0.00189392  0.16765950  1
  Mn  Mn79  1  0.33532345  -0.00262683  0.49893929  1
  Mn  Mn80  1  0.33383574  -0.00046428  0.83376988  1
  Mn  Mn81  1  0.33418816  0.50143104  0.16869044  1
  Mn  Mn82  1  0.33371938  0.49959199  0.50269181  1
  Mn  Mn83  1  0.33554428  0.50145198  0.83356623  1
  Mn  Mn84  1  0.66582258  -0.00030834  0.16716879  1
  Mn  Mn85  1  0.66416594  -0.00361199  0.50034209  1
  Mn  Mn86  1  0.66806963  -0.00073228  0.83300179  1
  Mn  Mn87  1  0.66661065  0.50167667  0.16490632  1
  Mn  Mn88  1  0.66438014  0.49883777  0.49858664  1
  Mn  Mn89  1  0.66645995  0.49816340  0.83474963  1
  Mn  Mn90  1  -0.00060420  0.24929139  0.16543981  1
  Mn  Mn91  1  -0.00016229  0.25127224  0.49700291  1
  Mn  Mn92  1  0.00037792  0.24907321  0.83272035  1
  Mn  Mn93  1  -0.00170919  0.74959899  0.16664408  1
  Mn  Mn94  1  -0.00009994  0.75263667  0.49797840  1
  Mn  Mn95  1  0.00232893  0.75174354  0.83267712  1
  Mn  Mn96  1  0.33225399  0.25029398  0.16950103  1
  Mn  Mn97  1  0.33461805  0.25261753  0.49900982  1
  Mn  Mn98  1  0.33443424  0.24945884  0.83310851  1
  Mn  Mn99  1  0.33386018  0.75038671  0.16716055  1
  Mn  Mn100  1  0.33431580  0.74985552  0.50233683  1
  Mn  Mn101  1  0.33482250  0.75045398  0.83437432  1
  Mn  Mn102  1  0.66605754  0.25013242  0.16480127  1
  Mn  Mn103  1  0.66489717  0.25106759  0.49959712  1
  Mn  Mn104  1  0.66817885  0.25187405  0.83417230  1
  Mn  Mn105  1  0.66630745  0.74898885  0.16768312  1
  Mn  Mn106  1  0.66402762  0.75314602  0.49906287  1
  Mn  Mn107  1  0.66687785  0.74968645  0.83337865  1
  Mn  Mn108  1  0.16652503  0.24771448  0.00253664  1
  Mn  Mn109  1  0.16427907  0.25146724  0.33399419  1
  Mn  Mn110  1  0.16776688  0.25120348  0.66745659  1
  Mn  Mn111  1  0.16830679  0.75147428  -0.00056343  1
  Mn  Mn112  1  0.16404041  0.75094262  0.33475525  1
  Mn  Mn113  1  0.16768233  0.75186011  0.66946092  1
  Mn  Mn114  1  0.50267356  0.25134107  -0.00187079  1
  Mn  Mn115  1  0.49537015  0.25163983  0.33329064  1
  Mn  Mn116  1  0.50084770  0.25069452  0.66632372  1
  Mn  Mn117  1  0.50040871  0.74982885  -0.00017087  1
  Mn  Mn118  1  0.49940930  0.75010031  0.33282937  1
  Mn  Mn119  1  0.49914855  0.75009707  0.66624428  1
  Mn  Mn120  1  0.83591422  0.24891919  -0.00076860  1
  Mn  Mn121  1  0.83186408  0.25099020  0.33135720  1
  Mn  Mn122  1  0.83436386  0.25120646  0.66661153  1
  Mn  Mn123  1  0.83708644  0.75034714  0.00214075  1
  Mn  Mn124  1  0.82835933  0.75205548  0.33105112  1
  Mn  Mn125  1  0.83418471  0.75063485  0.66734671  1
  Mn  Mn126  1  0.16727470  -0.00059693  0.00056876  1
  Mn  Mn127  1  0.16392068  -0.00169862  0.33305366  1
  Mn  Mn128  1  0.16772835  -0.00228386  0.66826733  1
  Mn  Mn129  1  0.16758925  0.50163124  0.00200847  1
  Mn  Mn130  1  0.16400987  0.49935936  0.33514041  1
  Mn  Mn131  1  0.16759665  0.49956693  0.66841605  1
  Mn  Mn132  1  0.50156134  -0.00239996  -0.00158923  1
  Mn  Mn133  1  0.49718405  -0.00254930  0.33423598  1
  Mn  Mn134  1  0.49998138  -0.00061480  0.66509214  1
  Mn  Mn135  1  0.50182742  0.50083090  -0.00015744  1
  Mn  Mn136  1  0.49682380  0.50188627  0.33233205  1
  Mn  Mn137  1  0.50018759  0.50002128  0.66746866  1
  Mn  Mn138  1  0.83705785  0.00092263  0.00051155  1
  Mn  Mn139  1  0.82987922  -0.00083601  0.33029390  1
  Mn  Mn140  1  0.83494647  -0.00071407  0.66786812  1
  Mn  Mn141  1  0.83643126  0.49868126  0.00242264  1
  Mn  Mn142  1  0.83078358  0.49908831  0.33225505  1
  Mn  Mn143  1  0.83361515  0.49826617  0.66611321  1
  O  O144  1  0.15889915  0.12140967  0.02854613  1
  O  O145  1  0.17465439  0.12436278  0.34658457  1
  O  O146  1  0.16214409  0.12261248  0.68193748  1
  O  O147  1  0.16493661  0.62753928  0.01381030  1
  O  O148  1  0.17142753  0.62665140  0.34700551  1
  O  O149  1  0.16383462  0.62640153  0.68712323  1
  O  O150  1  0.50694405  0.12495649  0.00837213  1
  O  O151  1  0.49805618  0.11918450  0.35751877  1
  O  O152  1  0.50053810  0.12603870  0.69118962  1
  O  O153  1  0.50012977  0.62582103  0.02354102  1
  O  O154  1  0.50190781  0.62771195  0.35932568  1
  O  O155  1  0.49548506  0.62597390  0.69134833  1
  O  O156  1  0.84072172  0.12575546  0.02644532  1
  O  O157  1  0.83372779  0.12534585  0.34424103  1
  O  O158  1  0.83161489  0.12730711  0.68799918  1
  O  O159  1  0.84323205  0.62554355  0.02480247  1
  O  O160  1  0.83305802  0.62616669  0.34597159  1
  O  O161  1  0.83081185  0.62339072  0.67427757  1
  O  O162  1  0.16056182  0.37418567  0.30487419  1
  O  O163  1  0.17816853  0.37703903  0.65427667  1
  O  O164  1  0.16238356  0.37585295  0.99234022  1
  O  O165  1  0.16069205  0.87422309  0.30579205  1
  O  O166  1  0.17930330  0.87395429  0.65384784  1
  O  O167  1  0.16971888  0.87466517  0.97955631  1
  O  O168  1  0.49080571  0.38214164  0.30285129  1
  O  O169  1  0.50364484  0.37556777  0.64459032  1
  O  O170  1  0.50882653  0.37838649  0.97909312  1
  O  O171  1  0.49910762  0.87172653  0.30416869  1
  O  O172  1  0.50185783  0.87312628  0.64408538  1
  O  O173  1  0.49635959  0.87082436  0.97556674  1
  O  O174  1  0.84026758  0.37410648  0.31360916  1
  O  O175  1  0.84031354  0.37396073  0.64885233  1
  O  O176  1  0.82933842  0.37078814  0.97405625  1
  O  O177  1  0.82425760  0.87545371  0.30170699  1
  O  O178  1  0.83870602  0.87538945  0.65238782  1
  O  O179  1  0.84117850  0.87727122  0.98340815  1
  O  O180  1  0.00150971  0.37431302  0.19235743  1
  O  O181  1  -0.01516740  0.37447071  0.51123242  1
  O  O182  1  -0.00810290  0.37155374  0.85936783  1
  O  O183  1  -0.00715223  0.87947136  0.19247556  1
  O  O184  1  -0.01363634  0.87578583  0.51225400  1
  O  O185  1  -0.00153642  0.87684752  0.85620078  1
  O  O186  1  0.33282389  0.37576154  0.18794272  1
  O  O187  1  0.33575688  0.37894547  0.52200326  1
  O  O188  1  0.33726710  0.37767543  0.84273036  1
  O  O189  1  0.33174702  0.87365202  0.18960818  1
  O  O190  1  0.33473358  0.87138956  0.52020211  1
  O  O191  1  0.33276363  0.87277996  0.85708921  1
  O  O192  1  0.65739142  0.37728062  0.17584088  1
  O  O193  1  0.65196744  0.37468549  0.51756110  1
  O  O194  1  0.66525682  0.37444353  0.86282676  1
  O  O195  1  0.66095599  0.87301511  0.18959010  1
  O  O196  1  0.65068679  0.87470035  0.52518771  1
  O  O197  1  0.65955486  0.87479503  0.84532009  1
  O  O198  1  0.01005970  0.12352080  0.13888600  1
  O  O199  1  0.00342233  0.12319755  0.47612281  1
  O  O200  1  0.01406376  0.12425074  0.82032693  1
  O  O201  1  -0.00876426  0.62219984  0.13954847  1
  O  O202  1  0.00170448  0.62678503  0.47695263  1
  O  O203  1  0.01196346  0.62616357  0.82267888  1
  O  O204  1  0.32472256  0.12250354  0.15942861  1
  O  O205  1  0.34229458  0.12486522  0.47183004  1
  O  O206  1  0.34737943  0.12346595  0.82538147  1
  O  O207  1  0.33972713  0.62803905  0.14233058  1
  O  O208  1  0.34043445  0.62543754  0.47388432  1
  O  O209  1  0.34587260  0.62692509  0.81339660  1
  O  O210  1  0.67067279  0.12538889  0.14076039  1
  O  O211  1  0.66147934  0.12139307  0.47562477  1
  O  O212  1  0.67393080  0.12623275  0.82086163  1
  O  O213  1  0.67212119  0.62514941  0.13970963  1
  O  O214  1  0.66354538  0.62825203  0.47669530  1
  O  O215  1  0.66300915  0.62274370  0.82214985  1
  O  O216  1  0.07193377  0.02251823  0.25695693  1
  O  O217  1  0.08349334  -0.00926396  0.58550487  1
  O  O218  1  0.07883802  0.01498192  0.92478966  1
  O  O219  1  0.06585373  0.51718507  0.26016528  1
  O  O220  1  0.08388979  0.49196462  0.58188695  1
  O  O221  1  0.08405715  0.51540584  0.91922448  1
  O  O222  1  0.40395376  0.01078522  0.26162478  1
  O  O223  1  0.42142435  0.01333546  0.57610846  1
  O  O224  1  0.42209910  0.00532731  0.91300895  1
  O  O225  1  0.41111859  0.52895059  0.25713535  1
  O  O226  1  0.41310606  0.52283107  0.58765863  1
  O  O227  1  0.41456027  0.52222420  0.92384575  1
  O  O228  1  0.74005814  0.02250885  0.25693781  1
  O  O229  1  0.74625264  -0.00436607  0.58592897  1
  O  O230  1  0.74998298  0.02176744  0.92454944  1
  O  O231  1  0.73962921  0.52144209  0.25462172  1
  O  O232  1  0.74415522  0.49376146  0.58663661  1
  O  O233  1  0.74271170  0.51247229  0.92853827  1
  O  O234  1  0.24174143  0.23585316  0.24884859  1
  O  O235  1  0.25065689  0.24533833  0.57790743  1
  O  O236  1  0.24266729  0.23184878  0.91590074  1
  O  O237  1  0.25094665  0.73952468  0.25471486  1
  O  O238  1  0.25422447  0.73401545  0.59065120  1
  O  O239  1  0.25250616  0.72668523  0.91715683  1
  O  O240  1  0.57922641  0.23501610  0.25261446  1
  O  O241  1  0.57917696  0.23448098  0.57877276  1
  O  O242  1  0.58401967  0.22989317  0.91132493  1
  O  O243  1  0.57729754  0.72446192  0.24724533  1
  O  O244  1  0.57212819  0.73324949  0.57061330  1
  O  O245  1  0.57795709  0.72978229  0.91467414  1
  O  O246  1  0.91131616  0.22631770  0.23685633  1
  O  O247  1  0.91455192  0.24368495  0.57730723  1
  O  O248  1  0.91057875  0.22503320  0.90875285  1
  O  O249  1  0.90326426  0.73244940  0.24056877  1
  O  O250  1  0.91528091  0.74756020  0.57933122  1
  O  O251  1  0.92450010  0.73616048  0.92259994  1
  O  O252  1  0.08349286  0.48117613  0.09054375  1
  O  O253  1  0.08737482  0.47420391  0.42004636  1
  O  O254  1  0.07896243  0.48119427  0.74566840  1
  O  O255  1  0.09095943  0.97398639  0.09206712  1
  O  O256  1  0.08910047  0.97465427  0.42065429  1
  O  O257  1  0.08345250  0.97983426  0.75110309  1
  O  O258  1  0.43140139  0.48661891  0.09360276  1
  O  O259  1  0.41947968  0.48011707  0.42106351  1
  O  O260  1  0.42699759  0.48593131  0.75909699  1
  O  O261  1  0.41813899  0.97802508  0.08442721  1
  O  O262  1  0.42002105  0.97114955  0.41781566  1
  O  O263  1  0.42211123  0.98062250  0.75113473  1
  O  O264  1  0.75698016  0.48379680  0.08944517  1
  O  O265  1  0.75648617  0.48225614  0.42343441  1
  O  O266  1  0.75254475  0.47516720  0.75481436  1
  O  O267  1  0.76526435  0.98714688  0.09401022  1
  O  O268  1  0.74907103  0.97354964  0.42190561  1
  O  O269  1  0.75278477  0.98397083  0.75507704  1
  O  O270  1  0.24771043  0.26205762  0.09002949  1
  O  O271  1  0.25314990  0.27334403  0.41246894  1
  O  O272  1  0.24884886  0.24752600  0.75354758  1
  O  O273  1  0.25453781  0.77061208  0.07935830  1
  O  O274  1  0.25278428  0.77016670  0.41923411  1
  O  O275  1  0.25072869  0.75178752  0.75551162  1
  O  O276  1  0.58953791  0.26789266  0.07569142  1
  O  O277  1  0.57634130  0.26006004  0.41889894  1
  O  O278  1  0.58785626  0.27257915  0.74917642  1
  O  O279  1  0.58141554  0.76200852  0.08533882  1
  O  O280  1  0.58745558  0.77274908  0.40733346  1
  O  O281  1  0.58363280  0.76951951  0.74363665  1
  O  O282  1  0.92773267  0.26848067  0.07022925  1
  O  O283  1  0.92481936  0.26131512  0.40361113  1
  O  O284  1  0.91762589  0.26925760  0.74941001  1
  O  O285  1  0.92501621  0.77348079  0.07998430  1
  O  O286  1  0.91798280  0.76766929  0.40378573  1
  O  O287  1  0.92098176  0.76505737  0.74876772  1
  O  O288  1  0.25033512  0.48947656  0.08749339  1
  O  O289  1  0.25229007  0.47918878  0.42014298  1
  O  O290  1  0.25420391  0.50392702  0.75105535  1
  O  O291  1  0.25495162  0.97539953  0.07823835  1
  O  O292  1  0.25559434  0.97825865  0.41012234  1
  O  O293  1  0.24989719  0.99570492  0.75378132  1
  O  O294  1  0.59299686  0.48593657  0.07317035  1
  O  O295  1  0.58131056  0.48996323  0.41148291  1
  O  O296  1  0.58886973  0.47703313  0.74638987  1
  O  O297  1  0.58254479  0.98476600  0.08504833  1
  O  O298  1  0.58324727  0.97602429  0.41315719  1
  O  O299  1  0.58470403  0.98103344  0.74550369  1
  O  O300  1  0.92331139  0.47437529  0.07852353  1
  O  O301  1  0.92451585  0.48844065  0.40502533  1
  O  O302  1  0.91734513  0.48044911  0.75123155  1
  O  O303  1  0.92949715  0.98127174  0.07378469  1
  O  O304  1  0.92057167  0.98467059  0.40212203  1
  O  O305  1  0.92128468  0.98582188  0.74770446  1
  O  O306  1  0.08715938  0.27139081  0.09186845  1
  O  O307  1  0.08812174  0.27610354  0.41947815  1
  O  O308  1  0.07873404  0.26700311  0.74848249  1
  O  O309  1  0.08842409  0.77198561  0.08721102  1
  O  O310  1  0.08639513  0.77490975  0.42013865  1
  O  O311  1  0.08262055  0.77291762  0.74877530  1
  O  O312  1  0.42534020  0.26547798  0.09104860  1
  O  O313  1  0.41695079  0.27765777  0.41693486  1
  O  O314  1  0.42354831  0.26669303  0.75013265  1
  O  O315  1  0.41974403  0.77198566  0.08414481  1
  O  O316  1  0.42183063  0.77151681  0.41821524  1
  O  O317  1  0.42239124  0.76971153  0.75772425  1
  O  O318  1  0.75637358  0.26590892  0.08343999  1
  O  O319  1  0.75402408  0.26646401  0.42415423  1
  O  O320  1  0.75321458  0.27409458  0.75604362  1
  O  O321  1  0.76371559  0.76365596  0.09692299  1
  O  O322  1  0.75107471  0.77829946  0.41989428  1
  O  O323  1  0.75085622  0.76707447  0.75006495  1
  O  O324  1  0.23690374  0.01176076  0.24193389  1
  O  O325  1  0.25007893  0.00391875  0.57697892  1
  O  O326  1  0.24172523  0.01855538  0.91310421  1
  O  O327  1  0.25088174  0.51105801  0.25773691  1
  O  O328  1  0.25343777  0.51755525  0.58832070  1
  O  O329  1  0.25205666  0.52383330  0.91515041  1
  O  O330  1  0.58107408  0.01429722  0.25660418  1
  O  O331  1  0.57585491  0.01697689  0.57450051  1
  O  O332  1  0.58402911  0.01828362  0.91201154  1
  O  O333  1  0.57546500  0.52409481  0.24118725  1
  O  O334  1  0.57335147  0.51482195  0.57402908  1
  O  O335  1  0.57566173  0.52090833  0.91118964  1
  O  O336  1  0.90889751  0.02229928  0.23461918  1
  O  O337  1  0.91386959  0.00479138  0.57736061  1
  O  O338  1  0.91274407  0.02407696  0.91091738  1
  O  O339  1  0.90642905  0.52110526  0.24177266  1
  O  O340  1  0.91581403  0.50332521  0.57895923  1
  O  O341  1  0.92199140  0.51278282  0.92085299  1
  O  O342  1  0.07460700  0.22631469  0.25698394  1
  O  O343  1  0.08245269  0.25902717  0.58300118  1
  O  O344  1  0.07920870  0.23404472  0.92313259  1
  O  O345  1  0.06597538  0.73450543  0.25900631  1
  O  O346  1  0.08565684  0.75848780  0.58423290  1
  O  O347  1  0.08597321  0.73453257  0.91826981  1
  O  O348  1  0.40339914  0.23411862  0.26134248  1
  O  O349  1  0.42274825  0.23752128  0.57451904  1
  O  O350  1  0.42458029  0.24369906  0.91288721  1
  O  O351  1  0.41396472  0.72793110  0.25464099  1
  O  O352  1  0.41445503  0.72608587  0.58646613  1
  O  O353  1  0.41432486  0.72799060  0.92281688  1
  O  O354  1  0.74333751  0.22979406  0.25252702  1
  O  O355  1  0.74615607  0.25401490  0.58664083  1
  O  O356  1  0.74928028  0.22749638  0.92234347  1
  O  O357  1  0.73831870  0.72768982  0.25904716  1
  O  O358  1  0.74601063  0.75571517  0.58398562  1
  O  O359  1  0.74798643  0.73437566  0.92880130  1
