# generated using pymatgen
data_Ba17Sr5La8Pr42Mn72O216
_symmetry_space_group_name_H-M   'P 1'
_cell_length_a   16.67144507
_cell_length_b   15.70788437
_cell_length_c   16.81595748
_cell_angle_alpha   89.99283413
_cell_angle_beta   90.01684088
_cell_angle_gamma   89.98403119
_symmetry_Int_Tables_number   1
_chemical_formula_structural   Ba17Sr5La8Pr42Mn72O216
_chemical_formula_sum   'Ba17 Sr5 La8 Pr42 Mn72 O216'
_cell_volume   4403.64704643
_cell_formula_units_Z   1
loop_
 _symmetry_equiv_pos_site_id
 _symmetry_equiv_pos_as_xyz
  1  'x, y, z'
loop_
 _atom_site_type_symbol
 _atom_site_label
 _atom_site_symmetry_multiplicity
 _atom_site_fract_x
 _atom_site_fract_y
 _atom_site_fract_z
 _atom_site_occupancy
  Ba  Ba0  1  0.83265056  0.87527201  0.83358545  1
  Ba  Ba1  1  0.33391197  0.87352311  -0.00081696  1
  Ba  Ba2  1  0.83595218  0.62294976  0.49904693  1
  Ba  Ba3  1  0.16512377  0.12779530  0.16754740  1
  Ba  Ba4  1  0.16811516  0.87280225  0.83401599  1
  Ba  Ba5  1  0.33429448  0.12590597  0.66428554  1
  Ba  Ba6  1  0.66503796  0.37587446  0.66781372  1
  Ba  Ba7  1  -0.00025528  0.87333105  0.00054677  1
  Ba  Ba8  1  0.66742529  0.62111988  0.33382024  1
  Ba  Ba9  1  0.83374551  0.87643392  0.16605409  1
  Ba  Ba10  1  0.66624745  0.87389171  0.66809390  1
  Ba  Ba11  1  0.33337636  0.37709208  -0.00025845  1
  Ba  Ba12  1  0.00272388  0.87527978  0.66944957  1
  Ba  Ba13  1  -0.00091799  0.12652574  0.66744475  1
  Ba  Ba14  1  0.83284846  0.12684656  0.83406747  1
  Ba  Ba15  1  0.49913021  0.87528847  0.16414343  1
  Ba  Ba16  1  0.66751486  0.87462353  0.00248250  1
  Sr  Sr17  1  0.16471871  0.37667569  0.83331766  1
  Sr  Sr18  1  -0.00157979  0.37536711  0.00103247  1
  Sr  Sr19  1  0.83042966  0.12639701  0.16567248  1
  Sr  Sr20  1  0.66512286  0.37278465  0.33993676  1
  Sr  Sr21  1  0.50031838  0.12594973  0.50180590  1
  La  La22  1  0.33541226  0.62536909  0.33110311  1
  La  La23  1  0.32820576  0.87594271  0.33012250  1
  La  La24  1  -0.00178614  0.62374557  1.00198917  1
  La  La25  1  0.50318051  0.12673985  0.83224165  1
  La  La26  1  0.49602631  0.37160528  0.49566472  1
  La  La27  1  0.66793327  0.12115290  1.00185347  1
  La  La28  1  -0.00391650  0.12494595  0.99724937  1
  La  La29  1  -0.00057680  0.37310901  0.33171148  1
  Pr  Pr30  1  0.32709798  0.37419764  0.33323965  1
  Pr  Pr31  1  0.66665286  0.12345444  0.66604555  1
  Pr  Pr32  1  0.16670900  0.12622877  0.50398404  1
  Pr  Pr33  1  0.66980820  0.87905111  0.33820230  1
  Pr  Pr34  1  0.49432901  0.12422297  0.16299295  1
  Pr  Pr35  1  0.83379077  0.62957635  0.17281945  1
  Pr  Pr36  1  0.33022209  0.37371921  0.67022185  1
  Pr  Pr37  1  0.16812444  0.87691494  0.50122109  1
  Pr  Pr38  1  0.33373466  0.87649830  0.66928309  1
  Pr  Pr39  1  0.00305889  0.87649751  0.33402799  1
  Pr  Pr40  1  0.49495952  0.37449953  0.82803192  1
  Pr  Pr41  1  0.49921189  0.87997540  0.49397584  1
  Pr  Pr42  1  0.16425741  0.12365439  0.83840636  1
  Pr  Pr43  1  0.83418138  0.37396151  0.83143512  1
  Pr  Pr44  1  0.65556353  0.12805657  0.33147791  1
  Pr  Pr45  1  0.50266270  0.37652263  0.16595327  1
  Pr  Pr46  1  0.15965012  0.37781210  0.15941834  1
  Pr  Pr47  1  0.49968008  0.87561409  0.83014243  1
  Pr  Pr48  1  0.67725748  0.62574539  0.66140545  1
  Pr  Pr49  1  0.33437363  0.12349445  0.99214510  1
  Pr  Pr50  1  -0.00111992  0.37802817  0.67183343  1
  Pr  Pr51  1  0.84294669  0.87628010  0.49816437  1
  Pr  Pr52  1  0.50109057  0.62696082  0.16662012  1
  Pr  Pr53  1  0.83765459  0.37306068  0.49815772  1
  Pr  Pr54  1  -0.00000286  0.62157279  0.32844036  1
  Pr  Pr55  1  0.00453700  0.62818833  0.66602919  1
  Pr  Pr56  1  0.16887092  0.62540743  0.83395932  1
  Pr  Pr57  1  0.82589534  0.12753046  0.50583527  1
  Pr  Pr58  1  0.67043890  0.62717371  1.00385145  1
  Pr  Pr59  1  0.83428242  0.62582838  0.83208840  1
  Pr  Pr60  1  0.82829815  0.37720297  0.16741360  1
  Pr  Pr61  1  0.16976579  0.62361830  0.50231252  1
  Pr  Pr62  1  0.16467620  0.37270654  0.50122216  1
  Pr  Pr63  1  0.50724752  0.62310642  0.83391264  1
  Pr  Pr64  1  0.16510405  0.87264977  0.15710699  1
  Pr  Pr65  1  0.50908940  0.62492479  0.50328760  1
  Pr  Pr66  1  0.33248218  0.12466756  0.33125662  1
  Pr  Pr67  1  -0.00811017  0.12619890  0.32900681  1
  Pr  Pr68  1  0.17212835  0.62302357  0.16524328  1
  Pr  Pr69  1  0.33591815  0.62545183  0.66220352  1
  Pr  Pr70  1  0.66786830  0.37096732  0.00123124  1
  Pr  Pr71  1  0.33910880  0.62635578  0.99564362  1
  Mn  Mn72  1  -0.00155955  0.00306909  0.16778596  1
  Mn  Mn73  1  0.00181629  0.00092298  0.49703565  1
  Mn  Mn74  1  0.00070621  0.00106131  0.83387880  1
  Mn  Mn75  1  -0.00154227  0.49867103  0.16631447  1
  Mn  Mn76  1  0.00309521  0.49910432  0.50048240  1
  Mn  Mn77  1  0.00037221  0.50019287  0.83441518  1
  Mn  Mn78  1  0.33090176  0.00225854  0.16475197  1
  Mn  Mn79  1  0.33262899  -0.00138487  0.49797254  1
  Mn  Mn80  1  0.33432379  0.00019192  0.83049369  1
  Mn  Mn81  1  0.33472499  0.49924580  0.16766354  1
  Mn  Mn82  1  0.33312181  0.49995432  0.49862536  1
  Mn  Mn83  1  0.33437853  0.50090026  0.83063093  1
  Mn  Mn84  1  0.66506673  0.00409013  0.16937258  1
  Mn  Mn85  1  0.66689046  0.00077951  0.50026092  1
  Mn  Mn86  1  0.66497235  0.00085037  0.83302088  1
  Mn  Mn87  1  0.66631670  0.49656466  0.16685108  1
  Mn  Mn88  1  0.66595960  0.49758417  0.50077881  1
  Mn  Mn89  1  0.66665278  0.50058032  0.83571269  1
  Mn  Mn90  1  -0.00312662  0.25130780  0.16573854  1
  Mn  Mn91  1  0.00104830  0.25066309  0.49841439  1
  Mn  Mn92  1  0.00205322  0.25364108  0.83550294  1
  Mn  Mn93  1  0.00152802  0.74649063  0.16885007  1
  Mn  Mn94  1  0.00324385  0.74898420  0.49814235  1
  Mn  Mn95  1  0.00021668  0.74584236  0.83290010  1
  Mn  Mn96  1  0.33336596  0.25187835  0.16612431  1
  Mn  Mn97  1  0.33165452  0.25181207  0.49866251  1
  Mn  Mn98  1  0.33211204  0.25127149  0.83224471  1
  Mn  Mn99  1  0.33294809  0.74702541  0.16602197  1
  Mn  Mn100  1  0.33409124  0.74960388  0.49777229  1
  Mn  Mn101  1  0.33728661  0.74752868  0.82913983  1
  Mn  Mn102  1  0.66523303  0.25154396  0.16952531  1
  Mn  Mn103  1  0.66444052  0.25039370  0.49999923  1
  Mn  Mn104  1  0.66499043  0.25176918  0.83604937  1
  Mn  Mn105  1  0.66601376  0.74860152  0.16952579  1
  Mn  Mn106  1  0.66719137  0.75182277  0.50120817  1
  Mn  Mn107  1  0.66605229  0.74674773  0.83287667  1
  Mn  Mn108  1  0.16685527  0.25278356  0.00051406  1
  Mn  Mn109  1  0.16571018  0.25135709  0.33444145  1
  Mn  Mn110  1  0.16576567  0.25193172  0.66816444  1
  Mn  Mn111  1  0.16821294  0.74533985  0.00055779  1
  Mn  Mn112  1  0.16609140  0.74818875  0.33240383  1
  Mn  Mn113  1  0.17027066  0.74693561  0.66551727  1
  Mn  Mn114  1  0.50095958  0.25246001  -0.00071583  1
  Mn  Mn115  1  0.49534443  0.24931849  0.33113084  1
  Mn  Mn116  1  0.49960087  0.25067091  0.66416151  1
  Mn  Mn117  1  0.50217888  0.74646532  -0.00098729  1
  Mn  Mn118  1  0.49962813  0.75074656  0.33453911  1
  Mn  Mn119  1  0.49963157  0.74809051  0.66585476  1
  Mn  Mn120  1  0.83336329  0.25337578  0.00217611  1
  Mn  Mn121  1  0.83111809  0.24950964  0.33486900  1
  Mn  Mn122  1  0.83275595  0.25158648  0.66628840  1
  Mn  Mn123  1  0.83359887  0.74594328  0.00289816  1
  Mn  Mn124  1  0.83450957  0.75160917  0.33424063  1
  Mn  Mn125  1  0.83589857  0.74927633  0.66590727  1
  Mn  Mn126  1  0.16668466  0.00142021  0.00226774  1
  Mn  Mn127  1  0.16564037  -0.00061786  0.33362777  1
  Mn  Mn128  1  0.16784231  0.00188431  0.66689167  1
  Mn  Mn129  1  0.16730227  0.50068259  -0.00125157  1
  Mn  Mn130  1  0.16640968  0.49965048  0.33353930  1
  Mn  Mn131  1  0.16798626  0.49993615  0.66658087  1
  Mn  Mn132  1  0.49990930  0.00222941  -0.00148647  1
  Mn  Mn133  1  0.49804987  0.00134301  0.33171885  1
  Mn  Mn134  1  0.50019418  0.00000189  0.66369922  1
  Mn  Mn135  1  0.50344571  0.49843333  -0.00067782  1
  Mn  Mn136  1  0.49679126  0.49984553  0.33291070  1
  Mn  Mn137  1  0.49867748  0.50126481  0.66621824  1
  Mn  Mn138  1  0.83373104  0.00157834  0.00259120  1
  Mn  Mn139  1  0.83280689  0.00213164  0.33549637  1
  Mn  Mn140  1  0.83292061  0.00192248  0.66601312  1
  Mn  Mn141  1  0.83207275  0.49920011  0.00107765  1
  Mn  Mn142  1  0.83408768  0.49666414  0.33379511  1
  Mn  Mn143  1  0.83569506  0.49790560  0.66774249  1
  O  O144  1  0.17428153  0.12859975  0.01069433  1
  O  O145  1  0.17176668  0.12982385  0.36140046  1
  O  O146  1  0.16811045  0.13232560  0.68947446  1
  O  O147  1  0.17688180  0.62194875  0.02045735  1
  O  O148  1  0.16587310  0.62375743  0.36191217  1
  O  O149  1  0.17091047  0.62109852  0.68809052  1
  O  O150  1  0.49682121  0.13163180  0.01953212  1
  O  O151  1  0.49202116  0.12481689  0.35383909  1
  O  O152  1  0.50480342  0.12663395  0.68670588  1
  O  O153  1  0.50003573  0.61906255  0.02272768  1
  O  O154  1  0.48947111  0.62861035  0.36022333  1
  O  O155  1  0.48851491  0.62450791  0.69115405  1
  O  O156  1  0.83600777  0.13306514  0.01527584  1
  O  O157  1  0.84059760  0.12640778  0.36272333  1
  O  O158  1  0.82715155  0.12944190  0.67398277  1
  O  O159  1  0.83111368  0.61819429  0.02863333  1
  O  O160  1  0.84253535  0.62250578  0.34206321  1
  O  O161  1  0.83252088  0.61930589  0.68490698  1
  O  O162  1  0.16875147  0.37718110  0.30321201  1
  O  O163  1  0.16686859  0.37801554  0.64321212  1
  O  O164  1  0.16266976  0.37946090  0.98375144  1
  O  O165  1  0.16492251  0.86792263  0.30174663  1
  O  O166  1  0.17500587  0.86929670  0.64521958  1
  O  O167  1  0.16548880  0.86915654  0.99377977  1
  O  O168  1  0.49290308  0.37128082  0.30927821  1
  O  O169  1  0.49413399  0.37791694  0.64088044  1
  O  O170  1  0.50833581  0.37609902  0.97029382  1
  O  O171  1  0.50917789  0.87641020  0.32090292  1
  O  O172  1  0.49595397  0.87052654  0.63856291  1
  O  O173  1  0.50109074  0.87254321  0.97577311  1
  O  O174  1  0.83498929  0.37227119  0.31173032  1
  O  O175  1  0.84268303  0.37472366  0.64352852  1
  O  O176  1  0.82573616  0.37876021  0.97334727  1
  O  O177  1  0.83456367  0.87787653  0.32211264  1
  O  O178  1  0.83543842  0.87724251  0.64445951  1
  O  O179  1  0.83250452  0.86816561  0.99264379  1
  O  O180  1  0.00850531  0.37600481  0.18804844  1
  O  O181  1  0.00224281  0.37651070  0.52713247  1
  O  O182  1  -0.00131100  0.37881668  0.85261101  1
  O  O183  1  0.01109362  0.87023077  0.18888585  1
  O  O184  1  -0.00145644  0.87414574  0.51249190  1
  O  O185  1  0.00162505  0.86845949  0.84200821  1
  O  O186  1  0.34183906  0.37670779  0.19162749  1
  O  O187  1  0.33244763  0.37938225  0.52617559  1
  O  O188  1  0.34087098  0.37691158  0.84455176  1
  O  O189  1  0.32542223  0.87031702  0.18675366  1
  O  O190  1  0.33119102  0.86891769  0.52570229  1
  O  O191  1  0.34172304  0.87235350  0.84331096  1
  O  O192  1  0.66524354  0.37328160  0.19156743  1
  O  O193  1  0.65457528  0.37388953  0.51002329  1
  O  O194  1  0.66546329  0.37803188  0.85861066  1
  O  O195  1  0.66500497  0.88003558  0.19183830  1
  O  O196  1  0.65418399  0.87749968  0.51114109  1
  O  O197  1  0.65801897  0.87194040  0.84473148  1
  O  O198  1  -0.00383096  0.13284697  0.14490791  1
  O  O199  1  0.01068760  0.12672303  0.47154909  1
  O  O200  1  0.00743086  0.13111808  0.82700120  1
  O  O201  1  -0.01225812  0.61942446  0.15088660  1
  O  O202  1  0.01039690  0.62273205  0.47144769  1
  O  O203  1  -0.00603101  0.61990078  0.80897419  1
  O  O204  1  0.33601088  0.13248799  0.13878182  1
  O  O205  1  0.32399510  0.12758756  0.47392352  1
  O  O206  1  0.33050488  0.12764591  0.82143313  1
  O  O207  1  0.33109138  0.62091290  0.14278460  1
  O  O208  1  0.32793356  0.62458891  0.47142302  1
  O  O209  1  0.33826707  0.62312701  0.80530564  1
  O  O210  1  0.66295479  0.13130937  0.14758527  1
  O  O211  1  0.67455513  0.12556993  0.47470774  1
  O  O212  1  0.65878916  0.12917876  0.81081736  1
  O  O213  1  0.66547530  0.61645541  0.14865792  1
  O  O214  1  0.66345790  0.62326342  0.49141259  1
  O  O215  1  0.66105948  0.62086416  0.80556009  1
  O  O216  1  0.07238775  0.01722161  0.26194803  1
  O  O217  1  0.08684147  0.01273812  0.57706337  1
  O  O218  1  0.08516222  0.01861762  0.92130966  1
  O  O219  1  0.08834147  0.52232222  0.24756194  1
  O  O220  1  0.09113896  0.52156697  0.57797354  1
  O  O221  1  0.08614592  0.52526452  0.91060632  1
  O  O222  1  0.41283114  0.01943428  0.24721742  1
  O  O223  1  0.42031794  0.00805491  0.57503186  1
  O  O224  1  0.41932692  0.02060723  0.91207380  1
  O  O225  1  0.41700912  0.52474324  0.24898747  1
  O  O226  1  0.41996695  0.52397302  0.57418475  1
  O  O227  1  0.42184315  0.52073715  0.91317520  1
  O  O228  1  0.73830805  0.01800756  0.26757606  1
  O  O229  1  0.74667708  0.02061111  0.58361449  1
  O  O230  1  0.74401440  0.01415493  0.92204216  1
  O  O231  1  0.76040793  0.51023031  0.23890489  1
  O  O232  1  0.75152003  0.50787373  0.58815312  1
  O  O233  1  0.75173210  0.52659173  0.91739090  1
  O  O234  1  0.25599656  0.23715926  0.26114848  1
  O  O235  1  0.24577206  0.24003531  0.57720912  1
  O  O236  1  0.25203221  0.23540884  0.91771234  1
  O  O237  1  0.24950258  0.72350971  0.25302506  1
  O  O238  1  0.25253481  0.72433855  0.57970197  1
  O  O239  1  0.25556214  0.72577611  0.91189598  1
  O  O240  1  0.57533841  0.22970257  0.24660843  1
  O  O241  1  0.58600026  0.23080353  0.58477127  1
  O  O242  1  0.58284361  0.22846990  0.91887961  1
  O  O243  1  0.57759160  0.73097014  0.24978134  1
  O  O244  1  0.58511204  0.72508294  0.59172401  1
  O  O245  1  0.58724173  0.72295790  0.91915576  1
  O  O246  1  0.91292650  0.23543194  0.25166932  1
  O  O247  1  0.91085554  0.23705347  0.56948818  1
  O  O248  1  0.92184727  0.24367292  0.92255140  1
  O  O249  1  0.92185809  0.73406215  0.25375052  1
  O  O250  1  0.92575703  0.73252026  0.58545312  1
  O  O251  1  0.91620377  0.72317041  0.91881325  1
  O  O252  1  0.07801901  0.49254855  0.08367341  1
  O  O253  1  0.08127348  0.47436398  0.41246524  1
  O  O254  1  0.07844508  0.48734097  0.74104114  1
  O  O255  1  0.08733117  0.98928611  0.09032145  1
  O  O256  1  0.08847243  0.97480414  0.41809355  1
  O  O257  1  0.09001929  0.99753424  0.75440169  1
  O  O258  1  0.42466788  0.48487496  0.08665670  1
  O  O259  1  0.40768326  0.47590319  0.41260216  1
  O  O260  1  0.41128610  0.47886406  0.74145544  1
  O  O261  1  0.41505571  0.99784256  0.07852833  1
  O  O262  1  0.41355351  0.97808893  0.41223763  1
  O  O263  1  0.41782254  0.98052526  0.74532359  1
  O  O264  1  0.74555386  0.47446269  0.07945735  1
  O  O265  1  0.75326362  0.48045340  0.41587558  1
  O  O266  1  0.75395676  0.48518890  0.75855579  1
  O  O267  1  0.74915558  1.00130491  0.08859050  1
  O  O268  1  0.75714142  0.97801055  0.42606384  1
  O  O269  1  0.74339141  0.99762204  0.74896410  1
  O  O270  1  0.24464157  0.27258629  0.09221085  1
  O  O271  1  0.24658545  0.27852703  0.41863598  1
  O  O272  1  0.25022291  0.27206797  0.74807973  1
  O  O273  1  0.24644629  0.75802325  0.09079766  1
  O  O274  1  0.24832762  0.77331575  0.41513041  1
  O  O275  1  0.25859772  0.75832809  0.74070071  1
  O  O276  1  0.58519575  0.27304264  0.08075108  1
  O  O277  1  0.57926216  0.25937985  0.41464170  1
  O  O278  1  0.57589785  0.26736412  0.75951441  1
  O  O279  1  0.58235446  0.75026365  0.08405020  1
  O  O280  1  0.57797036  0.76377759  0.42194196  1
  O  O281  1  0.57181488  0.75944865  0.75920269  1
  O  O282  1  0.91218974  0.27604768  0.08758782  1
  O  O283  1  0.92121077  0.27329326  0.41298399  1
  O  O284  1  0.91816978  0.27173821  0.75017456  1
  O  O285  1  0.91931902  0.75006417  0.08525327  1
  O  O286  1  0.91811045  0.76877914  0.41648961  1
  O  O287  1  0.91616477  0.74991901  0.74996806  1
  O  O288  1  0.24353632  0.48485205  0.09572631  1
  O  O289  1  0.24449272  0.47679186  0.42105352  1
  O  O290  1  0.24831688  0.48225894  0.74815416  1
  O  O291  1  0.24590306  0.98565777  0.08842182  1
  O  O292  1  0.24964381  0.97281169  0.41560518  1
  O  O293  1  0.25646035  0.98546101  0.74328100  1
  O  O294  1  0.58473199  0.47443120  0.08171833  1
  O  O295  1  0.57158956  0.48756705  0.42061150  1
  O  O296  1  0.57159950  0.48532070  0.76195549  1
  O  O297  1  0.58162565  0.99992105  0.08220470  1
  O  O298  1  0.58819835  0.98935738  0.41256124  1
  O  O299  1  0.57452987  0.98770870  0.75634040  1
  O  O300  1  0.90882740  0.47836911  0.09002090  1
  O  O301  1  0.91727200  0.47653827  0.42226360  1
  O  O302  1  0.91417481  0.47746989  0.75479132  1
  O  O303  1  0.92041642  0.99724156  0.08333275  1
  O  O304  1  0.92548451  0.98285061  0.40863336  1
  O  O305  1  0.91653060  0.99642320  0.74753074  1
  O  O306  1  0.08255521  0.26763817  0.08357455  1
  O  O307  1  0.08484943  0.27704272  0.41766905  1
  O  O308  1  0.08107267  0.27332869  0.74743135  1
  O  O309  1  0.08683018  0.74864542  0.09291257  1
  O  O310  1  0.08529369  0.77432138  0.41394314  1
  O  O311  1  0.08785781  0.74604688  0.74969409  1
  O  O312  1  0.42581435  0.26939869  0.08785678  1
  O  O313  1  0.40919943  0.27197338  0.41086201  1
  O  O314  1  0.41471359  0.26887740  0.74635741  1
  O  O315  1  0.41535421  0.74966093  0.07891941  1
  O  O316  1  0.41374276  0.77652386  0.41435939  1
  O  O317  1  0.41626736  0.77210214  0.74338009  1
  O  O318  1  0.75100189  0.27290803  0.08954497  1
  O  O319  1  0.75724346  0.26796329  0.42637041  1
  O  O320  1  0.75239702  0.26861741  0.76002818  1
  O  O321  1  0.74974777  0.74823232  0.08553898  1
  O  O322  1  0.75018361  0.77158835  0.41614849  1
  O  O323  1  0.74777280  0.74897639  0.75065144  1
  O  O324  1  0.25324874  0.01543022  0.25839768  1
  O  O325  1  0.24487064  0.01298351  0.57450332  1
  O  O326  1  0.25080162  0.01655691  0.91645333  1
  O  O327  1  0.25323866  0.52044309  0.25747178  1
  O  O328  1  0.25558329  0.52198050  0.58474803  1
  O  O329  1  0.25634860  0.52264420  0.91398683  1
  O  O330  1  0.57754221  0.02709648  0.24861038  1
  O  O331  1  0.58618476  0.02062148  0.58477745  1
  O  O332  1  0.58185798  0.02315182  0.91628330  1
  O  O333  1  0.57626824  0.51197987  0.24285040  1
  O  O334  1  0.58382849  0.52341938  0.59316472  1
  O  O335  1  0.58890314  0.52512935  0.92159113  1
  O  O336  1  0.91169919  0.01996296  0.25034201  1
  O  O337  1  0.90991158  0.01429757  0.56673030  1
  O  O338  1  0.92062710  0.01250112  0.92128255  1
  O  O339  1  0.92490240  0.50824414  0.25724710  1
  O  O340  1  0.93035963  0.51498204  0.59259875  1
  O  O341  1  0.91680269  0.52180766  0.92205542  1
  O  O342  1  0.07546294  0.23665700  0.26008948  1
  O  O343  1  0.08739656  0.23710751  0.57662406  1
  O  O344  1  0.08843100  0.23430131  0.91588779  1
  O  O345  1  0.08471265  0.71888435  0.25221088  1
  O  O346  1  0.08947493  0.72748498  0.57985258  1
  O  O347  1  0.08349440  0.72179695  0.91689033  1
  O  O348  1  0.41421552  0.22494095  0.24879401  1
  O  O349  1  0.41900763  0.24147684  0.57281047  1
  O  O350  1  0.41806670  0.23282860  0.91562657  1
  O  O351  1  0.41476352  0.73119681  0.24954876  1
  O  O352  1  0.41934821  0.72438348  0.57757103  1
  O  O353  1  0.42221001  0.72539864  0.91149595  1
  O  O354  1  0.74215068  0.23083708  0.26212677  1
  O  O355  1  0.74474541  0.23493978  0.58516598  1
  O  O356  1  0.74075596  0.23923459  0.92729118  1
  O  O357  1  0.75449254  0.73659632  0.24955408  1
  O  O358  1  0.75169836  0.73910598  0.58493658  1
  O  O359  1  0.75121071  0.72352380  0.91606559  1
