# generated using pymatgen
data_Ba17Sr5La8Pr42Mn72O216
_symmetry_space_group_name_H-M   'P 1'
_cell_length_a   16.67605302
_cell_length_b   15.70555218
_cell_length_c   16.82610752
_cell_angle_alpha   90.00203666
_cell_angle_beta   90.02535224
_cell_angle_gamma   90.02823376
_symmetry_Int_Tables_number   1
_chemical_formula_structural   Ba17Sr5La8Pr42Mn72O216
_chemical_formula_sum   'Ba17 Sr5 La8 Pr42 Mn72 O216'
_cell_volume   4406.86799371
_cell_formula_units_Z   1
loop_
 _symmetry_equiv_pos_site_id
 _symmetry_equiv_pos_as_xyz
  1  'x, y, z'
loop_
 _atom_site_type_symbol
 _atom_site_label
 _atom_site_symmetry_multiplicity
 _atom_site_fract_x
 _atom_site_fract_y
 _atom_site_fract_z
 _atom_site_occupancy
  Ba  Ba0  1  0.67089908  0.37609308  0.66703225  1
  Ba  Ba1  1  -0.00287975  0.12846801  0.99937231  1
  Ba  Ba2  1  0.00052267  0.87615228  0.66519098  1
  Ba  Ba3  1  -0.00020271  0.87385159  0.33211348  1
  Ba  Ba4  1  0.66249428  0.12452034  0.33228610  1
  Ba  Ba5  1  0.50159814  0.62452558  0.83540980  1
  Ba  Ba6  1  0.82965999  0.12471466  0.16630904  1
  Ba  Ba7  1  0.16599990  0.62548313  0.83293208  1
  Ba  Ba8  1  0.16722278  0.87535451  0.49778595  1
  Ba  Ba9  1  0.16561934  0.87406466  0.83282814  1
  Ba  Ba10  1  0.50011663  0.12531262  0.83575604  1
  Ba  Ba11  1  0.33486351  0.37789476  0.33379609  1
  Ba  Ba12  1  0.49892039  0.12454837  0.50278867  1
  Ba  Ba13  1  0.66482696  0.12375785  1.00060401  1
  Ba  Ba14  1  0.33517052  0.62506608  0.66786446  1
  Ba  Ba15  1  -0.00120259  0.12563908  0.66596412  1
  Ba  Ba16  1  0.83224186  0.87241592  0.16562097  1
  Sr  Sr17  1  0.00157042  0.62460759  0.33380446  1
  Sr  Sr18  1  0.32989239  0.12445247  0.66633763  1
  Sr  Sr19  1  -0.00440365  0.12561814  0.32960636  1
  Sr  Sr20  1  0.00113321  0.37687652  0.33326747  1
  Sr  Sr21  1  0.33064779  0.62528658  0.33428152  1
  La  La22  1  0.66524262  0.87523405  -0.00089102  1
  La  La23  1  0.16216650  0.12655631  0.49752559  1
  La  La24  1  0.50015868  0.62090460  0.50724992  1
  La  La25  1  0.15666535  0.12696371  0.16883056  1
  La  La26  1  0.17029890  0.37663763  0.16580153  1
  La  La27  1  0.49755118  0.62600942  0.17169120  1
  La  La28  1  0.50234677  0.37512903  0.17034013  1
  La  La29  1  0.16477273  0.62361033  0.50042456  1
  Pr  Pr30  1  0.49371957  0.12404710  0.17432465  1
  Pr  Pr31  1  0.66873400  0.62651119  0.33291772  1
  Pr  Pr32  1  0.83799696  0.37284003  0.82982662  1
  Pr  Pr33  1  0.16675356  0.87481691  0.16140247  1
  Pr  Pr34  1  0.00692847  0.37856063  0.00420396  1
  Pr  Pr35  1  0.50070646  0.87429757  0.16944235  1
  Pr  Pr36  1  0.49379230  0.87499756  0.50169031  1
  Pr  Pr37  1  0.33877970  0.87208498  0.00008557  1
  Pr  Pr38  1  -0.00616616  0.62515344  0.99907713  1
  Pr  Pr39  1  0.32991688  0.62527971  0.99285677  1
  Pr  Pr40  1  0.50377240  0.37467506  0.50098432  1
  Pr  Pr41  1  0.33245083  0.87443934  0.33618812  1
  Pr  Pr42  1  0.00629268  0.37698649  0.66680058  1
  Pr  Pr43  1  0.17164957  0.37399250  0.49672857  1
  Pr  Pr44  1  0.33468734  0.87828990  0.67037168  1
  Pr  Pr45  1  0.83187664  0.12728368  0.83698447  1
  Pr  Pr46  1  0.83489421  0.62222419  0.82977758  1
  Pr  Pr47  1  0.83324994  0.87884639  0.83052903  1
  Pr  Pr48  1  0.49896595  0.87676583  0.83348557  1
  Pr  Pr49  1  0.83686543  0.62347025  0.17070055  1
  Pr  Pr50  1  0.84473964  0.62315692  0.50063884  1
  Pr  Pr51  1  0.34229448  0.37782271  0.00419836  1
  Pr  Pr52  1  0.34145839  0.37324760  0.66872212  1
  Pr  Pr53  1  0.66594983  0.87760167  0.33696650  1
  Pr  Pr54  1  0.16210280  0.12122966  0.83404968  1
  Pr  Pr55  1  0.66597409  0.37629323  0.00049621  1
  Pr  Pr56  1  0.83273216  0.12301092  0.49703575  1
  Pr  Pr57  1  0.17130952  0.37199931  0.83027825  1
  Pr  Pr58  1  0.67314450  0.62573456  0.66098663  1
  Pr  Pr59  1  0.16394485  0.62393208  0.16847698  1
  Pr  Pr60  1  0.66945642  0.62894842  0.99771887  1
  Pr  Pr61  1  0.50695257  0.37302800  0.83408204  1
  Pr  Pr62  1  0.66916938  0.37232914  0.33942153  1
  Pr  Pr63  1  0.66745054  0.12510530  0.66234361  1
  Pr  Pr64  1  0.83560754  0.87750411  0.49335158  1
  Pr  Pr65  1  0.00248540  0.87368681  0.00346825  1
  Pr  Pr66  1  0.32568254  0.12425668  0.33005732  1
  Pr  Pr67  1  0.32874531  0.12556449  0.99546948  1
  Pr  Pr68  1  0.83620923  0.37273014  0.49564088  1
  Pr  Pr69  1  0.66343736  0.87463176  0.66628326  1
  Pr  Pr70  1  0.00718774  0.62727345  0.66349071  1
  Pr  Pr71  1  0.83312079  0.37272238  0.16648044  1
  Mn  Mn72  1  -0.00094013  0.00000521  0.16647768  1
  Mn  Mn73  1  -0.00063575  0.00246556  0.49724741  1
  Mn  Mn74  1  -0.00162160  0.00018833  0.83389857  1
  Mn  Mn75  1  0.00020505  0.49891476  0.16757022  1
  Mn  Mn76  1  0.00081942  0.49738895  0.50059577  1
  Mn  Mn77  1  0.00126931  0.49856613  0.83438970  1
  Mn  Mn78  1  0.33047521  -0.00142729  0.16554287  1
  Mn  Mn79  1  0.33199254  0.00148466  0.50007998  1
  Mn  Mn80  1  0.33322245  0.00154366  0.83401240  1
  Mn  Mn81  1  0.33378184  0.50199793  0.16591099  1
  Mn  Mn82  1  0.33454648  0.49983859  0.50125307  1
  Mn  Mn83  1  0.33440274  0.49723315  0.83605200  1
  Mn  Mn84  1  0.66253083  -0.00276318  0.16734679  1
  Mn  Mn85  1  0.66764167  -0.00138688  0.50155531  1
  Mn  Mn86  1  0.66778057  -0.00254986  0.83118107  1
  Mn  Mn87  1  0.66547607  0.50193498  0.16793449  1
  Mn  Mn88  1  0.66891784  0.50141174  0.49888745  1
  Mn  Mn89  1  0.66973118  0.50223773  0.83450304  1
  Mn  Mn90  1  -0.00085812  0.25391480  0.16742009  1
  Mn  Mn91  1  -0.00120290  0.25141435  0.49770402  1
  Mn  Mn92  1  0.00116961  0.25296852  0.83245593  1
  Mn  Mn93  1  0.00124281  0.74730781  0.16631858  1
  Mn  Mn94  1  0.00055347  0.74940796  0.49878245  1
  Mn  Mn95  1  -0.00347365  0.74720666  0.83338840  1
  Mn  Mn96  1  0.33252424  0.25025432  0.16455621  1
  Mn  Mn97  1  0.33316124  0.24964909  0.50114719  1
  Mn  Mn98  1  0.33343284  0.25047827  0.83486170  1
  Mn  Mn99  1  0.33209386  0.74916220  0.16731573  1
  Mn  Mn100  1  0.33438758  0.74877335  0.49906006  1
  Mn  Mn101  1  0.33471705  0.75021332  0.83434523  1
  Mn  Mn102  1  0.66343701  0.25261978  0.16834256  1
  Mn  Mn103  1  0.66833867  0.25011866  0.50136817  1
  Mn  Mn104  1  0.66879752  0.25096467  0.83328474  1
  Mn  Mn105  1  0.66445523  0.74772691  0.16619738  1
  Mn  Mn106  1  0.66796094  0.75004257  0.49950576  1
  Mn  Mn107  1  0.66883897  0.74896716  0.83126185  1
  Mn  Mn108  1  0.16834868  0.25140473  -0.00229953  1
  Mn  Mn109  1  0.16474251  0.25248323  0.33252751  1
  Mn  Mn110  1  0.16910113  0.25091756  0.66468269  1
  Mn  Mn111  1  0.16654722  0.74902292  0.00223648  1
  Mn  Mn112  1  0.16728393  0.74681569  0.33104719  1
  Mn  Mn113  1  0.16904021  0.75000194  0.66518014  1
  Mn  Mn114  1  0.49993158  0.25129605  0.00318995  1
  Mn  Mn115  1  0.49718656  0.25108109  0.33496285  1
  Mn  Mn116  1  0.50137541  0.24954035  0.66840824  1
  Mn  Mn117  1  0.49994307  0.74995621  0.00354851  1
  Mn  Mn118  1  0.49922431  0.74888471  0.33754054  1
  Mn  Mn119  1  0.50359844  0.75061003  0.66790224  1
  Mn  Mn120  1  0.83134709  0.25424439  -0.00264876  1
  Mn  Mn121  1  0.83341779  0.25239688  0.33183202  1
  Mn  Mn122  1  0.83545198  0.25047279  0.66511777  1
  Mn  Mn123  1  0.83336297  0.74758219  -0.00358323  1
  Mn  Mn124  1  0.83115906  0.74746632  0.33327369  1
  Mn  Mn125  1  0.83325176  0.74979746  0.66348712  1
  Mn  Mn126  1  0.16621096  0.00029937  0.00048296  1
  Mn  Mn127  1  0.16509497  0.00115665  0.32987238  1
  Mn  Mn128  1  0.16839949  0.00253825  0.66554258  1
  Mn  Mn129  1  0.16810522  0.49957544  -0.00049855  1
  Mn  Mn130  1  0.16629925  0.50050553  0.33329976  1
  Mn  Mn131  1  0.16945665  0.49750341  0.66559627  1
  Mn  Mn132  1  0.49812209  -0.00171723  0.00351237  1
  Mn  Mn133  1  0.49528832  -0.00161846  0.33474239  1
  Mn  Mn134  1  0.50064017  -0.00035405  0.66809717  1
  Mn  Mn135  1  0.50160347  0.50107720  0.00393200  1
  Mn  Mn136  1  0.50139528  0.50256930  0.33653755  1
  Mn  Mn137  1  0.50339488  0.49879509  0.66974596  1
  Mn  Mn138  1  0.83331768  -0.00126344  -0.00339013  1
  Mn  Mn139  1  0.83184654  -0.00039961  0.33170604  1
  Mn  Mn140  1  0.83202652  -0.00022029  0.66504003  1
  Mn  Mn141  1  0.83138957  0.49957103  -0.00022122  1
  Mn  Mn142  1  0.83250409  0.50140233  0.33266662  1
  Mn  Mn143  1  0.83762957  0.49956703  0.66577402  1
  O  O144  1  0.17711542  0.12555247  0.02361321  1
  O  O145  1  0.17270006  0.12925603  0.35105545  1
  O  O146  1  0.17036041  0.13073227  0.69036481  1
  O  O147  1  0.17898805  0.62275020  0.02359735  1
  O  O148  1  0.16823652  0.62160882  0.35542783  1
  O  O149  1  0.16110957  0.62112609  0.67547871  1
  O  O150  1  0.49445727  0.12272710  0.02752296  1
  O  O151  1  0.49062316  0.12239566  0.34455688  1
  O  O152  1  0.51054093  0.12380104  0.67927450  1
  O  O153  1  0.50326297  0.62576770  0.02660171  1
  O  O154  1  0.50486422  0.62662333  0.36368804  1
  O  O155  1  0.51058568  0.62639641  0.67707924  1
  O  O156  1  0.83334158  0.13143856  0.00786063  1
  O  O157  1  0.83428999  0.12770499  0.34985222  1
  O  O158  1  0.82711236  0.12437643  0.69204669  1
  O  O159  1  0.83475768  0.62178224  0.02789815  1
  O  O160  1  0.82819927  0.62376629  0.35539431  1
  O  O161  1  0.83211397  0.62415074  0.68722872  1
  O  O162  1  0.16530991  0.37694974  0.30953758  1
  O  O163  1  0.16907052  0.37398111  0.64094980  1
  O  O164  1  0.15988268  0.37693948  0.97467566  1
  O  O165  1  0.17378569  0.87291022  0.30679014  1
  O  O166  1  0.17650300  0.87596017  0.65629508  1
  O  O167  1  0.15254648  0.87459968  0.99196182  1
  O  O168  1  0.50635600  0.38017136  0.31311456  1
  O  O169  1  0.49702793  0.37373534  0.64777030  1
  O  O170  1  0.49602547  0.37893351  0.97866278  1
  O  O171  1  0.49693006  0.87194027  0.31201639  1
  O  O172  1  0.50185444  0.87421168  0.64587013  1
  O  O173  1  0.49369095  0.87318427  0.97861752  1
  O  O174  1  0.82361123  0.38071690  0.31246658  1
  O  O175  1  0.84025688  0.37777510  0.63896511  1
  O  O176  1  0.82065231  0.38001271  0.97242905  1
  O  O177  1  0.82620648  0.86964859  0.32694253  1
  O  O178  1  0.82618942  0.87163021  0.63767110  1
  O  O179  1  0.83355946  0.86829734  0.97410305  1
  O  O180  1  0.00473245  0.37831475  0.18277920  1
  O  O181  1  -0.00930837  0.37543188  0.52456752  1
  O  O182  1  0.00326925  0.37720323  0.86034844  1
  O  O183  1  0.01179456  0.87060445  0.17220132  1
  O  O184  1  -0.00899640  0.87311483  0.50666017  1
  O  O185  1  -0.00906082  0.86896260  0.85755814  1
  O  O186  1  0.33164700  0.37569407  0.17898365  1
  O  O187  1  0.32699370  0.37414493  0.52275277  1
  O  O188  1  0.32772335  0.37307057  0.86105704  1
  O  O189  1  0.32734437  0.87176579  0.19492268  1
  O  O190  1  0.33631434  0.87374411  0.52398205  1
  O  O191  1  0.34105953  0.87643266  0.85457801  1
  O  O192  1  0.66550002  0.38283677  0.19564564  1
  O  O193  1  0.67381974  0.37683688  0.51122185  1
  O  O194  1  0.67238459  0.38086903  0.85565125  1
  O  O195  1  0.65859305  0.86985595  0.19194560  1
  O  O196  1  0.68116472  0.87256021  0.52291725  1
  O  O197  1  0.67889563  0.86987251  0.85507497  1
  O  O198  1  0.00065197  0.13072322  0.15694912  1
  O  O199  1  -0.00084316  0.13056186  0.48049141  1
  O  O200  1  -0.00442303  0.13207427  0.82280601  1
  O  O201  1  -0.00588478  0.62047726  0.14228789  1
  O  O202  1  0.00234376  0.62147258  0.48463644  1
  O  O203  1  -0.00868038  0.61983877  0.80736398  1
  O  O204  1  0.33958965  0.12534461  0.13841458  1
  O  O205  1  0.33155577  0.12738023  0.47407508  1
  O  O206  1  0.33026946  0.12735018  0.81730961  1
  O  O207  1  0.33498781  0.62607066  0.13723411  1
  O  O208  1  0.34368559  0.62418434  0.48440318  1
  O  O209  1  0.33441400  0.62293567  0.82738893  1
  O  O210  1  0.65438387  0.12361352  0.15708861  1
  O  O211  1  0.67134303  0.12465980  0.48889934  1
  O  O212  1  0.67338248  0.12180213  0.80815223  1
  O  O213  1  0.65840102  0.62344650  0.13895898  1
  O  O214  1  0.65565915  0.62615234  0.47638219  1
  O  O215  1  0.67026493  0.62556830  0.80568119  1
  O  O216  1  0.08324446  0.01630872  0.24974360  1
  O  O217  1  0.08522130  0.01446303  0.57854462  1
  O  O218  1  0.08452750  0.01413243  0.91857261  1
  O  O219  1  0.08341535  0.51997317  0.24826510  1
  O  O220  1  0.07952374  0.51111745  0.58822907  1
  O  O221  1  0.07467311  0.51825946  0.92711390  1
  O  O222  1  0.40258055  0.01580358  0.25646698  1
  O  O223  1  0.41378833  0.00650430  0.59203330  1
  O  O224  1  0.40682862  0.01328037  0.92993346  1
  O  O225  1  0.41997911  0.52018160  0.25095739  1
  O  O226  1  0.42090239  0.50587983  0.58461904  1
  O  O227  1  0.41217390  0.51286795  0.92893351  1
  O  O228  1  0.74138662  0.00141483  0.25358888  1
  O  O229  1  0.75099050  0.02362906  0.58348900  1
  O  O230  1  0.75464730  0.01209819  0.90620393  1
  O  O231  1  0.74763251  0.52763915  0.24626510  1
  O  O232  1  0.75321394  0.52374454  0.57752361  1
  O  O233  1  0.74995144  0.52908060  0.91906570  1
  O  O234  1  0.24596586  0.23116160  0.24083773  1
  O  O235  1  0.24473340  0.23110772  0.57655784  1
  O  O236  1  0.24541277  0.22926001  0.91007479  1
  O  O237  1  0.24601121  0.72516438  0.24204357  1
  O  O238  1  0.24919469  0.73269456  0.57316682  1
  O  O239  1  0.25271242  0.74319236  0.92491735  1
  O  O240  1  0.56912599  0.24094333  0.24098749  1
  O  O241  1  0.58627384  0.24167634  0.58437972  1
  O  O242  1  0.57966213  0.24920228  0.91811118  1
  O  O243  1  0.58387324  0.72818932  0.25927786  1
  O  O244  1  0.59789549  0.73847615  0.59345426  1
  O  O245  1  0.59212825  0.73901982  0.92752450  1
  O  O246  1  0.91000611  0.25172202  0.24486647  1
  O  O247  1  0.90576791  0.23410364  0.57145951  1
  O  O248  1  0.90772117  0.24713388  0.90516133  1
  O  O249  1  0.91540742  0.73147327  0.24594752  1
  O  O250  1  0.92180299  0.72679432  0.58934409  1
  O  O251  1  0.91488758  0.72007163  0.91578007  1
  O  O252  1  0.08887828  0.48286494  0.08527590  1
  O  O253  1  0.08490488  0.47980810  0.42468882  1
  O  O254  1  0.08950796  0.47589464  0.75269037  1
  O  O255  1  0.09108378  0.99086385  0.08855889  1
  O  O256  1  0.08701954  0.99803394  0.41421050  1
  O  O257  1  0.08444642  0.99825168  0.75560075  1
  O  O258  1  0.42118459  0.48201065  0.08846736  1
  O  O259  1  0.42575439  0.48435785  0.42664926  1
  O  O260  1  0.41792832  0.47589847  0.75774563  1
  O  O261  1  0.41892765  0.97381805  0.09390208  1
  O  O262  1  0.41791927  0.97630109  0.42105243  1
  O  O263  1  0.42169108  0.97990875  0.75571546  1
  O  O264  1  0.74946824  0.47959109  0.08469051  1
  O  O265  1  0.74681514  0.48519599  0.41250533  1
  O  O266  1  0.76222680  0.48787855  0.75491737  1
  O  O267  1  0.74660123  0.98354658  0.07400643  1
  O  O268  1  0.74900147  0.98256885  0.41889011  1
  O  O269  1  0.74677539  0.97495560  0.74379920  1
  O  O270  1  0.25585360  0.27205832  0.07524562  1
  O  O271  1  0.24771355  0.26527407  0.41688893  1
  O  O272  1  0.25605606  0.27437804  0.74669331  1
  O  O273  1  0.25223880  0.77444133  0.08307516  1
  O  O274  1  0.25623207  0.76191726  0.40572949  1
  O  O275  1  0.25692880  0.76229400  0.74519362  1
  O  O276  1  0.58603813  0.27644724  0.08169399  1
  O  O277  1  0.58752559  0.26953799  0.41566288  1
  O  O278  1  0.58476695  0.26575391  0.75493946  1
  O  O279  1  0.57743755  0.77139199  0.08926401  1
  O  O280  1  0.57942712  0.77708009  0.42765050  1
  O  O281  1  0.58072722  0.77533268  0.75727833  1
  O  O282  1  0.91640576  0.27867984  0.07597856  1
  O  O283  1  0.91668336  0.27213276  0.41320243  1
  O  O284  1  0.92404500  0.27537275  0.74229213  1
  O  O285  1  0.92490070  0.76127030  0.07325829  1
  O  O286  1  0.90494245  0.75486798  0.42866847  1
  O  O287  1  0.90215890  0.76400021  0.75650775  1
  O  O288  1  0.25235877  0.47776376  0.07763387  1
  O  O289  1  0.24784504  0.48810909  0.42001706  1
  O  O290  1  0.25384567  0.47637692  0.74726310  1
  O  O291  1  0.25607341  0.97532075  0.07638740  1
  O  O292  1  0.25832123  0.98846979  0.40104178  1
  O  O293  1  0.26036124  0.98906055  0.74356760  1
  O  O294  1  0.58333278  0.47510890  0.08747618  1
  O  O295  1  0.58498141  0.47818681  0.41872886  1
  O  O296  1  0.58215154  0.48271563  0.75872237  1
  O  O297  1  0.58191104  0.97369688  0.08209063  1
  O  O298  1  0.58379724  0.97665242  0.41842473  1
  O  O299  1  0.58417595  0.97438563  0.75182891  1
  O  O300  1  0.91673260  0.47609454  0.07900252  1
  O  O301  1  0.91183622  0.48530973  0.42315782  1
  O  O302  1  0.92369218  0.47412831  0.74954881  1
  O  O303  1  0.92215285  0.98293265  0.07376660  1
  O  O304  1  0.90881735  0.99310511  0.42009146  1
  O  O305  1  0.90874792  0.98447073  0.75149312  1
  O  O306  1  0.08728827  0.27059395  0.08363441  1
  O  O307  1  0.08591109  0.27055079  0.42172935  1
  O  O308  1  0.08849581  0.27416199  0.75038951  1
  O  O309  1  0.09089954  0.75407666  0.08983518  1
  O  O310  1  0.08397157  0.75262590  0.41518878  1
  O  O311  1  0.07568437  0.75352134  0.75024467  1
  O  O312  1  0.42280140  0.27233283  0.09062278  1
  O  O313  1  0.42415285  0.27056858  0.42735861  1
  O  O314  1  0.42073973  0.27352141  0.75980425  1
  O  O315  1  0.41550309  0.77273887  0.08742977  1
  O  O316  1  0.41573003  0.77406494  0.41595519  1
  O  O317  1  0.41906389  0.77096544  0.74809902  1
  O  O318  1  0.74977779  0.27464038  0.08589178  1
  O  O319  1  0.75564426  0.26712833  0.42093486  1
  O  O320  1  0.76273474  0.26626942  0.75592084  1
  O  O321  1  0.74260740  0.76017465  0.06894512  1
  O  O322  1  0.73582829  0.76162052  0.40637825  1
  O  O323  1  0.74189317  0.76428381  0.73505984  1
  O  O324  1  0.24249839  0.02458693  0.23861690  1
  O  O325  1  0.24691605  0.02156481  0.57373331  1
  O  O326  1  0.24532903  0.01947302  0.91318699  1
  O  O327  1  0.24706478  0.51691072  0.23981323  1
  O  O328  1  0.24477913  0.51313262  0.57685126  1
  O  O329  1  0.25018705  0.51128636  0.91895037  1
  O  O330  1  0.56563631  0.00759295  0.24349646  1
  O  O331  1  0.59110610  0.00574905  0.58925720  1
  O  O332  1  0.58273101  -0.00168093  0.91456879  1
  O  O333  1  0.58335469  0.52612942  0.25225540  1
  O  O334  1  0.58939183  0.51552349  0.58275493  1
  O  O335  1  0.58957863  0.51355037  0.92864367  1
  O  O336  1  0.91319506  0.00525633  0.25035368  1
  O  O337  1  0.90861242  0.01322953  0.57711141  1
  O  O338  1  0.91047489  0.01045194  0.90941958  1
  O  O339  1  0.91097142  0.51441672  0.24651231  1
  O  O340  1  0.92015709  0.52324323  0.58656654  1
  O  O341  1  0.91211417  0.51887977  0.91584850  1
  O  O342  1  0.08391912  0.23724354  0.25103542  1
  O  O343  1  0.08238541  0.24211660  0.58048584  1
  O  O344  1  0.08830970  0.23644113  0.91121419  1
  O  O345  1  0.08452735  0.72659125  0.24801401  1
  O  O346  1  0.08403929  0.73372201  0.58092461  1
  O  O347  1  0.07546857  0.73203335  0.92884561  1
  O  O348  1  0.40779360  0.23068804  0.25205893  1
  O  O349  1  0.40943705  0.24277828  0.59347058  1
  O  O350  1  0.40708268  0.23825813  0.93031350  1
  O  O351  1  0.41742349  0.73071812  0.24771927  1
  O  O352  1  0.43092199  0.73962016  0.57626149  1
  O  O353  1  0.41468406  0.73632623  0.92557438  1
  O  O354  1  0.74279413  0.24787663  0.25296528  1
  O  O355  1  0.74905146  0.22974588  0.58783615  1
  O  O356  1  0.74926076  0.23666151  0.91443295  1
  O  O357  1  0.75014903  0.72426276  0.24220658  1
  O  O358  1  0.75794927  0.72168095  0.57164735  1
  O  O359  1  0.75512763  0.72358346  0.90804909  1
