# generated using pymatgen
data_Ba17Sr5La8Pr42Mn72O216
_symmetry_space_group_name_H-M   'P 1'
_cell_length_a   16.68231588
_cell_length_b   15.70274982
_cell_length_c   16.82993019
_cell_angle_alpha   90.00573046
_cell_angle_beta   90.04774704
_cell_angle_gamma   89.96731604
_symmetry_Int_Tables_number   1
_chemical_formula_structural   Ba17Sr5La8Pr42Mn72O216
_chemical_formula_sum   'Ba17 Sr5 La8 Pr42 Mn72 O216'
_cell_volume   4408.73649854
_cell_formula_units_Z   1
loop_
 _symmetry_equiv_pos_site_id
 _symmetry_equiv_pos_as_xyz
  1  'x, y, z'
loop_
 _atom_site_type_symbol
 _atom_site_label
 _atom_site_symmetry_multiplicity
 _atom_site_fract_x
 _atom_site_fract_y
 _atom_site_fract_z
 _atom_site_occupancy
  Ba  Ba0  1  -0.00146790  0.37613593  0.33574833  1
  Ba  Ba1  1  0.83276969  0.87529546  0.16805088  1
  Ba  Ba2  1  -0.00119496  0.12782194  0.33474519  1
  Ba  Ba3  1  0.33146577  0.62476191  0.33354958  1
  Ba  Ba4  1  0.16630018  0.87529508  0.16766453  1
  Ba  Ba5  1  0.83408260  0.87565330  0.49915782  1
  Ba  Ba6  1  0.50047375  0.37364812  0.82997195  1
  Ba  Ba7  1  0.83328656  0.62576284  0.83278507  1
  Ba  Ba8  1  0.33429045  0.87582149  0.33214489  1
  Ba  Ba9  1  0.83076264  0.12482164  0.50206832  1
  Ba  Ba10  1  0.66428508  0.62369079  0.33066252  1
  Ba  Ba11  1  0.00322559  0.37467212  0.66951027  1
  Ba  Ba12  1  0.50019414  0.87590244  0.83105926  1
  Ba  Ba13  1  0.16855831  0.62428695  0.50166334  1
  Ba  Ba14  1  0.83466861  0.12429266  0.83468284  1
  Ba  Ba15  1  0.00113558  0.12542223  0.66793732  1
  Ba  Ba16  1  0.00257290  0.87582763  0.66725853  1
  Sr  Sr17  1  0.83623712  0.87347326  0.83060425  1
  Sr  Sr18  1  0.16370597  0.62614321  0.17565229  1
  Sr  Sr19  1  -0.00114622  0.62503998  0.33432866  1
  Sr  Sr20  1  0.66334367  0.62642028  0.66174114  1
  Sr  Sr21  1  0.49897655  0.12633847  0.16577164  1
  La  La22  1  0.49898505  0.62470413  0.83102366  1
  La  La23  1  0.33176873  0.37584955  0.33415698  1
  La  La24  1  0.83232294  0.62253079  0.50416978  1
  La  La25  1  0.83391451  0.37327086  0.50082637  1
  La  La26  1  0.32757110  0.62626336  1.00050497  1
  La  La27  1  0.66367727  0.62670266  0.99494805  1
  La  La28  1  0.33728625  0.62400088  0.66463529  1
  La  La29  1  0.50310660  0.87200561  0.16031291  1
  Pr  Pr30  1  0.33416341  0.37654691  0.67004882  1
  Pr  Pr31  1  0.33653996  0.12615411  0.66786933  1
  Pr  Pr32  1  -0.00331076  0.87395776  0.00247952  1
  Pr  Pr33  1  0.49345018  0.62410662  0.16774201  1
  Pr  Pr34  1  0.83539398  0.37609561  0.82981785  1
  Pr  Pr35  1  0.16885495  0.87643226  0.83444531  1
  Pr  Pr36  1  0.33404291  0.87302132  0.66714678  1
  Pr  Pr37  1  0.66198040  0.12245737  0.66380302  1
  Pr  Pr38  1  0.15845021  0.37984706  0.16846675  1
  Pr  Pr39  1  0.49688935  0.12381117  0.49673773  1
  Pr  Pr40  1  0.00004836  0.12070762  0.99852182  1
  Pr  Pr41  1  0.50293428  0.87333887  0.49492041  1
  Pr  Pr42  1  0.66977125  0.87561522  0.33364606  1
  Pr  Pr43  1  -0.00459831  0.37773925  0.00328664  1
  Pr  Pr44  1  0.67568248  0.87453830  0.66678009  1
  Pr  Pr45  1  0.83474848  0.37751053  0.17008474  1
  Pr  Pr46  1  0.49976774  0.37666483  0.49686162  1
  Pr  Pr47  1  0.33346637  0.12449165  0.32947201  1
  Pr  Pr48  1  0.33600515  0.87589940  0.00778093  1
  Pr  Pr49  1  0.16690622  0.12739666  0.17249289  1
  Pr  Pr50  1  0.16740909  0.12548235  0.50316333  1
  Pr  Pr51  1  0.83017609  0.12738938  0.17109524  1
  Pr  Pr52  1  0.50040569  0.12470953  0.83559890  1
  Pr  Pr53  1  0.00322194  0.87215624  0.33965289  1
  Pr  Pr54  1  0.66431418  0.12090240  0.99541523  1
  Pr  Pr55  1  0.66538815  0.37213388  0.33532701  1
  Pr  Pr56  1  0.16421089  0.87737438  0.49512946  1
  Pr  Pr57  1  -0.00038949  0.62931945  1.00321253  1
  Pr  Pr58  1  0.83364074  0.62420969  0.17155305  1
  Pr  Pr59  1  0.67437146  0.37278281  -0.00075617  1
  Pr  Pr60  1  0.67643498  0.87507637  -0.00223330  1
  Pr  Pr61  1  0.16302577  0.37325878  0.49900421  1
  Pr  Pr62  1  0.49632679  0.62651448  0.49877361  1
  Pr  Pr63  1  0.33268645  0.37302447  0.00576560  1
  Pr  Pr64  1  -0.00516784  0.62651771  0.66342851  1
  Pr  Pr65  1  0.66649272  0.12239717  0.32918154  1
  Pr  Pr66  1  0.32868969  0.12182261  0.99836664  1
  Pr  Pr67  1  0.67231386  0.37414915  0.66930903  1
  Pr  Pr68  1  0.16322121  0.12581635  0.83551708  1
  Pr  Pr69  1  0.16916251  0.37307451  0.83329397  1
  Pr  Pr70  1  0.16332365  0.62431864  0.83479094  1
  Pr  Pr71  1  0.50092535  0.37780164  0.15987443  1
  Mn  Mn72  1  -0.00087408  0.00121419  0.16667944  1
  Mn  Mn73  1  0.00132700  0.00104069  0.50065229  1
  Mn  Mn74  1  0.00182556  -0.00065128  0.83571892  1
  Mn  Mn75  1  -0.00156200  0.50107477  0.16820871  1
  Mn  Mn76  1  0.00036221  0.50011858  0.50229400  1
  Mn  Mn77  1  0.00265909  0.50114918  0.83697495  1
  Mn  Mn78  1  0.33478158  0.00325450  0.16527601  1
  Mn  Mn79  1  0.33496541  0.00190614  0.50113342  1
  Mn  Mn80  1  0.33259962  0.00019179  0.83344809  1
  Mn  Mn81  1  0.33159797  0.49731433  0.16666823  1
  Mn  Mn82  1  0.33473535  0.49688616  0.50217223  1
  Mn  Mn83  1  0.33273592  0.50051537  0.83493980  1
  Mn  Mn84  1  0.66480918  0.00137093  0.16409479  1
  Mn  Mn85  1  0.66314518  0.00044126  0.49780780  1
  Mn  Mn86  1  0.66722104  -0.00131984  0.83038511  1
  Mn  Mn87  1  0.66617033  0.49758118  0.16282020  1
  Mn  Mn88  1  0.66447036  0.49865638  0.49977853  1
  Mn  Mn89  1  0.66572132  0.50062740  0.83203315  1
  Mn  Mn90  1  -0.00147779  0.25178530  0.16458471  1
  Mn  Mn91  1  0.00077911  0.25034365  0.50221866  1
  Mn  Mn92  1  0.00190549  0.25018536  0.83864325  1
  Mn  Mn93  1  -0.00103089  0.75043915  0.16931763  1
  Mn  Mn94  1  0.00072230  0.74783001  0.50023788  1
  Mn  Mn95  1  0.00275208  0.74858283  0.83439583  1
  Mn  Mn96  1  0.33276706  0.25028124  0.16751306  1
  Mn  Mn97  1  0.33528988  0.25005208  0.50041564  1
  Mn  Mn98  1  0.33307994  0.24867454  0.83534005  1
  Mn  Mn99  1  0.33295034  0.74984934  0.16603420  1
  Mn  Mn100  1  0.33464556  0.75114084  0.50231964  1
  Mn  Mn101  1  0.33181663  0.74998264  0.83380146  1
  Mn  Mn102  1  0.66549132  0.25129150  0.16554094  1
  Mn  Mn103  1  0.66194242  0.25073168  0.50065589  1
  Mn  Mn104  1  0.66711736  0.24963078  0.83243289  1
  Mn  Mn105  1  0.66595608  0.74862322  0.16234222  1
  Mn  Mn106  1  0.66563692  0.74915434  0.49761736  1
  Mn  Mn107  1  0.66580255  0.74942905  0.83016525  1
  Mn  Mn108  1  0.16544948  0.25203213  0.00328838  1
  Mn  Mn109  1  0.16842595  0.25064316  0.33519071  1
  Mn  Mn110  1  0.17143238  0.24993254  0.66830730  1
  Mn  Mn111  1  0.16611686  0.74801366  0.00063544  1
  Mn  Mn112  1  0.16571927  0.74921827  0.33406625  1
  Mn  Mn113  1  0.16989511  0.75054293  0.66947029  1
  Mn  Mn114  1  0.49978365  0.24918893  -0.00096823  1
  Mn  Mn115  1  0.49957587  0.25020037  0.33007510  1
  Mn  Mn116  1  0.50040299  0.24855881  0.66353103  1
  Mn  Mn117  1  0.49931194  0.74895333  -0.00223109  1
  Mn  Mn118  1  0.50052241  0.75054722  0.32938766  1
  Mn  Mn119  1  0.50089579  0.75130890  0.66326475  1
  Mn  Mn120  1  0.83380833  0.25073656  0.00276592  1
  Mn  Mn121  1  0.82994221  0.25042595  0.33418113  1
  Mn  Mn122  1  0.83207700  0.24974071  0.66800882  1
  Mn  Mn123  1  0.83305371  0.74894210  0.00064710  1
  Mn  Mn124  1  0.83304505  0.74838144  0.33337489  1
  Mn  Mn125  1  0.83252598  0.74964267  0.66698405  1
  Mn  Mn126  1  0.16597783  0.00045543  0.00100720  1
  Mn  Mn127  1  0.16673939  0.00219500  0.33472494  1
  Mn  Mn128  1  0.17166879  -0.00022020  0.66722159  1
  Mn  Mn129  1  0.16554275  0.50106198  0.00175211  1
  Mn  Mn130  1  0.16614960  0.49957302  0.33407871  1
  Mn  Mn131  1  0.16992439  0.49992267  0.67082469  1
  Mn  Mn132  1  0.49981396  0.00177049  -0.00123203  1
  Mn  Mn133  1  0.50081219  0.00142124  0.32962733  1
  Mn  Mn134  1  0.49937236  0.00045333  0.66322225  1
  Mn  Mn135  1  0.49910268  0.49865010  -0.00211032  1
  Mn  Mn136  1  0.49916384  0.49727734  0.32971376  1
  Mn  Mn137  1  0.50174813  0.49907716  0.66342752  1
  Mn  Mn138  1  0.83374765  0.00028134  0.00130877  1
  Mn  Mn139  1  0.83330704  0.00098900  0.33193487  1
  Mn  Mn140  1  0.83346338  -0.00012418  0.66835961  1
  Mn  Mn141  1  0.83257479  0.50035111  0.00161450  1
  Mn  Mn142  1  0.83026827  0.49964684  0.33542345  1
  Mn  Mn143  1  0.83295799  0.49966925  0.66742694  1
  O  O144  1  0.16639006  0.12952396  0.03002638  1
  O  O145  1  0.17741524  0.12770654  0.35651581  1
  O  O146  1  0.17900937  0.12554965  0.69243410  1
  O  O147  1  0.16942974  0.62230258  0.02638410  1
  O  O148  1  0.16610668  0.62327355  0.34129305  1
  O  O149  1  0.17944822  0.62432605  0.69233197  1
  O  O150  1  0.51361305  0.12624485  0.01710884  1
  O  O151  1  0.50209377  0.12692081  0.35519293  1
  O  O152  1  0.50461572  0.12424584  0.69201170  1
  O  O153  1  0.50814370  0.62140008  0.02474766  1
  O  O154  1  0.50007724  0.61935470  0.35414963  1
  O  O155  1  0.49968525  0.62420045  0.68688127  1
  O  O156  1  0.83836888  0.12867579  0.02651961  1
  O  O157  1  0.82341268  0.12792889  0.34450106  1
  O  O158  1  0.82350857  0.12643332  0.67673944  1
  O  O159  1  0.83436794  0.62293535  0.02652457  1
  O  O160  1  0.83192611  0.62202663  0.35753043  1
  O  O161  1  0.83668931  0.62336434  0.67385145  1
  O  O162  1  0.17090569  0.37205203  0.31420982  1
  O  O163  1  0.17635849  0.37314838  0.64397271  1
  O  O164  1  0.16592128  0.37627444  0.97442183  1
  O  O165  1  0.15728846  0.87727163  0.32720990  1
  O  O166  1  0.17560403  0.87675029  0.64077514  1
  O  O167  1  0.16621411  0.87299751  0.97748910  1
  O  O168  1  0.49990447  0.37261873  0.30372306  1
  O  O169  1  0.49382530  0.37177534  0.64041525  1
  O  O170  1  0.48712588  0.37266269  0.98489276  1
  O  O171  1  0.50538881  0.88026620  0.30401402  1
  O  O172  1  0.48993590  0.87899884  0.63840409  1
  O  O173  1  0.48457071  0.87761572  0.98766669  1
  O  O174  1  0.82306698  0.37438988  0.31276347  1
  O  O175  1  0.82503744  0.37568217  0.64938987  1
  O  O176  1  0.83185215  0.37575327  0.97292389  1
  O  O177  1  0.83016081  0.87536810  0.32295127  1
  O  O178  1  0.82680373  0.87349810  0.65846143  1
  O  O179  1  0.83119166  0.87295745  0.98253254  1
  O  O180  1  0.00002384  0.37538028  0.18015567  1
  O  O181  1  0.00716144  0.37606988  0.51140562  1
  O  O182  1  0.00640394  0.37643705  0.85997233  1
  O  O183  1  -0.00104759  0.87761358  0.19269556  1
  O  O184  1  0.01117374  0.87422651  0.50748499  1
  O  O185  1  0.01132554  0.87344489  0.85863123  1
  O  O186  1  0.34414425  0.37156042  0.18858338  1
  O  O187  1  0.34169360  0.37109688  0.52856762  1
  O  O188  1  0.32995387  0.37176439  0.86299197  1
  O  O189  1  0.34491738  0.87757786  0.17015703  1
  O  O190  1  0.34009951  0.87886984  0.52440591  1
  O  O191  1  0.32863005  0.87422267  0.86375921  1
  O  O192  1  0.66349584  0.37361133  0.19236542  1
  O  O193  1  0.65446966  0.37371889  0.52672993  1
  O  O194  1  0.67293175  0.37570378  0.85531065  1
  O  O195  1  0.65894204  0.87935915  0.18935219  1
  O  O196  1  0.65551765  0.87582710  0.52125743  1
  O  O197  1  0.66786475  0.87446200  0.85400643  1
  O  O198  1  0.00003458  0.12929467  0.14132258  1
  O  O199  1  0.00800771  0.12620157  0.49397766  1
  O  O200  1  0.00683745  0.12647340  0.82548502  1
  O  O201  1  -0.00662885  0.62284981  0.14587136  1
  O  O202  1  -0.00805870  0.62258744  0.48751833  1
  O  O203  1  0.00953227  0.62307840  0.80782968  1
  O  O204  1  0.32107897  0.12971436  0.14276846  1
  O  O205  1  0.33368136  0.12850060  0.47139893  1
  O  O206  1  0.32579434  0.12581209  0.81054886  1
  O  O207  1  0.33469603  0.62094311  0.14615718  1
  O  O208  1  0.34001738  0.62197884  0.48957077  1
  O  O209  1  0.32792025  0.62794179  0.80828300  1
  O  O210  1  0.67270023  0.12884205  0.13800221  1
  O  O211  1  0.65702048  0.12721157  0.47273167  1
  O  O212  1  0.65914267  0.12378387  0.80947405  1
  O  O213  1  0.66855787  0.61844894  0.13742350  1
  O  O214  1  0.66726304  0.62280945  0.48679922  1
  O  O215  1  0.65778623  0.62459029  0.81409029  1
  O  O216  1  0.08673160  0.02073211  0.24301022  1
  O  O217  1  0.09591013  0.01245879  0.57876140  1
  O  O218  1  0.08663433  0.02190100  0.91920103  1
  O  O219  1  0.08275947  0.50813047  0.24502771  1
  O  O220  1  0.08282420  0.51652493  0.59705987  1
  O  O221  1  0.08297882  0.52636106  0.92158707  1
  O  O222  1  0.41472688  0.02295781  0.25357078  1
  O  O223  1  0.41570501  0.02913167  0.58395006  1
  O  O224  1  0.41461478  0.02607510  0.91681464  1
  O  O225  1  0.41893255  0.51307061  0.24390004  1
  O  O226  1  0.42193610  0.51823782  0.57940264  1
  O  O227  1  0.41373505  0.52532718  0.91529674  1
  O  O228  1  0.74656906  0.02016586  0.24651453  1
  O  O229  1  0.73577994  0.01038660  0.58745546  1
  O  O230  1  0.74421668  0.01425151  0.92357784  1
  O  O231  1  0.75300478  0.51321610  0.24176887  1
  O  O232  1  0.75119889  0.50917265  0.57848620  1
  O  O233  1  0.74367864  0.51520089  0.92636543  1
  O  O234  1  0.25296618  0.23134924  0.25350908  1
  O  O235  1  0.25569119  0.22694696  0.58420875  1
  O  O236  1  0.24824834  0.22859601  0.92301013  1
  O  O237  1  0.24795613  0.74421382  0.24546237  1
  O  O238  1  0.25888798  0.73924181  0.59368970  1
  O  O239  1  0.24516748  0.72730047  0.91287647  1
  O  O240  1  0.58554903  0.23016500  0.24855791  1
  O  O241  1  0.57648370  0.22452653  0.57707022  1
  O  O242  1  0.58164320  0.23158700  0.90940685  1
  O  O243  1  0.57580382  0.73302310  0.23287552  1
  O  O244  1  0.57413189  0.73543013  0.56971226  1
  O  O245  1  0.57604615  0.73129625  0.90939358  1
  O  O246  1  0.90852054  0.23968936  0.24069221  1
  O  O247  1  0.91278918  0.24956463  0.58379499  1
  O  O248  1  0.92407283  0.23878716  0.92812604  1
  O  O249  1  0.91121771  0.72912060  0.24672428  1
  O  O250  1  0.91463393  0.73348154  0.58031956  1
  O  O251  1  0.92240001  0.73578795  0.92242002  1
  O  O252  1  0.08086596  0.48022360  0.08033140  1
  O  O253  1  0.08841159  0.48758733  0.42391747  1
  O  O254  1  0.09522491  0.48460589  0.76210512  1
  O  O255  1  0.07758483  0.98551889  0.07636364  1
  O  O256  1  0.08417089  0.98900495  0.41679458  1
  O  O257  1  0.09453234  0.98882077  0.75826595  1
  O  O258  1  0.41475359  0.48216129  0.08240837  1
  O  O259  1  0.41619565  0.47463345  0.41564150  1
  O  O260  1  0.41398954  0.48797647  0.74172507  1
  O  O261  1  0.41797303  0.99682074  0.08042253  1
  O  O262  1  0.42359915  0.98853409  0.42313106  1
  O  O263  1  0.41401157  0.99023331  0.74459404  1
  O  O264  1  0.75063863  0.47178704  0.08415022  1
  O  O265  1  0.74316980  0.47492370  0.41651341  1
  O  O266  1  0.75206652  0.48037275  0.75286713  1
  O  O267  1  0.74445623  0.98759058  0.07901494  1
  O  O268  1  0.74155493  0.98909875  0.41040436  1
  O  O269  1  0.74920814  0.98383181  0.75154009  1
  O  O270  1  0.24578680  0.27786258  0.08852593  1
  O  O271  1  0.25271682  0.27561344  0.42173862  1
  O  O272  1  0.25345854  0.27474428  0.75137997  1
  O  O273  1  0.25941693  0.76266146  0.07160450  1
  O  O274  1  0.24933903  0.76624554  0.42611531  1
  O  O275  1  0.25218552  0.77803822  0.75229521  1
  O  O276  1  0.58641169  0.27488053  0.08064230  1
  O  O277  1  0.58153378  0.27436725  0.41468772  1
  O  O278  1  0.59105703  0.26527313  0.73542906  1
  O  O279  1  0.58736622  0.77309378  0.07103952  1
  O  O280  1  0.58588333  0.77243803  0.40738812  1
  O  O281  1  0.58821607  0.76824505  0.73521684  1
  O  O282  1  0.91445929  0.27697361  0.08312688  1
  O  O283  1  0.90925924  0.26353449  0.41869223  1
  O  O284  1  0.91590885  0.26631660  0.76172211  1
  O  O285  1  0.92136276  0.76364415  0.07961941  1
  O  O286  1  0.92287250  0.76163713  0.40808035  1
  O  O287  1  0.92320566  0.75581990  0.75114690  1
  O  O288  1  0.24944991  0.47353749  0.08337328  1
  O  O289  1  0.25204260  0.47563719  0.42337812  1
  O  O290  1  0.25215404  0.47380873  0.75473683  1
  O  O291  1  0.25520553  0.98739194  0.07378665  1
  O  O292  1  0.24702211  0.98680544  0.42702350  1
  O  O293  1  0.25340109  0.97371409  0.74974300  1
  O  O294  1  0.58712339  0.47275313  0.07676569  1
  O  O295  1  0.58138609  0.47502516  0.41158083  1
  O  O296  1  0.58814793  0.48194362  0.73798534  1
  O  O297  1  0.58502184  0.97825215  0.07718356  1
  O  O298  1  0.58406927  0.97741220  0.41078814  1
  O  O299  1  0.58990296  0.98291677  0.73426019  1
  O  O300  1  0.91249434  0.47883608  0.08628852  1
  O  O301  1  0.90486978  0.48496173  0.42578537  1
  O  O302  1  0.91622904  0.48529432  0.75883750  1
  O  O303  1  0.92119109  0.98526519  0.07954933  1
  O  O304  1  0.92283073  0.98856703  0.40968450  1
  O  O305  1  0.91993058  0.99006954  0.75772291  1
  O  O306  1  0.08141201  0.27582072  0.08014768  1
  O  O307  1  0.09117287  0.26004610  0.42174398  1
  O  O308  1  0.09360770  0.26199855  0.76029386  1
  O  O309  1  0.07898141  0.76258122  0.07909725  1
  O  O310  1  0.08596763  0.76253623  0.42121737  1
  O  O311  1  0.09623741  0.76350611  0.76184171  1
  O  O312  1  0.41279630  0.26385012  0.08350452  1
  O  O313  1  0.41688713  0.27159071  0.41707976  1
  O  O314  1  0.41498139  0.25937461  0.74247227  1
  O  O315  1  0.42203806  0.75717192  0.08454910  1
  O  O316  1  0.42464057  0.76368582  0.42471914  1
  O  O317  1  0.41299630  0.76266749  0.74684460  1
  O  O318  1  0.75346999  0.27609045  0.08964823  1
  O  O319  1  0.74451424  0.27368182  0.42128132  1
  O  O320  1  0.75323290  0.27133032  0.75673044  1
  O  O321  1  0.74602425  0.76366076  0.07943221  1
  O  O322  1  0.74588011  0.76397651  0.41290961  1
  O  O323  1  0.74928089  0.76351663  0.75057071  1
  O  O324  1  0.25037610  0.01962893  0.25100222  1
  O  O325  1  0.25619000  0.02457658  0.58670183  1
  O  O326  1  0.24616093  0.02319095  0.91606774  1
  O  O327  1  0.24950572  0.50031495  0.24719970  1
  O  O328  1  0.25979772  0.50905920  0.59394837  1
  O  O329  1  0.24707955  0.52140028  0.92011907  1
  O  O330  1  0.58516358  0.02461833  0.24708200  1
  O  O331  1  0.57526068  0.02261434  0.57448996  1
  O  O332  1  0.58000208  0.01799130  0.91079248  1
  O  O333  1  0.57677284  0.51295693  0.23544726  1
  O  O334  1  0.57746462  0.51752837  0.57469644  1
  O  O335  1  0.57877524  0.51741559  0.91113085  1
  O  O336  1  0.91150990  0.02026856  0.24156571  1
  O  O337  1  0.91788085  0.00462875  0.58328953  1
  O  O338  1  0.92362146  0.00979250  0.92495287  1
  O  O339  1  0.91215655  0.51452785  0.24902669  1
  O  O340  1  0.91741922  0.51329791  0.58675754  1
  O  O341  1  0.92298473  0.51488322  0.92733453  1
  O  O342  1  0.09022711  0.23861444  0.24112991  1
  O  O343  1  0.09553653  0.23853537  0.58319924  1
  O  O344  1  0.08632560  0.22819955  0.92128100  1
  O  O345  1  0.07570199  0.73940764  0.25414117  1
  O  O346  1  0.08058550  0.73185201  0.59600441  1
  O  O347  1  0.08296827  0.72397317  0.92055475  1
  O  O348  1  0.41278126  0.22811009  0.25181660  1
  O  O349  1  0.41757539  0.22284872  0.58094147  1
  O  O350  1  0.41449675  0.22185597  0.91623575  1
  O  O351  1  0.41924424  0.73552158  0.24648040  1
  O  O352  1  0.41743075  0.72958383  0.58510437  1
  O  O353  1  0.41203221  0.72488694  0.91911437  1
  O  O354  1  0.74407011  0.23102476  0.25134058  1
  O  O355  1  0.73515771  0.23964501  0.58985733  1
  O  O356  1  0.74317358  0.23381495  0.93044656  1
  O  O357  1  0.75109150  0.73443100  0.24533676  1
  O  O358  1  0.74538274  0.73902958  0.58212169  1
  O  O359  1  0.74228233  0.73640604  0.92327119  1
