# generated using pymatgen
data_Ba17Sr5La8Pr42Mn72O216
_symmetry_space_group_name_H-M   'P 1'
_cell_length_a   16.67438559
_cell_length_b   15.70515386
_cell_length_c   16.82030321
_cell_angle_alpha   90.00677381
_cell_angle_beta   90.02306363
_cell_angle_gamma   89.99548152
_symmetry_Int_Tables_number   1
_chemical_formula_structural   Ba17Sr5La8Pr42Mn72O216
_chemical_formula_sum   'Ba17 Sr5 La8 Pr42 Mn72 O216'
_cell_volume   4404.79617034
_cell_formula_units_Z   1
loop_
 _symmetry_equiv_pos_site_id
 _symmetry_equiv_pos_as_xyz
  1  'x, y, z'
loop_
 _atom_site_type_symbol
 _atom_site_label
 _atom_site_symmetry_multiplicity
 _atom_site_fract_x
 _atom_site_fract_y
 _atom_site_fract_z
 _atom_site_occupancy
  Ba  Ba0  1  0.00322540  0.62459767  0.99566963  1
  Ba  Ba1  1  -0.00018523  0.12527408  0.99714160  1
  Ba  Ba2  1  -0.00194367  0.62355498  0.32922961  1
  Ba  Ba3  1  0.33097259  0.87285135  0.33247963  1
  Ba  Ba4  1  0.33705282  0.12499248  0.99947784  1
  Ba  Ba5  1  0.83390403  0.12528114  0.49972109  1
  Ba  Ba6  1  0.33013537  0.37685045  0.33631755  1
  Ba  Ba7  1  0.83100587  0.37581562  0.83332632  1
  Ba  Ba8  1  0.49812509  0.37499175  0.50178606  1
  Ba  Ba9  1  0.50274974  0.12303401  0.16841885  1
  Ba  Ba10  1  -0.00115212  0.12707044  0.33050331  1
  Ba  Ba11  1  0.33434020  0.62577509  0.33282218  1
  Ba  Ba12  1  0.66539681  0.37697479  0.33646282  1
  Ba  Ba13  1  0.16799317  0.87439527  0.16489888  1
  Ba  Ba14  1  0.49915122  0.12407672  0.50427881  1
  Ba  Ba15  1  0.33579868  0.12286750  0.66833680  1
  Ba  Ba16  1  0.50283701  0.12190383  0.83745663  1
  Sr  Sr17  1  0.83065138  0.37399373  0.49771807  1
  Sr  Sr18  1  0.00005303  0.12653501  0.66084026  1
  Sr  Sr19  1  -0.00468932  0.37570873  0.33270862  1
  Sr  Sr20  1  0.49837627  0.87396783  0.83513166  1
  Sr  Sr21  1  -0.00550792  0.37517060  -0.00164651  1
  La  La22  1  -0.00961815  0.37163809  0.66555223  1
  La  La23  1  0.50563732  0.62651634  0.17239220  1
  La  La24  1  0.00109087  0.87523535  0.33184190  1
  La  La25  1  0.50132829  0.62386669  0.50022026  1
  La  La26  1  0.00547471  0.87524293  -0.00026769  1
  La  La27  1  0.49108673  0.37560882  0.16964841  1
  La  La28  1  0.33891262  0.62622589  0.99816993  1
  La  La29  1  0.16726501  0.12528688  0.50092583  1
  Pr  Pr30  1  0.16063039  0.37385779  0.49580477  1
  Pr  Pr31  1  0.34107534  0.62709547  0.66294123  1
  Pr  Pr32  1  0.32554956  0.37053057  0.00326856  1
  Pr  Pr33  1  0.66925331  0.13130616  0.33461337  1
  Pr  Pr34  1  0.51201464  0.62745046  0.83971808  1
  Pr  Pr35  1  0.66370188  0.87489159  0.00601888  1
  Pr  Pr36  1  0.17117090  0.12500953  0.83549464  1
  Pr  Pr37  1  0.83638967  0.87508135  0.16280922  1
  Pr  Pr38  1  0.66338096  0.87670194  0.34007768  1
  Pr  Pr39  1  0.17072114  0.62411667  0.49913443  1
  Pr  Pr40  1  0.33808913  0.12602195  0.33222897  1
  Pr  Pr41  1  0.15780053  0.37266508  0.83069772  1
  Pr  Pr42  1  0.33556674  0.87978015  0.00352025  1
  Pr  Pr43  1  0.84001823  0.62464178  0.83454837  1
  Pr  Pr44  1  0.83581551  0.12528834  0.83219056  1
  Pr  Pr45  1  0.00323204  0.87927824  0.66284227  1
  Pr  Pr46  1  0.17373974  0.62296767  0.83481575  1
  Pr  Pr47  1  0.49295314  0.87521196  0.50252343  1
  Pr  Pr48  1  0.49277643  0.87370597  0.16613700  1
  Pr  Pr49  1  0.16801536  0.87593847  0.83351007  1
  Pr  Pr50  1  0.83666338  0.62281410  0.16857379  1
  Pr  Pr51  1  0.66655797  0.12620503  0.66635527  1
  Pr  Pr52  1  0.00044432  0.62381769  0.65940893  1
  Pr  Pr53  1  0.66774003  0.87813633  0.67340037  1
  Pr  Pr54  1  0.49285411  0.37619035  0.83254240  1
  Pr  Pr55  1  0.83993089  0.87331186  0.82987246  1
  Pr  Pr56  1  0.83467966  0.12767410  0.17075615  1
  Pr  Pr57  1  0.32550721  0.37136081  0.66695100  1
  Pr  Pr58  1  0.66229741  0.37561309  0.00831551  1
  Pr  Pr59  1  0.67260092  0.62563820  0.66833561  1
  Pr  Pr60  1  0.67152056  0.12504686  1.00004714  1
  Pr  Pr61  1  0.83538317  0.62000450  0.49791424  1
  Pr  Pr62  1  0.16411617  0.87501328  0.49346255  1
  Pr  Pr63  1  0.67771851  0.62687418  1.00154744  1
  Pr  Pr64  1  0.15623163  0.37686933  0.16516305  1
  Pr  Pr65  1  0.17242134  0.12617019  0.16933461  1
  Pr  Pr66  1  0.66935464  0.62188856  0.33521476  1
  Pr  Pr67  1  0.33058456  0.87632546  0.66793495  1
  Pr  Pr68  1  0.66431300  0.37024766  0.66763680  1
  Pr  Pr69  1  0.83404050  0.87563686  0.49511680  1
  Pr  Pr70  1  0.83402930  0.37411215  0.16529422  1
  Pr  Pr71  1  0.16852467  0.62320029  0.16858534  1
  Mn  Mn72  1  -0.00019947  0.00022312  0.16349995  1
  Mn  Mn73  1  -0.00054284  -0.00051846  0.49915990  1
  Mn  Mn74  1  0.00141027  -0.00040009  0.82931482  1
  Mn  Mn75  1  -0.00209876  0.49905141  0.16258904  1
  Mn  Mn76  1  -0.00031338  0.50028038  0.49775501  1
  Mn  Mn77  1  0.00165650  0.49943339  0.82814240  1
  Mn  Mn78  1  0.33401313  0.00068914  0.16733058  1
  Mn  Mn79  1  0.33032854  -0.00221810  0.50052807  1
  Mn  Mn80  1  0.33431966  -0.00366299  0.83455121  1
  Mn  Mn81  1  0.33208642  0.49936335  0.16318234  1
  Mn  Mn82  1  0.33170510  0.50203000  0.50320361  1
  Mn  Mn83  1  0.33364547  0.50097878  0.83216351  1
  Mn  Mn84  1  0.66846292  -0.00268043  0.17057783  1
  Mn  Mn85  1  0.66647490  -0.00337182  0.50455133  1
  Mn  Mn86  1  0.67061776  -0.00299654  0.83647160  1
  Mn  Mn87  1  0.66624551  0.50167210  0.16734396  1
  Mn  Mn88  1  0.66746207  0.50405252  0.50359642  1
  Mn  Mn89  1  0.66616840  0.50157096  0.83672074  1
  Mn  Mn90  1  -0.00114337  0.25075698  0.16335209  1
  Mn  Mn91  1  -0.00114853  0.25128685  0.49844656  1
  Mn  Mn92  1  -0.00055343  0.24865559  0.82963638  1
  Mn  Mn93  1  -0.00021630  0.75012171  0.16290916  1
  Mn  Mn94  1  -0.00116079  0.74901274  0.49787281  1
  Mn  Mn95  1  0.00358405  0.75135913  0.82748931  1
  Mn  Mn96  1  0.33200814  0.25131931  0.16870311  1
  Mn  Mn97  1  0.33072213  0.25018188  0.50134236  1
  Mn  Mn98  1  0.33260218  0.25273840  0.83529321  1
  Mn  Mn99  1  0.33411097  0.74866149  0.16261619  1
  Mn  Mn100  1  0.33154300  0.74874334  0.50275587  1
  Mn  Mn101  1  0.33477069  0.74887581  0.83186412  1
  Mn  Mn102  1  0.66602108  0.25050823  0.16722200  1
  Mn  Mn103  1  0.66632418  0.24927654  0.50168680  1
  Mn  Mn104  1  0.66634216  0.25051937  0.83676165  1
  Mn  Mn105  1  0.66838062  0.75147323  0.17078306  1
  Mn  Mn106  1  0.66770384  0.75074759  0.50407204  1
  Mn  Mn107  1  0.67076197  0.75143749  0.83592668  1
  Mn  Mn108  1  0.16484404  0.25111294  -0.00078156  1
  Mn  Mn109  1  0.16522530  0.25047005  0.33342084  1
  Mn  Mn110  1  0.16482415  0.25020179  0.66475403  1
  Mn  Mn111  1  0.17067195  0.74748331  -0.00338097  1
  Mn  Mn112  1  0.16440657  0.74838201  0.33182345  1
  Mn  Mn113  1  0.16575511  0.74908570  0.66679115  1
  Mn  Mn114  1  0.50208826  0.25310537  0.00080641  1
  Mn  Mn115  1  0.49978879  0.24878944  0.33518530  1
  Mn  Mn116  1  0.49957365  0.25242502  0.67081717  1
  Mn  Mn117  1  0.50270306  0.74926487  0.00240285  1
  Mn  Mn118  1  0.50274133  0.75166020  0.33587144  1
  Mn  Mn119  1  0.50185731  0.74976722  0.67026265  1
  Mn  Mn120  1  0.83124167  0.24929126  -0.00097068  1
  Mn  Mn121  1  0.83297521  0.25179321  0.33325388  1
  Mn  Mn122  1  0.83140380  0.24954221  0.66600694  1
  Mn  Mn123  1  0.83473266  0.75206559  -0.00272843  1
  Mn  Mn124  1  0.83038767  0.75181566  0.33051053  1
  Mn  Mn125  1  0.83416042  0.75073908  0.66401571  1
  Mn  Mn126  1  0.16766171  0.00083152  -0.00193385  1
  Mn  Mn127  1  0.16572482  0.00099660  0.33315696  1
  Mn  Mn128  1  0.16615014  -0.00122330  0.66581214  1
  Mn  Mn129  1  0.16812922  0.49964446  -0.00190251  1
  Mn  Mn130  1  0.16398608  0.49973517  0.33191350  1
  Mn  Mn131  1  0.16537894  0.50113789  0.66650405  1
  Mn  Mn132  1  0.50405825  -0.00267060  0.00183854  1
  Mn  Mn133  1  0.50118869  -0.00211472  0.33638254  1
  Mn  Mn134  1  0.50182337  -0.00414984  0.66990719  1
  Mn  Mn135  1  0.50138304  0.50176157  0.00054860  1
  Mn  Mn136  1  0.50000410  0.50214353  0.33546952  1
  Mn  Mn137  1  0.50002136  0.50210827  0.67224861  1
  Mn  Mn138  1  0.83262439  -0.00195318  -0.00230734  1
  Mn  Mn139  1  0.83103566  -0.00150019  0.32998636  1
  Mn  Mn140  1  0.83364134  -0.00267506  0.66567494  1
  Mn  Mn141  1  0.83254092  0.50024251  -0.00141277  1
  Mn  Mn142  1  0.83239948  0.49986816  0.33330278  1
  Mn  Mn143  1  0.83154584  0.50136629  0.66593942  1
  O  O144  1  0.16689455  0.12849118  0.02121863  1
  O  O145  1  0.16989407  0.12526914  0.35579180  1
  O  O146  1  0.16160744  0.12233518  0.69270237  1
  O  O147  1  0.17356554  0.62249261  0.02352565  1
  O  O148  1  0.16380428  0.62375982  0.35201904  1
  O  O149  1  0.15457684  0.62645264  0.69524608  1
  O  O150  1  0.51038215  0.12130514  0.01164447  1
  O  O151  1  0.49806427  0.11958150  0.34552449  1
  O  O152  1  0.50625310  0.12485282  0.68055548  1
  O  O153  1  0.49594392  0.62479662  0.02828497  1
  O  O154  1  0.50683106  0.63023439  0.35383414  1
  O  O155  1  0.49101000  0.62738256  0.69785324  1
  O  O156  1  0.82913701  0.12047102  0.02615661  1
  O  O157  1  0.83012521  0.12358583  0.34178040  1
  O  O158  1  0.83033942  0.11959148  0.68882703  1
  O  O159  1  0.83249010  0.62778135  0.02370472  1
  O  O160  1  0.83002941  0.62931972  0.35449040  1
  O  O161  1  0.83461483  0.62819436  0.69240103  1
  O  O162  1  0.16422979  0.37504878  0.31092379  1
  O  O163  1  0.17432210  0.38047697  0.63935819  1
  O  O164  1  0.17296051  0.37701574  0.97512678  1
  O  O165  1  0.16032062  0.87477999  0.32276697  1
  O  O166  1  0.17084142  0.87032473  0.63776211  1
  O  O167  1  0.17118741  0.87176580  0.97795366  1
  O  O168  1  0.49982193  0.37766053  0.31627632  1
  O  O169  1  0.51371257  0.38107485  0.65968355  1
  O  O170  1  0.51078071  0.38294739  0.97534002  1
  O  O171  1  0.50823587  0.87339707  0.31081327  1
  O  O172  1  0.51201866  0.86846287  0.64577250  1
  O  O173  1  0.50599045  0.87195797  0.98439918  1
  O  O174  1  0.83016501  0.37576508  0.31157709  1
  O  O175  1  0.82930680  0.37993020  0.64987819  1
  O  O176  1  0.81890177  0.37681332  0.99021005  1
  O  O177  1  0.82138264  0.87385123  0.30645783  1
  O  O178  1  0.82649304  0.87095172  0.63856941  1
  O  O179  1  0.82375949  0.87499814  0.97211475  1
  O  O180  1  0.00306431  0.37514523  0.18107799  1
  O  O181  1  0.00692286  0.37970847  0.52316792  1
  O  O182  1  0.00607222  0.37330508  0.84743876  1
  O  O183  1  -0.00260652  0.87417713  0.18554293  1
  O  O184  1  0.00078858  0.87134576  0.51978215  1
  O  O185  1  0.00044198  0.87430880  0.85572616  1
  O  O186  1  0.33729543  0.37724005  0.17845004  1
  O  O187  1  0.32272602  0.38132621  0.52296909  1
  O  O188  1  0.33510830  0.38071016  0.85894389  1
  O  O189  1  0.33872340  0.87337748  0.17411485  1
  O  O190  1  0.32385866  0.87019935  0.52225883  1
  O  O191  1  0.32475885  0.86793272  0.85946962  1
  O  O192  1  0.68221069  0.37883208  0.17713077  1
  O  O193  1  0.67085940  0.38285795  0.52440887  1
  O  O194  1  0.66223018  0.38209550  0.86130940  1
  O  O195  1  0.67927755  0.87253314  0.19727736  1
  O  O196  1  0.67722445  0.87116357  0.53082668  1
  O  O197  1  0.67965820  0.87229203  0.86168381  1
  O  O198  1  -0.00853499  0.12630835  0.15387389  1
  O  O199  1  0.00525833  0.12180816  0.48912985  1
  O  O200  1  -0.00055396  0.12185229  0.81110562  1
  O  O201  1  -0.01024435  0.62500028  0.15183276  1
  O  O202  1  -0.00283562  0.62675124  0.48510938  1
  O  O203  1  0.00163639  0.62863971  0.80466710  1
  O  O204  1  0.32658997  0.12679007  0.15691539  1
  O  O205  1  0.32656206  0.11959668  0.47961114  1
  O  O206  1  0.32653307  0.12622198  0.82378038  1
  O  O207  1  0.33045535  0.62284833  0.14166901  1
  O  O208  1  0.33390870  0.62672171  0.49115155  1
  O  O209  1  0.32750598  0.62429242  0.80420798  1
  O  O210  1  0.67008290  0.12043159  0.14342234  1
  O  O211  1  0.66497957  0.11544219  0.48068104  1
  O  O212  1  0.67146018  0.11871312  0.81000839  1
  O  O213  1  0.65865723  0.62883593  0.14319086  1
  O  O214  1  0.66609970  0.63095895  0.47868283  1
  O  O215  1  0.66580440  0.62781742  0.81196167  1
  O  O216  1  0.08962181  0.01647964  0.24495902  1
  O  O217  1  0.08408640  0.00866696  0.58416049  1
  O  O218  1  0.08843203  0.01148342  0.90735655  1
  O  O219  1  0.08756739  0.51264723  0.23716461  1
  O  O220  1  0.08809176  0.52396257  0.57943260  1
  O  O221  1  0.09809200  0.51368757  0.90328248  1
  O  O222  1  0.41517981  0.00827939  0.25342428  1
  O  O223  1  0.41448207  -0.00689709  0.58470223  1
  O  O224  1  0.41625055  -0.00200084  0.91814412  1
  O  O225  1  0.42493768  0.51409567  0.23558279  1
  O  O226  1  0.42188910  0.52090131  0.58452344  1
  O  O227  1  0.42999762  0.52247597  0.90578480  1
  O  O228  1  0.75027437  0.02468590  0.24851368  1
  O  O229  1  0.74447733  0.01520419  0.59297940  1
  O  O230  1  0.75340687  0.02680536  0.91624500  1
  O  O231  1  0.75005900  0.52522426  0.24646352  1
  O  O232  1  0.75327783  0.52868579  0.58192201  1
  O  O233  1  0.75559324  0.52671575  0.91122807  1
  O  O234  1  0.25264019  0.22937476  0.25802141  1
  O  O235  1  0.24801670  0.23401832  0.58486092  1
  O  O236  1  0.25049949  0.24129662  0.91695471  1
  O  O237  1  0.24837308  0.73382867  0.24068412  1
  O  O238  1  0.25019977  0.72339478  0.59091823  1
  O  O239  1  0.25499813  0.72274719  0.91458344  1
  O  O240  1  0.59077004  0.23684208  0.25604206  1
  O  O241  1  0.59023646  0.24126080  0.59723619  1
  O  O242  1  0.59777567  0.23811818  0.93139607  1
  O  O243  1  0.59150789  0.73161543  0.25711978  1
  O  O244  1  0.58474616  0.72353809  0.58961648  1
  O  O245  1  0.59018179  0.72979084  0.92699511  1
  O  O246  1  0.91121332  0.24478944  0.24314021  1
  O  O247  1  0.92045232  0.24628562  0.58625178  1
  O  O248  1  0.91433698  0.23669776  0.91251515  1
  O  O249  1  0.90692048  0.74188780  0.24054928  1
  O  O250  1  0.91442808  0.72908677  0.57992985  1
  O  O251  1  0.91540575  0.73775166  0.90324186  1
  O  O252  1  0.08132703  0.48390843  0.07761092  1
  O  O253  1  0.08073660  0.48226029  0.41595799  1
  O  O254  1  0.07847734  0.47567800  0.73918544  1
  O  O255  1  0.08025885  0.98558065  0.07468894  1
  O  O256  1  0.08002731  0.98079775  0.41531178  1
  O  O257  1  0.08531669  0.97294353  0.74772595  1
  O  O258  1  0.40854204  0.48074559  0.06839732  1
  O  O259  1  0.41443425  0.49716964  0.41862617  1
  O  O260  1  0.40607946  0.47609078  0.74257952  1
  O  O261  1  0.42052373  0.98183822  0.08333390  1
  O  O262  1  0.41762334  0.98157402  0.42109415  1
  O  O263  1  0.41432673  0.97706480  0.74933584  1
  O  O264  1  0.74004588  0.49581619  0.07657316  1
  O  O265  1  0.75046135  0.49821869  0.41836539  1
  O  O266  1  0.73427545  0.48915035  0.74144234  1
  O  O267  1  0.74792392  0.97573019  0.08300275  1
  O  O268  1  0.74786977  0.97663596  0.41849882  1
  O  O269  1  0.75540367  0.97483224  0.75441626  1
  O  O270  1  0.24330654  0.26988353  0.09056933  1
  O  O271  1  0.23843625  0.26347918  0.42544451  1
  O  O272  1  0.24461168  0.27175474  0.75331216  1
  O  O273  1  0.25871332  0.76197158  0.07187768  1
  O  O274  1  0.24024622  0.75764704  0.42653733  1
  O  O275  1  0.24654020  0.77044587  0.75151875  1
  O  O276  1  0.57784331  0.27558430  0.09226332  1
  O  O277  1  0.58335908  0.25339506  0.42071756  1
  O  O278  1  0.57791351  0.26998671  0.76203531  1
  O  O279  1  0.58335158  0.77404410  0.09565724  1
  O  O280  1  0.58434193  0.77540679  0.42738771  1
  O  O281  1  0.58747872  0.76591607  0.75488743  1
  O  O282  1  0.90741469  0.26723670  0.08513709  1
  O  O283  1  0.91534967  0.26583602  0.41633944  1
  O  O284  1  0.91475238  0.25962476  0.74785842  1
  O  O285  1  0.91714925  0.77599700  0.07623875  1
  O  O286  1  0.91275824  0.77495477  0.41127870  1
  O  O287  1  0.91988493  0.77458261  0.74016007  1
  O  O288  1  0.24452353  0.47668143  0.08496980  1
  O  O289  1  0.23918762  0.49249951  0.42989937  1
  O  O290  1  0.23948738  0.48099686  0.75709243  1
  O  O291  1  0.25460795  0.98853402  0.07805445  1
  O  O292  1  0.24167066  0.98470159  0.42256438  1
  O  O293  1  0.24991227  0.97564280  0.74831266  1
  O  O294  1  0.57506398  0.47969852  0.09397090  1
  O  O295  1  0.58244771  0.50020332  0.42715416  1
  O  O296  1  0.56986805  0.49322183  0.76951835  1
  O  O297  1  0.58403921  0.97254225  0.09450740  1
  O  O298  1  0.58114742  0.97104415  0.42694168  1
  O  O299  1  0.58901299  0.97719489  0.75662590  1
  O  O300  1  0.90834859  0.48118233  0.08525649  1
  O  O301  1  0.91300707  0.48852383  0.41947299  1
  O  O302  1  0.91578467  0.49032790  0.74402128  1
  O  O303  1  0.91531603  0.97379319  0.07480174  1
  O  O304  1  0.91443694  0.97540572  0.41046438  1
  O  O305  1  0.91925255  0.97369111  0.74418858  1
  O  O306  1  0.07976428  0.27011127  0.07711168  1
  O  O307  1  0.08048778  0.26870734  0.41287669  1
  O  O308  1  0.07935433  0.27256699  0.74033692  1
  O  O309  1  0.08208415  0.76205726  0.07325016  1
  O  O310  1  0.07806098  0.76875497  0.41586758  1
  O  O311  1  0.08337775  0.77963738  0.74483166  1
  O  O312  1  0.41424875  0.27101413  0.07812891  1
  O  O313  1  0.40828035  0.25236867  0.41575904  1
  O  O314  1  0.41107961  0.27383707  0.74957590  1
  O  O315  1  0.41676764  0.76958015  0.07789041  1
  O  O316  1  0.42098442  0.76437854  0.42404293  1
  O  O317  1  0.41091871  0.77286519  0.74532942  1
  O  O318  1  0.74049795  0.26007413  0.07583983  1
  O  O319  1  0.74837943  0.25576576  0.41421636  1
  O  O320  1  0.73884113  0.26250132  0.74469397  1
  O  O321  1  0.74750079  0.76852642  0.08503534  1
  O  O322  1  0.74875235  0.77093796  0.41683354  1
  O  O323  1  0.75434508  0.76980283  0.74885755  1
  O  O324  1  0.25052579  0.01970436  0.25365884  1
  O  O325  1  0.24410592  0.01431992  0.58144055  1
  O  O326  1  0.24514381  0.01118775  0.90970210  1
  O  O327  1  0.24698697  0.51458601  0.24492273  1
  O  O328  1  0.25349194  0.52754613  0.59426991  1
  O  O329  1  0.26160391  0.52262507  0.92206186  1
  O  O330  1  0.59522458  0.01137006  0.26475394  1
  O  O331  1  0.58937206  0.00854277  0.59318831  1
  O  O332  1  0.59712154  0.00637350  0.92992856  1
  O  O333  1  0.58832786  0.52089808  0.25443995  1
  O  O334  1  0.58838289  0.52550310  0.59706266  1
  O  O335  1  0.59354248  0.52874506  0.93044648  1
  O  O336  1  0.90944887  0.00603280  0.23969101  1
  O  O337  1  0.91516388  0.00141592  0.58134218  1
  O  O338  1  0.91142169  0.01059672  0.90450589  1
  O  O339  1  0.90937675  0.50781975  0.24272728  1
  O  O340  1  0.91890705  0.51994091  0.58330269  1
  O  O341  1  0.91683720  0.51427532  0.91078532  1
  O  O342  1  0.09379300  0.23681359  0.23746725  1
  O  O343  1  0.08879064  0.23764142  0.57569373  1
  O  O344  1  0.09155793  0.23595813  0.90216982  1
  O  O345  1  0.08515493  0.73430997  0.24174565  1
  O  O346  1  0.08477369  0.72919641  0.58314717  1
  O  O347  1  0.09576028  0.73632131  0.90520429  1
  O  O348  1  0.41691784  0.24012269  0.25022333  1
  O  O349  1  0.41415576  0.25201124  0.58915287  1
  O  O350  1  0.42337833  0.25095658  0.91416500  1
  O  O351  1  0.42426110  0.73793570  0.23885965  1
  O  O352  1  0.41880702  0.73583911  0.58520619  1
  O  O353  1  0.42080694  0.72735642  0.90980352  1
  O  O354  1  0.75124481  0.23046991  0.24437145  1
  O  O355  1  0.74629969  0.23568522  0.58784826  1
  O  O356  1  0.75500263  0.22457578  0.91205999  1
  O  O357  1  0.74958459  0.72045747  0.24893521  1
  O  O358  1  0.75222968  0.72288372  0.58322208  1
  O  O359  1  0.75450885  0.72398606  0.91495548  1
