# generated using pymatgen
data_Ba17Sr5La8Pr42Mn72O216
_symmetry_space_group_name_H-M   'P 1'
_cell_length_a   16.67822929
_cell_length_b   15.70196513
_cell_length_c   16.82189807
_cell_angle_alpha   89.99982424
_cell_angle_beta   89.97073494
_cell_angle_gamma   90.01759700
_symmetry_Int_Tables_number   1
_chemical_formula_structural   Ba17Sr5La8Pr42Mn72O216
_chemical_formula_sum   'Ba17 Sr5 La8 Pr42 Mn72 O216'
_cell_volume   4405.33428210
_cell_formula_units_Z   1
loop_
 _symmetry_equiv_pos_site_id
 _symmetry_equiv_pos_as_xyz
  1  'x, y, z'
loop_
 _atom_site_type_symbol
 _atom_site_label
 _atom_site_symmetry_multiplicity
 _atom_site_fract_x
 _atom_site_fract_y
 _atom_site_fract_z
 _atom_site_occupancy
  Ba  Ba0  1  0.50338754  0.62549729  0.50025941  1
  Ba  Ba1  1  0.50083001  0.12450810  0.49983941  1
  Ba  Ba2  1  0.16208485  0.12452875  0.50193729  1
  Ba  Ba3  1  0.16846828  0.62357984  0.17053701  1
  Ba  Ba4  1  0.50109030  0.62082825  0.83302861  1
  Ba  Ba5  1  0.33298578  0.87451285  0.66846990  1
  Ba  Ba6  1  0.83544297  0.62572277  0.83168277  1
  Ba  Ba7  1  0.50120240  0.87525825  0.49790029  1
  Ba  Ba8  1  0.83262304  0.87483137  0.82955039  1
  Ba  Ba9  1  0.50299806  0.87621357  0.16545569  1
  Ba  Ba10  1  0.16754207  0.12404990  0.83623543  1
  Ba  Ba11  1  0.16496123  0.37595481  0.16614804  1
  Ba  Ba12  1  -0.00125479  0.37529237  -0.00166640  1
  Ba  Ba13  1  0.16683811  0.12524798  0.17060226  1
  Ba  Ba14  1  0.66648039  0.87494393  0.00040128  1
  Ba  Ba15  1  0.33085811  0.37546508  0.66820902  1
  Ba  Ba16  1  0.16387348  0.62528783  0.50304629  1
  Sr  Sr17  1  0.66985205  0.87548224  0.33284727  1
  Sr  Sr18  1  0.16756018  0.37337868  0.83385171  1
  Sr  Sr19  1  0.83335297  0.37566595  0.49787677  1
  Sr  Sr20  1  0.66444797  0.37436010  0.66735113  1
  Sr  Sr21  1  0.49643822  0.37495062  0.82863313  1
  La  La22  1  0.83199306  0.12577704  0.16408334  1
  La  La23  1  0.00019996  0.12850499  0.99766006  1
  La  La24  1  -0.00447573  0.12484975  0.66437576  1
  La  La25  1  0.83413588  0.87542143  0.49553483  1
  La  La26  1  0.83382532  0.62500526  0.16334832  1
  La  La27  1  0.34300090  0.62549461  0.33054370  1
  La  La28  1  0.66584326  0.37489752  0.33978569  1
  La  La29  1  0.82951100  0.12656934  0.83248589  1
  Pr  Pr30  1  0.00224922  0.37566565  0.33374868  1
  Pr  Pr31  1  0.83150390  0.37499337  0.16188912  1
  Pr  Pr32  1  0.33004721  0.12967910  0.66386948  1
  Pr  Pr33  1  0.16146286  0.37384562  0.49998849  1
  Pr  Pr34  1  0.66771837  0.12241721  0.33225477  1
  Pr  Pr35  1  0.83443491  0.87625772  0.15960817  1
  Pr  Pr36  1  0.66895068  0.62577497  0.66400513  1
  Pr  Pr37  1  0.49316886  0.37242287  0.16421179  1
  Pr  Pr38  1  0.50059369  0.87379357  0.82948907  1
  Pr  Pr39  1  -0.00059449  0.62431388  0.33049059  1
  Pr  Pr40  1  0.50894218  0.62514185  0.16867113  1
  Pr  Pr41  1  0.34038670  0.62088782  0.66490240  1
  Pr  Pr42  1  0.32265675  0.37456345  0.33867167  1
  Pr  Pr43  1  0.34371221  0.12448226  0.32967613  1
  Pr  Pr44  1  0.33185493  0.87541349  0.33979967  1
  Pr  Pr45  1  0.66918857  0.62948498  0.99602353  1
  Pr  Pr46  1  0.17024497  0.87510360  0.49985852  1
  Pr  Pr47  1  0.83541394  0.37555810  0.82482095  1
  Pr  Pr48  1  -0.00531510  0.62554622  0.66466528  1
  Pr  Pr49  1  -0.00329757  0.12491434  0.32921242  1
  Pr  Pr50  1  0.83059643  0.62249175  0.50170448  1
  Pr  Pr51  1  0.17111618  0.87176807  0.16720408  1
  Pr  Pr52  1  0.00535843  0.87517210  0.66770378  1
  Pr  Pr53  1  0.00605959  0.87458511  0.33494376  1
  Pr  Pr54  1  0.16701395  0.87588677  0.83435233  1
  Pr  Pr55  1  0.33272035  0.87509821  0.00219920  1
  Pr  Pr56  1  0.49333853  0.37522503  0.49758561  1
  Pr  Pr57  1  0.50653199  0.12368548  0.16880887  1
  Pr  Pr58  1  0.17262291  0.62477712  0.83686618  1
  Pr  Pr59  1  0.66158752  0.87527604  0.66822839  1
  Pr  Pr60  1  0.66488201  0.12511548  0.66411968  1
  Pr  Pr61  1  0.66278403  0.37974816  0.00006352  1
  Pr  Pr62  1  0.33488776  0.12768629  1.00026354  1
  Pr  Pr63  1  0.00740581  0.62260408  0.99569320  1
  Pr  Pr64  1  0.00193983  0.87456634  0.00191368  1
  Pr  Pr65  1  0.82881841  0.12766784  0.49862804  1
  Pr  Pr66  1  0.33885039  0.62202890  1.00169446  1
  Pr  Pr67  1  0.67007256  0.62801099  0.33423677  1
  Pr  Pr68  1  0.49709490  0.12903303  0.83099958  1
  Pr  Pr69  1  0.32736992  0.37515199  -0.00250271  1
  Pr  Pr70  1  0.00297053  0.37531613  0.66970555  1
  Pr  Pr71  1  0.66332194  0.12223907  0.99672671  1
  Mn  Mn72  1  -0.00081789  -0.00211760  0.16692761  1
  Mn  Mn73  1  -0.00350560  -0.00104663  0.49903068  1
  Mn  Mn74  1  -0.00109089  -0.00007644  0.83323404  1
  Mn  Mn75  1  -0.00325358  0.50156068  0.16612992  1
  Mn  Mn76  1  -0.00328798  0.49923154  0.50034399  1
  Mn  Mn77  1  0.00252825  0.50062443  0.83164462  1
  Mn  Mn78  1  0.33517405  0.00012528  0.16762018  1
  Mn  Mn79  1  0.33180915  0.00164238  0.50025258  1
  Mn  Mn80  1  0.33485237  0.00076221  0.83613342  1
  Mn  Mn81  1  0.33749295  0.49869113  0.16720515  1
  Mn  Mn82  1  0.33177925  0.50011893  0.50058627  1
  Mn  Mn83  1  0.33247339  0.50051138  0.83343642  1
  Mn  Mn84  1  0.66940368  0.00150346  0.16583857  1
  Mn  Mn85  1  0.66934208  0.00087992  0.49939666  1
  Mn  Mn86  1  0.66456354  0.00155411  0.83106731  1
  Mn  Mn87  1  0.66777710  0.49791929  0.16876458  1
  Mn  Mn88  1  0.66676495  0.49699430  0.50071703  1
  Mn  Mn89  1  0.66756570  0.49810124  0.83294755  1
  Mn  Mn90  1  -0.00300299  0.24950601  0.16637052  1
  Mn  Mn91  1  -0.00439283  0.25115790  0.49945298  1
  Mn  Mn92  1  -0.00088656  0.24975479  0.83122198  1
  Mn  Mn93  1  -0.00118705  0.75061516  0.16737050  1
  Mn  Mn94  1  -0.00292434  0.75100352  0.49981258  1
  Mn  Mn95  1  0.00294363  0.75068140  0.83323893  1
  Mn  Mn96  1  0.33507602  0.25022163  0.16687279  1
  Mn  Mn97  1  0.33115451  0.24952289  0.49981931  1
  Mn  Mn98  1  0.33321586  0.24927591  0.83284128  1
  Mn  Mn99  1  0.33730213  0.74990984  0.16773446  1
  Mn  Mn100  1  0.33260495  0.74826081  0.50099679  1
  Mn  Mn101  1  0.33444174  0.74937774  0.83672799  1
  Mn  Mn102  1  0.66748188  0.25239339  0.16726963  1
  Mn  Mn103  1  0.66619070  0.25196519  0.50066992  1
  Mn  Mn104  1  0.66591562  0.25105721  0.83319335  1
  Mn  Mn105  1  0.66991709  0.74856928  0.16689619  1
  Mn  Mn106  1  0.66967154  0.75091596  0.49875267  1
  Mn  Mn107  1  0.66606719  0.74956790  0.83207088  1
  Mn  Mn108  1  0.16690064  0.24914478  0.00156698  1
  Mn  Mn109  1  0.16453159  0.24907674  0.33629050  1
  Mn  Mn110  1  0.16386894  0.24969008  0.66810578  1
  Mn  Mn111  1  0.16872891  0.74964576  0.00197858  1
  Mn  Mn112  1  0.16721820  0.74963659  0.33507678  1
  Mn  Mn113  1  0.16496857  0.74907726  0.67065708  1
  Mn  Mn114  1  0.49989693  0.25192823  -0.00059114  1
  Mn  Mn115  1  0.50177175  0.25175053  0.33080837  1
  Mn  Mn116  1  0.50108613  0.25066948  0.66684458  1
  Mn  Mn117  1  0.49923877  0.74890051  0.00012823  1
  Mn  Mn118  1  0.50260877  0.75009953  0.33181352  1
  Mn  Mn119  1  0.50039400  0.74955527  0.66741825  1
  Mn  Mn120  1  0.82969336  0.25085240  -0.00255596  1
  Mn  Mn121  1  0.83339650  0.25101351  0.33122685  1
  Mn  Mn122  1  0.83273453  0.25055686  0.66478142  1
  Mn  Mn123  1  0.83638851  0.75010941  -0.00039724  1
  Mn  Mn124  1  0.83511287  0.75005632  0.33137897  1
  Mn  Mn125  1  0.83173656  0.75063816  0.66182242  1
  Mn  Mn126  1  0.16717005  -0.00123407  0.00423610  1
  Mn  Mn127  1  0.16620450  0.00050397  0.33487454  1
  Mn  Mn128  1  0.16522904  -0.00014956  0.66892530  1
  Mn  Mn129  1  0.16829637  0.50104245  0.00044289  1
  Mn  Mn130  1  0.16562329  0.50061461  0.33667882  1
  Mn  Mn131  1  0.16384946  0.50186570  0.67030371  1
  Mn  Mn132  1  0.49786522  0.00383664  -0.00199452  1
  Mn  Mn133  1  0.50236920  -0.00009276  0.33206907  1
  Mn  Mn134  1  0.49924858  0.00076361  0.66804369  1
  Mn  Mn135  1  0.49972718  0.49627074  0.00211886  1
  Mn  Mn136  1  0.50238457  0.49805023  0.33104846  1
  Mn  Mn137  1  0.50277048  0.49814090  0.66643582  1
  Mn  Mn138  1  0.83471288  0.00137762  -0.00194903  1
  Mn  Mn139  1  0.83441134  -0.00051453  0.33066692  1
  Mn  Mn140  1  0.83181435  0.00058213  0.66237948  1
  Mn  Mn141  1  0.83179477  0.49946964  -0.00228544  1
  Mn  Mn142  1  0.83359020  0.50039015  0.33165427  1
  Mn  Mn143  1  0.83287312  0.49821667  0.66406891  1
  O  O144  1  0.16881297  0.12060434  0.01387253  1
  O  O145  1  0.15492018  0.12458191  0.34603273  1
  O  O146  1  0.16138435  0.12297174  0.67877071  1
  O  O147  1  0.16263350  0.62778525  0.01541756  1
  O  O148  1  0.15855050  0.62513630  0.34608438  1
  O  O149  1  0.15259255  0.62743514  0.69294057  1
  O  O150  1  0.49662780  0.13039496  0.02691235  1
  O  O151  1  0.49903836  0.12777624  0.34328492  1
  O  O152  1  0.50443022  0.12505672  0.68694952  1
  O  O153  1  0.49196974  0.61649968  0.02654751  1
  O  O154  1  0.49993392  0.62225011  0.34371087  1
  O  O155  1  0.50135512  0.62542667  0.67555216  1
  O  O156  1  0.83183887  0.12725481  0.01994067  1
  O  O157  1  0.83543307  0.12759627  0.35601076  1
  O  O158  1  0.83494079  0.12591860  0.68857403  1
  O  O159  1  0.82968035  0.62484318  0.01871687  1
  O  O160  1  0.83420699  0.62711374  0.35938628  1
  O  O161  1  0.82993716  0.62350740  0.67638639  1
  O  O162  1  0.16688527  0.37460126  0.32236032  1
  O  O163  1  0.15971552  0.37612990  0.64381865  1
  O  O164  1  0.17524468  0.37829327  0.98557879  1
  O  O165  1  0.16932580  0.87535865  0.31097182  1
  O  O166  1  0.16057482  0.87428472  0.64370511  1
  O  O167  1  0.17019513  0.87279573  0.97804894  1
  O  O168  1  0.51094832  0.37411363  0.30533343  1
  O  O169  1  0.50270339  0.37288116  0.64247461  1
  O  O170  1  0.51028856  0.37285520  0.97718964  1
  O  O171  1  0.49744614  0.87509319  0.32221482  1
  O  O172  1  0.50543991  0.87572231  0.65589583  1
  O  O173  1  0.49309889  0.88193072  0.97431849  1
  O  O174  1  0.83314483  0.37362393  0.30434052  1
  O  O175  1  0.84173508  0.37390377  0.64713686  1
  O  O176  1  0.82694837  0.37298511  0.97063880  1
  O  O177  1  0.83606411  0.87205229  0.30313882  1
  O  O178  1  0.82694278  0.87615416  0.63914136  1
  O  O179  1  0.84093262  0.87553601  0.98780677  1
  O  O180  1  -0.01343568  0.37715011  0.18792502  1
  O  O181  1  -0.00314433  0.37547862  0.52530610  1
  O  O182  1  -0.01236499  0.37422065  0.84237685  1
  O  O183  1  -0.01097382  0.87418829  0.19223153  1
  O  O184  1  -0.01327088  0.87478212  0.52522744  1
  O  O185  1  0.00271485  0.87445038  0.85762003  1
  O  O186  1  0.34046343  0.37372399  0.19378725  1
  O  O187  1  0.33821874  0.37345241  0.50917983  1
  O  O188  1  0.33272013  0.37518555  0.85263259  1
  O  O189  1  0.33058857  0.87581489  0.19354870  1
  O  O190  1  0.32927173  0.87579424  0.50886142  1
  O  O191  1  0.33877336  0.87501513  0.85923264  1
  O  O192  1  0.67291517  0.37483312  0.19754003  1
  O  O193  1  0.66579451  0.37366190  0.51650818  1
  O  O194  1  0.67369601  0.37210845  0.85796996  1
  O  O195  1  0.67679368  0.87499126  0.18194725  1
  O  O196  1  0.67723071  0.87825749  0.52207210  1
  O  O197  1  0.65888104  0.87728302  0.84334702  1
  O  O198  1  -0.00383895  0.11967937  0.14342840  1
  O  O199  1  -0.00718035  0.12430663  0.47192870  1
  O  O200  1  -0.00346667  0.12467984  0.80896268  1
  O  O201  1  -0.00455669  0.62848124  0.14121533  1
  O  O202  1  -0.00662295  0.62611207  0.47304105  1
  O  O203  1  0.01096389  0.62723776  0.80873848  1
  O  O204  1  0.34113974  0.12603675  0.14455659  1
  O  O205  1  0.33081860  0.12682861  0.47500353  1
  O  O206  1  0.33787516  0.12298225  0.80879589  1
  O  O207  1  0.34393629  0.62294911  0.14578655  1
  O  O208  1  0.33238153  0.62311802  0.47593626  1
  O  O209  1  0.32667758  0.62719549  0.81058401  1
  O  O210  1  0.66761220  0.13148732  0.14086802  1
  O  O211  1  0.67378650  0.12766984  0.47585117  1
  O  O212  1  0.66663041  0.12630625  0.80784142  1
  O  O213  1  0.66733763  0.61861499  0.14047496  1
  O  O214  1  0.67435418  0.62183233  0.47767374  1
  O  O215  1  0.66757777  0.62406682  0.80984352  1
  O  O216  1  0.07216865  0.00855728  0.25990659  1
  O  O217  1  0.06723450  0.01001803  0.59127179  1
  O  O218  1  0.07574924  0.00939792  0.93199008  1
  O  O219  1  0.07577986  0.50926513  0.25771730  1
  O  O220  1  0.07325792  0.51441385  0.59113406  1
  O  O221  1  0.08875405  0.51857314  0.91340011  1
  O  O222  1  0.42209729  0.02126023  0.24320447  1
  O  O223  1  0.41181329  0.01772511  0.59106612  1
  O  O224  1  0.41769940  0.03080304  0.91704201  1
  O  O225  1  0.43053998  0.51516633  0.23898836  1
  O  O226  1  0.41640137  0.50998600  0.57960217  1
  O  O227  1  0.41159741  0.50946909  0.92321193  1
  O  O228  1  0.74859317  0.02331030  0.25427197  1
  O  O229  1  0.74920428  0.02787502  0.58260456  1
  O  O230  1  0.74521489  0.02033741  0.91538305  1
  O  O231  1  0.75426166  0.52363607  0.24580746  1
  O  O232  1  0.75101379  0.51681800  0.58070094  1
  O  O233  1  0.74701348  0.51657153  0.92084465  1
  O  O234  1  0.26219532  0.23599003  0.26098369  1
  O  O235  1  0.24875799  0.23680727  0.58846721  1
  O  O236  1  0.25869130  0.23770899  0.92374076  1
  O  O237  1  0.26276550  0.73551083  0.25703588  1
  O  O238  1  0.25062900  0.73191400  0.59546510  1
  O  O239  1  0.25566470  0.72902549  0.92468554  1
  O  O240  1  0.59050579  0.22725768  0.25324235  1
  O  O241  1  0.58777529  0.23367394  0.58907933  1
  O  O242  1  0.58414979  0.22576272  0.92094056  1
  O  O243  1  0.58898963  0.72951168  0.25053108  1
  O  O244  1  0.59356308  0.74084214  0.59044196  1
  O  O245  1  0.58500607  0.73439712  0.92174588  1
  O  O246  1  0.91521793  0.22596704  0.24919095  1
  O  O247  1  0.91103844  0.22617712  0.57763486  1
  O  O248  1  0.91287471  0.22916568  0.91076068  1
  O  O249  1  0.91542832  0.72352679  0.24862890  1
  O  O250  1  0.90990846  0.72857803  0.57448393  1
  O  O251  1  0.92815893  0.73424149  0.92290839  1
  O  O252  1  0.07816715  0.49510461  0.08115166  1
  O  O253  1  0.08000333  0.47723242  0.42273925  1
  O  O254  1  0.08113774  0.47693835  0.74980550  1
  O  O255  1  0.08647147  0.97158380  0.09317440  1
  O  O256  1  0.08376363  0.97302122  0.42573133  1
  O  O257  1  0.08508374  0.97733004  0.75624892  1
  O  O258  1  0.41441522  0.47003877  0.08016481  1
  O  O259  1  0.41428947  0.47908212  0.40320302  1
  O  O260  1  0.41386328  0.49469746  0.74859911  1
  O  O261  1  0.40804802  0.98582176  0.07439925  1
  O  O262  1  0.40890475  0.99181018  0.40806899  1
  O  O263  1  0.42426474  0.98715410  0.76067180  1
  O  O264  1  0.74335415  0.47510141  0.08384785  1
  O  O265  1  0.74545609  0.48344924  0.41028865  1
  O  O266  1  0.75573050  0.47925903  0.74906009  1
  O  O267  1  0.75982320  0.99183237  0.09102632  1
  O  O268  1  0.76001671  0.98537418  0.42021630  1
  O  O269  1  0.74558859  0.98922929  0.74158286  1
  O  O270  1  0.25512828  0.26196380  0.08436414  1
  O  O271  1  0.24420832  0.26992457  0.42196108  1
  O  O272  1  0.24860223  0.25608625  0.75259751  1
  O  O273  1  0.24921268  0.77018057  0.08873403  1
  O  O274  1  0.24634357  0.76929291  0.42010993  1
  O  O275  1  0.24209141  0.76510404  0.76580892  1
  O  O276  1  0.58104468  0.27257888  0.08985646  1
  O  O277  1  0.57774355  0.27142756  0.41882543  1
  O  O278  1  0.58460468  0.26385256  0.75403088  1
  O  O279  1  0.58358740  0.75108343  0.08428240  1
  O  O280  1  0.59148068  0.75728419  0.41300630  1
  O  O281  1  0.58148022  0.76732805  0.75122154  1
  O  O282  1  0.90632346  0.26162900  0.08710418  1
  O  O283  1  0.91846965  0.27158571  0.40974931  1
  O  O284  1  0.91846552  0.26519428  0.74350864  1
  O  O285  1  0.91894235  0.76982354  0.08520713  1
  O  O286  1  0.92090444  0.77231372  0.40918021  1
  O  O287  1  0.92194399  0.76174963  0.73698953  1
  O  O288  1  0.25666590  0.49011218  0.08085060  1
  O  O289  1  0.24462805  0.47901145  0.42444144  1
  O  O290  1  0.24201532  0.49416492  0.75859811  1
  O  O291  1  0.24822190  0.97587481  0.09016041  1
  O  O292  1  0.24631806  0.98067367  0.41903379  1
  O  O293  1  0.24773385  0.98307649  0.76155863  1
  O  O294  1  0.57809283  0.47645416  0.09591575  1
  O  O295  1  0.57767556  0.47739639  0.42167836  1
  O  O296  1  0.58487705  0.48269533  0.75473760  1
  O  O297  1  0.58413768  0.99913827  0.07989542  1
  O  O298  1  0.59261345  0.99338765  0.41202625  1
  O  O299  1  0.58256635  0.98376516  0.75050662  1
  O  O300  1  0.90440815  0.48743627  0.08950996  1
  O  O301  1  0.91829675  0.48073125  0.41058492  1
  O  O302  1  0.91945572  0.48831194  0.74365553  1
  O  O303  1  0.92490320  0.98119390  0.07884174  1
  O  O304  1  0.92317465  0.97923789  0.40577803  1
  O  O305  1  0.92139083  0.98509086  0.73390652  1
  O  O306  1  0.07760996  0.25429113  0.08444008  1
  O  O307  1  0.08006357  0.27288343  0.42228026  1
  O  O308  1  0.08044709  0.26848034  0.74945080  1
  O  O309  1  0.08314437  0.77428851  0.08518016  1
  O  O310  1  0.08271723  0.77583712  0.42436889  1
  O  O311  1  0.08389137  0.77840688  0.75311548  1
  O  O312  1  0.41369214  0.27508406  0.07657485  1
  O  O313  1  0.41365530  0.26979314  0.40541049  1
  O  O314  1  0.41985277  0.25626269  0.75181400  1
  O  O315  1  0.40967383  0.76699455  0.07763171  1
  O  O316  1  0.41044187  0.75881249  0.40424749  1
  O  O317  1  0.41874766  0.76231981  0.75656104  1
  O  O318  1  0.74426464  0.27551029  0.08198746  1
  O  O319  1  0.74808081  0.26649747  0.41070164  1
  O  O320  1  0.75711635  0.26562342  0.75402962  1
  O  O321  1  0.75816973  0.75900971  0.09104046  1
  O  O322  1  0.75711385  0.76862325  0.41729387  1
  O  O323  1  0.74346558  0.76321431  0.73818806  1
  O  O324  1  0.26115934  0.01639217  0.25835209  1
  O  O325  1  0.25092197  0.01400347  0.58827504  1
  O  O326  1  0.25981314  0.01022777  0.92785143  1
  O  O327  1  0.26448706  0.51163212  0.25952807  1
  O  O328  1  0.25104234  0.51869527  0.59561148  1
  O  O329  1  0.25342419  0.52248677  0.92044324  1
  O  O330  1  0.58720110  0.02042187  0.24725867  1
  O  O331  1  0.59011889  0.01193815  0.58958616  1
  O  O332  1  0.57918663  0.02646718  0.91420358  1
  O  O333  1  0.59418354  0.52236401  0.25748268  1
  O  O334  1  0.59292176  0.51370495  0.58950633  1
  O  O335  1  0.59068184  0.51518648  0.93359843  1
  O  O336  1  0.91095528  0.02245456  0.24307681  1
  O  O337  1  0.90645755  0.02161219  0.57103399  1
  O  O338  1  0.91279158  0.02304175  0.91061320  1
  O  O339  1  0.91685280  0.52569504  0.25048610  1
  O  O340  1  0.91328390  0.52248476  0.57858483  1
  O  O341  1  0.92680403  0.51803444  0.91917615  1
  O  O342  1  0.07474176  0.24192166  0.25889039  1
  O  O343  1  0.07170334  0.23893384  0.58941022  1
  O  O344  1  0.07655482  0.23729055  0.91923351  1
  O  O345  1  0.07685864  0.74158922  0.25589966  1
  O  O346  1  0.06989214  0.73783739  0.59143408  1
  O  O347  1  0.08963625  0.73261265  0.91669488  1
  O  O348  1  0.42670687  0.23212698  0.24002033  1
  O  O349  1  0.41249887  0.23448893  0.58460120  1
  O  O350  1  0.41793171  0.22937284  0.91567080  1
  O  O351  1  0.42521841  0.72958519  0.24247900  1
  O  O352  1  0.41372288  0.73532472  0.58760408  1
  O  O353  1  0.41318000  0.73148032  0.92096117  1
  O  O354  1  0.75229364  0.22694425  0.24686414  1
  O  O355  1  0.74958058  0.22925213  0.58572639  1
  O  O356  1  0.74683028  0.22440348  0.91723606  1
  O  O357  1  0.75084478  0.72508472  0.25290392  1
  O  O358  1  0.75108739  0.72780105  0.57902740  1
  O  O359  1  0.74808155  0.73752669  0.91932625  1
