# generated using pymatgen
data_Ba17Sr5La8Pr42Mn72O216
_symmetry_space_group_name_H-M   'P 1'
_cell_length_a   16.68105433
_cell_length_b   15.70686706
_cell_length_c   16.82179838
_cell_angle_alpha   90.00514644
_cell_angle_beta   90.01515719
_cell_angle_gamma   90.01550691
_symmetry_Int_Tables_number   1
_chemical_formula_structural   Ba17Sr5La8Pr42Mn72O216
_chemical_formula_sum   'Ba17 Sr5 La8 Pr42 Mn72 O216'
_cell_volume   4407.43032322
_cell_formula_units_Z   1
loop_
 _symmetry_equiv_pos_site_id
 _symmetry_equiv_pos_as_xyz
  1  'x, y, z'
loop_
 _atom_site_type_symbol
 _atom_site_label
 _atom_site_symmetry_multiplicity
 _atom_site_fract_x
 _atom_site_fract_y
 _atom_site_fract_z
 _atom_site_occupancy
  Ba  Ba0  1  0.50064704  0.87390877  0.83205691  1
  Ba  Ba1  1  0.50215444  0.37476358  0.83132236  1
  Ba  Ba2  1  -0.00049641  0.62497641  0.32995707  1
  Ba  Ba3  1  0.16590554  0.12260041  0.50028755  1
  Ba  Ba4  1  0.33360063  0.37538355  -0.00073630  1
  Ba  Ba5  1  -0.00195660  0.87572176  0.33254026  1
  Ba  Ba6  1  0.66933328  0.37662752  0.66842088  1
  Ba  Ba7  1  0.33340993  0.12396906  0.66452589  1
  Ba  Ba8  1  0.50046677  0.12310448  0.83022730  1
  Ba  Ba9  1  0.16152704  0.87366108  0.83495502  1
  Ba  Ba10  1  0.33305975  0.62569603  1.00088884  1
  Ba  Ba11  1  0.66781749  0.87472447  0.00365253  1
  Ba  Ba12  1  0.50208176  0.37461317  0.49823876  1
  Ba  Ba13  1  0.50227501  0.37374340  0.16535463  1
  Ba  Ba14  1  0.33315990  0.37557453  0.66678128  1
  Ba  Ba15  1  0.16653104  0.37772874  0.83100179  1
  Ba  Ba16  1  0.33422242  0.62738876  0.33271567  1
  Sr  Sr17  1  0.15927121  0.87236521  0.16455724  1
  Sr  Sr18  1  0.16896293  0.63051295  0.49620193  1
  Sr  Sr19  1  0.00045572  0.12259897  0.33296969  1
  Sr  Sr20  1  0.16186600  0.87585589  0.49714871  1
  Sr  Sr21  1  0.83440682  0.12702495  0.83734853  1
  La  La22  1  0.83224319  0.87518605  0.50159690  1
  La  La23  1  0.00089811  0.12443532  0.66550812  1
  La  La24  1  0.83271606  0.62269734  0.83904227  1
  La  La25  1  0.66373876  0.12433814  0.66980170  1
  La  La26  1  0.67039097  0.37349566  0.34145941  1
  La  La27  1  0.32345190  0.87411058  0.33282256  1
  La  La28  1  0.32891333  0.87810211  0.00213310  1
  La  La29  1  0.49827224  0.62209433  0.83127672  1
  Pr  Pr30  1  0.33307048  0.37776563  0.33627090  1
  Pr  Pr31  1  0.66496485  0.87594592  0.33655622  1
  Pr  Pr32  1  0.83369104  0.12261541  0.50597718  1
  Pr  Pr33  1  0.00441035  0.62502673  0.66114355  1
  Pr  Pr34  1  0.66836901  0.87451596  0.67526996  1
  Pr  Pr35  1  0.49609858  0.62518988  0.16701843  1
  Pr  Pr36  1  0.33713553  0.12416008  0.33269154  1
  Pr  Pr37  1  0.00523336  0.37259734  0.33633695  1
  Pr  Pr38  1  0.82914708  0.62720579  0.17394104  1
  Pr  Pr39  1  -0.00103293  0.87573559  0.66673600  1
  Pr  Pr40  1  0.83383223  0.87742439  0.83411344  1
  Pr  Pr41  1  0.49613220  0.87221600  0.15908145  1
  Pr  Pr42  1  0.49462265  0.87565458  0.49601979  1
  Pr  Pr43  1  0.50274038  0.12407904  0.16307504  1
  Pr  Pr44  1  0.00036761  0.37171593  -0.00041282  1
  Pr  Pr45  1  0.17286190  0.12589954  0.17208625  1
  Pr  Pr46  1  0.00301732  0.37415398  0.66743844  1
  Pr  Pr47  1  0.83803455  0.87525600  0.16748319  1
  Pr  Pr48  1  0.00214983  0.62572673  0.99788263  1
  Pr  Pr49  1  0.49722625  0.62376999  0.50119129  1
  Pr  Pr50  1  0.83390796  0.62700037  0.50457770  1
  Pr  Pr51  1  0.83146078  0.12161316  0.17129841  1
  Pr  Pr52  1  0.33933856  0.12581447  0.99306096  1
  Pr  Pr53  1  -0.00415023  0.87800884  0.00482036  1
  Pr  Pr54  1  0.66569338  0.12556993  0.99638252  1
  Pr  Pr55  1  0.00351332  0.12448069  0.99667575  1
  Pr  Pr56  1  0.66193711  0.62424915  1.00059035  1
  Pr  Pr57  1  0.66457327  0.12631986  0.33575933  1
  Pr  Pr58  1  0.32059639  0.87529001  0.66691884  1
  Pr  Pr59  1  0.17016080  0.37509086  0.49805374  1
  Pr  Pr60  1  0.16457350  0.37996255  0.16195459  1
  Pr  Pr61  1  0.17279725  0.12606757  0.83332458  1
  Pr  Pr62  1  0.33603042  0.62563350  0.66440883  1
  Pr  Pr63  1  0.66174899  0.62597988  0.66703556  1
  Pr  Pr64  1  0.17458050  0.62529281  0.17231690  1
  Pr  Pr65  1  0.83780308  0.37320866  0.83215337  1
  Pr  Pr66  1  0.67093121  0.37079190  0.00206101  1
  Pr  Pr67  1  0.66242968  0.62239930  0.33294041  1
  Pr  Pr68  1  0.50012855  0.12585469  0.50533375  1
  Pr  Pr69  1  0.83911132  0.37357624  0.49908887  1
  Pr  Pr70  1  0.17323280  0.62548725  0.83195945  1
  Pr  Pr71  1  0.83770961  0.37311654  0.17095241  1
  Mn  Mn72  1  -0.00077639  0.00311787  0.16538016  1
  Mn  Mn73  1  -0.00215005  0.00019804  0.50005833  1
  Mn  Mn74  1  -0.00095194  0.00100893  0.83400048  1
  Mn  Mn75  1  -0.00235423  0.49879838  0.16398720  1
  Mn  Mn76  1  0.00058442  0.50098083  0.49889514  1
  Mn  Mn77  1  -0.00112419  0.50234785  0.83100562  1
  Mn  Mn78  1  0.33257586  0.00155782  0.16551831  1
  Mn  Mn79  1  0.33345585  -0.00328301  0.49740826  1
  Mn  Mn80  1  0.33210711  -0.00254752  0.83326603  1
  Mn  Mn81  1  0.33416311  0.49859062  0.16756001  1
  Mn  Mn82  1  0.33278595  0.50189436  0.49876731  1
  Mn  Mn83  1  0.33368043  0.50158210  0.83104977  1
  Mn  Mn84  1  0.66647168  0.00085007  0.17017361  1
  Mn  Mn85  1  0.66646380  -0.00271178  0.50234555  1
  Mn  Mn86  1  0.66999611  -0.00001419  0.83527808  1
  Mn  Mn87  1  0.66910414  0.49891748  0.16770008  1
  Mn  Mn88  1  0.67042664  0.50278125  0.50080433  1
  Mn  Mn89  1  0.67038724  0.50241007  0.83602791  1
  Mn  Mn90  1  -0.00089755  0.24854982  0.16685444  1
  Mn  Mn91  1  -0.00083899  0.24995271  0.49981358  1
  Mn  Mn92  1  0.00072964  0.24885041  0.83246908  1
  Mn  Mn93  1  -0.00195147  0.74877887  0.16272962  1
  Mn  Mn94  1  -0.00098948  0.74896580  0.49996816  1
  Mn  Mn95  1  -0.00294345  0.74819984  0.83252551  1
  Mn  Mn96  1  0.33379169  0.24710704  0.16629807  1
  Mn  Mn97  1  0.33300169  0.25129645  0.49676727  1
  Mn  Mn98  1  0.33385360  0.24920298  0.83189418  1
  Mn  Mn99  1  0.33177954  0.75339349  0.16590571  1
  Mn  Mn100  1  0.33323980  0.75165456  0.49917872  1
  Mn  Mn101  1  0.33293244  0.75161724  0.83145406  1
  Mn  Mn102  1  0.66899989  0.24802062  0.16864420  1
  Mn  Mn103  1  0.67007988  0.24777245  0.50154009  1
  Mn  Mn104  1  0.67048377  0.24875429  0.83505430  1
  Mn  Mn105  1  0.66656153  0.74965579  0.17038660  1
  Mn  Mn106  1  0.66638866  0.75122192  0.50194895  1
  Mn  Mn107  1  0.66942688  0.74871657  0.83468043  1
  Mn  Mn108  1  0.16590315  0.24883484  0.00261854  1
  Mn  Mn109  1  0.16740764  0.24841073  0.33113419  1
  Mn  Mn110  1  0.16486941  0.24983078  0.66566637  1
  Mn  Mn111  1  0.16343419  0.74938761  -0.00044894  1
  Mn  Mn112  1  0.16420617  0.75113633  0.33261424  1
  Mn  Mn113  1  0.16412015  0.74955023  0.66491527  1
  Mn  Mn114  1  0.50230302  0.25023806  -0.00048968  1
  Mn  Mn115  1  0.50055584  0.24684399  0.33172892  1
  Mn  Mn116  1  0.50107031  0.24940310  0.66572202  1
  Mn  Mn117  1  0.49953363  0.74916425  -0.00126284  1
  Mn  Mn118  1  0.50124076  0.75347394  0.33089973  1
  Mn  Mn119  1  0.50063853  0.75224692  0.66216746  1
  Mn  Mn120  1  0.83497191  0.25034525  0.00330653  1
  Mn  Mn121  1  0.83442024  0.24721819  0.33548543  1
  Mn  Mn122  1  0.83392129  0.24947433  0.66860456  1
  Mn  Mn123  1  0.83390297  0.74798925  0.00364736  1
  Mn  Mn124  1  0.82959491  0.75095295  0.33653849  1
  Mn  Mn125  1  0.83477637  0.74902793  0.67039415  1
  Mn  Mn126  1  0.16446190  0.00158967  0.00264189  1
  Mn  Mn127  1  0.16540921  0.00093236  0.33236088  1
  Mn  Mn128  1  0.16324543  -0.00189580  0.66651829  1
  Mn  Mn129  1  0.16413417  0.50115530  -0.00053949  1
  Mn  Mn130  1  0.16616910  0.49919261  0.33069195  1
  Mn  Mn131  1  0.16582186  0.50389284  0.66251070  1
  Mn  Mn132  1  0.50034781  -0.00154810  0.00047421  1
  Mn  Mn133  1  0.50010147  -0.00065190  0.33076839  1
  Mn  Mn134  1  0.50196500  -0.00286949  0.66152632  1
  Mn  Mn135  1  0.50301299  0.50045162  -0.00027001  1
  Mn  Mn136  1  0.50174459  0.50026613  0.33113756  1
  Mn  Mn137  1  0.50091395  0.50209732  0.66605962  1
  Mn  Mn138  1  0.83397562  0.00191129  0.00247972  1
  Mn  Mn139  1  0.83080516  0.00055296  0.33628627  1
  Mn  Mn140  1  0.83388277  0.00062548  0.66932352  1
  Mn  Mn141  1  0.83434786  0.49881152  0.00487563  1
  Mn  Mn142  1  0.83311764  0.49935074  0.33552802  1
  Mn  Mn143  1  0.83532362  0.50165667  0.66956796  1
  O  O144  1  0.15909378  0.12572289  0.02917791  1
  O  O145  1  0.17223575  0.12587600  0.34516024  1
  O  O146  1  0.15665162  0.12041883  0.68522963  1
  O  O147  1  0.15686317  0.62482918  0.02730592  1
  O  O148  1  0.16664765  0.62364083  0.34205917  1
  O  O149  1  0.15748066  0.62822888  0.68686134  1
  O  O150  1  0.50182593  0.12226616  0.01744364  1
  O  O151  1  0.49786307  0.12170473  0.36109461  1
  O  O152  1  0.50295029  0.12020416  0.67074084  1
  O  O153  1  0.50865393  0.62472276  0.02285362  1
  O  O154  1  0.50594376  0.63202513  0.35796659  1
  O  O155  1  0.49524241  0.63086752  0.68281371  1
  O  O156  1  0.83546748  0.12753776  0.02825849  1
  O  O157  1  0.83002124  0.12356219  0.36150532  1
  O  O158  1  0.83876266  0.12208417  0.68795811  1
  O  O159  1  0.84037103  0.61874478  0.03277232  1
  O  O160  1  0.82728555  0.62627205  0.35822247  1
  O  O161  1  0.84179875  0.62595749  0.69591622  1
  O  O162  1  0.16277023  0.37094987  0.30606482  1
  O  O163  1  0.15913945  0.38113834  0.64361070  1
  O  O164  1  0.15885103  0.37436524  0.98738497  1
  O  O165  1  0.16778767  0.87915797  0.31642783  1
  O  O166  1  0.16405662  0.87209145  0.64961593  1
  O  O167  1  0.15967247  0.87560970  0.99048822  1
  O  O168  1  0.50514182  0.36879313  0.32151480  1
  O  O169  1  0.50305238  0.37926291  0.65774273  1
  O  O170  1  0.51120359  0.37742550  0.99008564  1
  O  O171  1  0.51143620  0.87740986  0.30180029  1
  O  O172  1  0.51732851  0.87316010  0.63903889  1
  O  O173  1  0.49690804  0.87491933  0.99258141  1
  O  O174  1  0.82524352  0.37171149  0.31391659  1
  O  O175  1  0.83726744  0.37834556  0.64236172  1
  O  O176  1  0.82987804  0.37571383  0.97463260  1
  O  O177  1  0.82387054  0.87685935  0.31056158  1
  O  O178  1  0.83244126  0.87408919  0.64431933  1
  O  O179  1  0.83975024  0.87769836  0.97719954  1
  O  O180  1  0.00219214  0.37192753  0.19340146  1
  O  O181  1  -0.00200545  0.37696108  0.52329815  1
  O  O182  1  -0.00410655  0.37668126  0.85663357  1
  O  O183  1  -0.00276983  0.87725736  0.17571868  1
  O  O184  1  -0.00716501  0.87305645  0.52188897  1
  O  O185  1  -0.00707171  0.87284965  0.86185557  1
  O  O186  1  0.33069422  0.36990625  0.18954918  1
  O  O187  1  0.32729842  0.37792340  0.50833481  1
  O  O188  1  0.33224807  0.37548997  0.83971618  1
  O  O189  1  0.34405559  0.88122049  0.18879964  1
  O  O190  1  0.34153364  0.87341262  0.52273524  1
  O  O191  1  0.33120167  0.87409610  0.85504965  1
  O  O192  1  0.67107978  0.37213158  0.19712672  1
  O  O193  1  0.67437506  0.37502432  0.51066522  1
  O  O194  1  0.67442792  0.37872794  0.85746648  1
  O  O195  1  0.66135427  0.87661157  0.19302077  1
  O  O196  1  0.66665262  0.87367431  0.53207553  1
  O  O197  1  0.67388223  0.87349234  0.84573422  1
  O  O198  1  -0.01155788  0.12832835  0.14039493  1
  O  O199  1  -0.01102923  0.12738303  0.48419712  1
  O  O200  1  -0.00183541  0.12569160  0.80850491  1
  O  O201  1  -0.01275995  0.62223117  0.14230302  1
  O  O202  1  -0.01132601  0.62380927  0.48556893  1
  O  O203  1  -0.01225074  0.62491399  0.80456251  1
  O  O204  1  0.32329984  0.12087597  0.13781837  1
  O  O205  1  0.34042583  0.12171845  0.47781593  1
  O  O206  1  0.32689176  0.12062420  0.82670451  1
  O  O207  1  0.32914103  0.62767583  0.15936025  1
  O  O208  1  0.34049870  0.62847875  0.48797182  1
  O  O209  1  0.33225496  0.63012475  0.81180710  1
  O  O210  1  0.67345266  0.12472314  0.14061152  1
  O  O211  1  0.67268047  0.12022651  0.47815046  1
  O  O212  1  0.67505586  0.12222530  0.81633516  1
  O  O213  1  0.67817141  0.62372563  0.14399399  1
  O  O214  1  0.67467581  0.62955306  0.47492365  1
  O  O215  1  0.67822224  0.62664756  0.81247798  1
  O  O216  1  0.08572456  0.02026114  0.23925324  1
  O  O217  1  0.07524387  0.00881299  0.58731020  1
  O  O218  1  0.08557040  0.02468245  0.91089901  1
  O  O219  1  0.08747577  0.51399187  0.23745635  1
  O  O220  1  0.08312265  0.52096840  0.57805582  1
  O  O221  1  0.08062942  0.52677994  0.91052872  1
  O  O222  1  0.41825988  0.02728849  0.24113020  1
  O  O223  1  0.42965398  0.00726932  0.56615520  1
  O  O224  1  0.41250288  0.00915677  0.92187207  1
  O  O225  1  0.42080837  0.51167920  0.24858974  1
  O  O226  1  0.41823535  0.52013344  0.58309162  1
  O  O227  1  0.42222920  0.51428743  0.91291183  1
  O  O228  1  0.74712566  0.02319023  0.25532376  1
  O  O229  1  0.75266599  0.01822908  0.58532981  1
  O  O230  1  0.75337491  0.01871910  0.92372361  1
  O  O231  1  0.74405291  0.51899535  0.25882979  1
  O  O232  1  0.75040147  0.52725532  0.59325400  1
  O  O233  1  0.74750535  0.52269295  0.93093935  1
  O  O234  1  0.25661795  0.22709863  0.25294059  1
  O  O235  1  0.24502117  0.24653039  0.57794026  1
  O  O236  1  0.24956690  0.22774284  0.92371397  1
  O  O237  1  0.25000625  0.74683923  0.24765123  1
  O  O238  1  0.25759848  0.73655188  0.59010677  1
  O  O239  1  0.24392496  0.73537116  0.91587436  1
  O  O240  1  0.58247960  0.22187115  0.24614022  1
  O  O241  1  0.58539956  0.23033492  0.57697267  1
  O  O242  1  0.59017392  0.23658899  0.91948174  1
  O  O243  1  0.58583013  0.72414823  0.25234371  1
  O  O244  1  0.58513733  0.72180565  0.57996064  1
  O  O245  1  0.58691968  0.72885501  0.91619189  1
  O  O246  1  0.91065992  0.23358667  0.24655390  1
  O  O247  1  0.90907735  0.23534910  0.57765802  1
  O  O248  1  0.92079337  0.23572301  0.92125299  1
  O  O249  1  0.90814189  0.73974424  0.24256549  1
  O  O250  1  0.91729460  0.73117298  0.59002884  1
  O  O251  1  0.91856129  0.72489992  0.91822014  1
  O  O252  1  0.07666195  0.47975152  0.07727941  1
  O  O253  1  0.08402487  0.47660278  0.41175813  1
  O  O254  1  0.07615900  0.49000682  0.73895763  1
  O  O255  1  0.07158705  0.99092924  0.07309337  1
  O  O256  1  0.07740886  0.99297285  0.41760102  1
  O  O257  1  0.07243316  0.98326264  0.74476479  1
  O  O258  1  0.42142669  0.49726979  0.08611133  1
  O  O259  1  0.41410095  0.48844968  0.41324772  1
  O  O260  1  0.41846839  0.50325830  0.74871749  1
  O  O261  1  0.41142448  0.98405711  0.08259776  1
  O  O262  1  0.41367030  0.97401150  0.40495798  1
  O  O263  1  0.41401393  0.97861105  0.73313806  1
  O  O264  1  0.75701090  0.47325412  0.09339374  1
  O  O265  1  0.76074439  0.48327102  0.42631979  1
  O  O266  1  0.76243349  0.48694949  0.76436005  1
  O  O267  1  0.75492456  0.98457090  0.09555323  1
  O  O268  1  0.74363411  0.97538275  0.41935040  1
  O  O269  1  0.75313617  0.97931662  0.74954535  1
  O  O270  1  0.24033232  0.26436824  0.09453665  1
  O  O271  1  0.24886994  0.27288987  0.41261067  1
  O  O272  1  0.24455160  0.25016056  0.75373819  1
  O  O273  1  0.24713352  0.76663295  0.08434677  1
  O  O274  1  0.25061625  0.76706439  0.41980386  1
  O  O275  1  0.24749750  0.76017640  0.74827377  1
  O  O276  1  0.59465231  0.25870518  0.07856637  1
  O  O277  1  0.59566099  0.25535538  0.40834523  1
  O  O278  1  0.59244975  0.25034989  0.74645097  1
  O  O279  1  0.57863575  0.75880015  0.09396840  1
  O  O280  1  0.58146792  0.77552574  0.41681312  1
  O  O281  1  0.58864040  0.75758767  0.74091268  1
  O  O282  1  0.91726710  0.27700518  0.08356687  1
  O  O283  1  0.92186787  0.27399378  0.41324254  1
  O  O284  1  0.91938299  0.27214715  0.74692771  1
  O  O285  1  0.91471233  0.77328151  0.08197381  1
  O  O286  1  0.90579526  0.76361807  0.42620533  1
  O  O287  1  0.91286493  0.77808388  0.75441122  1
  O  O288  1  0.24262670  0.48903666  0.09031193  1
  O  O289  1  0.24666097  0.48008959  0.41433672  1
  O  O290  1  0.24781332  0.50404319  0.74602014  1
  O  O291  1  0.24863188  0.97905670  0.08892975  1
  O  O292  1  0.25289641  0.98260361  0.41584206  1
  O  O293  1  0.24705861  0.98686407  0.74999606  1
  O  O294  1  0.59917430  0.48842990  0.07376827  1
  O  O295  1  0.59470152  0.49146709  0.40382554  1
  O  O296  1  0.58831653  0.50555746  0.74520956  1
  O  O297  1  0.57557699  0.99013892  0.09537086  1
  O  O298  1  0.58181672  0.97743790  0.42055162  1
  O  O299  1  0.58964266  0.98889916  0.74133382  1
  O  O300  1  0.91854533  0.46798484  0.08146344  1
  O  O301  1  0.92012874  0.47483791  0.41261194  1
  O  O302  1  0.91821023  0.47398132  0.74923513  1
  O  O303  1  0.91307891  0.98095393  0.08539397  1
  O  O304  1  0.90528173  0.98565326  0.42645616  1
  O  O305  1  0.91434638  0.97577050  0.75278026  1
  O  O306  1  0.07828079  0.26940726  0.08115448  1
  O  O307  1  0.08490211  0.27145478  0.41807217  1
  O  O308  1  0.07779176  0.26486643  0.74550189  1
  O  O309  1  0.07041689  0.76085312  0.07005806  1
  O  O310  1  0.08093360  0.75840277  0.41658545  1
  O  O311  1  0.07018469  0.76300734  0.74118285  1
  O  O312  1  0.41644468  0.24952670  0.08374524  1
  O  O313  1  0.40873567  0.26190608  0.40440051  1
  O  O314  1  0.41662804  0.25282734  0.74902720  1
  O  O315  1  0.41064672  0.76806950  0.07982216  1
  O  O316  1  0.41627392  0.77634296  0.40791634  1
  O  O317  1  0.40982194  0.76757080  0.73281701  1
  O  O318  1  0.75546401  0.27287575  0.09141247  1
  O  O319  1  0.75941655  0.26503961  0.42569758  1
  O  O320  1  0.76058898  0.26516536  0.76132274  1
  O  O321  1  0.75615672  0.76615752  0.09790941  1
  O  O322  1  0.74528420  0.77680151  0.42120460  1
  O  O323  1  0.75398301  0.76955296  0.75242988  1
  O  O324  1  0.25771341  0.01940233  0.25003487  1
  O  O325  1  0.25285432  0.00046184  0.58445425  1
  O  O326  1  0.24791412  0.01924613  0.92760935  1
  O  O327  1  0.24764511  0.50609825  0.24866684  1
  O  O328  1  0.25087807  0.52205804  0.58251551  1
  O  O329  1  0.24428619  0.51719351  0.91324544  1
  O  O330  1  0.58596043  0.02859319  0.25441026  1
  O  O331  1  0.58797084  0.02272887  0.58153447  1
  O  O332  1  0.58924212  0.01286714  0.92391990  1
  O  O333  1  0.58164654  0.52532157  0.24081584  1
  O  O334  1  0.58296419  0.52459932  0.57832956  1
  O  O335  1  0.58414077  0.52517808  0.91261044  1
  O  O336  1  0.91323521  0.01671019  0.24732334  1
  O  O337  1  0.91547145  0.01712963  0.58764048  1
  O  O338  1  0.92319880  0.02041965  0.92242016  1
  O  O339  1  0.90598402  0.50924119  0.24281705  1
  O  O340  1  0.91316165  0.51974924  0.58368737  1
  O  O341  1  0.91407572  0.51890885  0.91868839  1
  O  O342  1  0.08518117  0.22890729  0.24574404  1
  O  O343  1  0.07301676  0.23857620  0.58756572  1
  O  O344  1  0.08512868  0.22611220  0.91495283  1
  O  O345  1  0.08601324  0.73457567  0.23430447  1
  O  O346  1  0.08206342  0.73284037  0.58123874  1
  O  O347  1  0.08250026  0.72273330  0.90829569  1
  O  O348  1  0.41791878  0.22083282  0.24561442  1
  O  O349  1  0.42070079  0.23865906  0.57198905  1
  O  O350  1  0.41377731  0.23813355  0.91956960  1
  O  O351  1  0.42707969  0.74020640  0.23948084  1
  O  O352  1  0.42644552  0.73676521  0.57225262  1
  O  O353  1  0.42253150  0.73438669  0.90586807  1
  O  O354  1  0.74682891  0.22450720  0.25587549  1
  O  O355  1  0.74812933  0.22614079  0.59008612  1
  O  O356  1  0.74807713  0.23311655  0.92859018  1
  O  O357  1  0.74442017  0.72945428  0.25756409  1
  O  O358  1  0.75261110  0.72782128  0.58841009  1
  O  O359  1  0.75282497  0.72693508  0.92507606  1
