# generated using pymatgen
data_Ba17Sr5La8Pr42Mn72O216
_symmetry_space_group_name_H-M   'P 1'
_cell_length_a   16.67423439
_cell_length_b   15.70726674
_cell_length_c   16.81269358
_cell_angle_alpha   89.99620737
_cell_angle_beta   90.00147367
_cell_angle_gamma   89.98017412
_symmetry_Int_Tables_number   1
_chemical_formula_structural   Ba17Sr5La8Pr42Mn72O216
_chemical_formula_sum   'Ba17 Sr5 La8 Pr42 Mn72 O216'
_cell_volume   4403.35593419
_cell_formula_units_Z   1
loop_
 _symmetry_equiv_pos_site_id
 _symmetry_equiv_pos_as_xyz
  1  'x, y, z'
loop_
 _atom_site_type_symbol
 _atom_site_label
 _atom_site_symmetry_multiplicity
 _atom_site_fract_x
 _atom_site_fract_y
 _atom_site_fract_z
 _atom_site_occupancy
  Ba  Ba0  1  0.66512119  0.87715503  0.66979202  1
  Ba  Ba1  1  0.83342013  0.62480263  0.50103814  1
  Ba  Ba2  1  0.49930981  0.87412971  0.16645591  1
  Ba  Ba3  1  0.50243974  0.62298051  0.50454167  1
  Ba  Ba4  1  0.00267319  0.12450905  0.99716848  1
  Ba  Ba5  1  0.16568335  0.12423747  0.49961140  1
  Ba  Ba6  1  0.66752386  0.37496634  0.00463846  1
  Ba  Ba7  1  0.33102977  0.37456560  0.33123281  1
  Ba  Ba8  1  0.16738892  0.62520498  0.50154955  1
  Ba  Ba9  1  0.83348701  0.37466900  0.83276183  1
  Ba  Ba10  1  -0.00136841  0.62555361  0.66270053  1
  Ba  Ba11  1  0.16629125  0.37450823  0.49615919  1
  Ba  Ba12  1  0.83155809  0.87463710  0.83225462  1
  Ba  Ba13  1  0.66824943  0.37294856  0.33658405  1
  Ba  Ba14  1  0.33615828  0.62517320  0.66416573  1
  Ba  Ba15  1  0.16710161  0.37400347  0.16341427  1
  Ba  Ba16  1  0.66515760  0.87696678  0.33566496  1
  Sr  Sr17  1  0.33060124  0.37392507  0.00387773  1
  Sr  Sr18  1  0.16779931  0.12439667  0.16701693  1
  Sr  Sr19  1  0.83532762  0.62646667  0.83208687  1
  Sr  Sr20  1  0.66488234  0.12535767  1.00284302  1
  Sr  Sr21  1  0.16847963  0.12279915  0.83680725  1
  La  La22  1  -0.00026507  0.37266304  -0.00213089  1
  La  La23  1  0.66436397  0.37739973  0.67310083  1
  La  La24  1  0.50242523  0.12530046  0.83862817  1
  La  La25  1  0.16177866  0.87686852  0.83271847  1
  La  La26  1  -0.00184454  0.87439754  0.66353092  1
  La  La27  1  0.67222684  0.62615750  0.66686004  1
  La  La28  1  0.00072182  0.12712145  0.32365925  1
  La  La29  1  0.49522649  0.87391763  0.49691628  1
  Pr  Pr30  1  0.34239057  0.62003415  0.33574638  1
  Pr  Pr31  1  0.16356051  0.37239515  0.83172141  1
  Pr  Pr32  1  0.83555089  0.37292261  0.15983910  1
  Pr  Pr33  1  0.00466129  0.37724346  0.66325140  1
  Pr  Pr34  1  0.67042464  0.62721176  0.33499656  1
  Pr  Pr35  1  0.82904882  0.12596621  0.16811547  1
  Pr  Pr36  1  0.82860296  0.12257922  0.83907318  1
  Pr  Pr37  1  0.00583618  0.62351733  0.98920159  1
  Pr  Pr38  1  0.50064889  0.12885419  0.16887548  1
  Pr  Pr39  1  -0.00316091  0.87740560  0.33143683  1
  Pr  Pr40  1  0.33511656  0.12627482  0.66529047  1
  Pr  Pr41  1  0.66829482  0.87619221  0.00568872  1
  Pr  Pr42  1  0.50332378  0.12748215  0.50115146  1
  Pr  Pr43  1  0.83698262  0.37571553  0.49905147  1
  Pr  Pr44  1  0.49411131  0.37282343  0.83458208  1
  Pr  Pr45  1  0.00257556  0.37416064  0.33145582  1
  Pr  Pr46  1  0.17560980  0.62581148  0.83360369  1
  Pr  Pr47  1  0.15857987  0.87586939  0.16320808  1
  Pr  Pr48  1  0.49425357  0.37553746  0.50018673  1
  Pr  Pr49  1  0.34524839  0.62290261  0.99687716  1
  Pr  Pr50  1  0.50737441  0.62362525  0.83279337  1
  Pr  Pr51  1  0.17846550  0.62602266  0.16872861  1
  Pr  Pr52  1  0.66187276  0.12333307  0.33097111  1
  Pr  Pr53  1  0.49646197  0.87639099  0.83187795  1
  Pr  Pr54  1  0.83125510  0.87179512  0.49930488  1
  Pr  Pr55  1  0.33303282  0.12863475  0.32952060  1
  Pr  Pr56  1  0.15942184  0.87242431  0.49840331  1
  Pr  Pr57  1  0.83240259  0.87704002  0.16101595  1
  Pr  Pr58  1  0.33318213  0.12652925  0.99842013  1
  Pr  Pr59  1  0.83818069  0.62335160  0.16918775  1
  Pr  Pr60  1  0.32709624  0.87592458  0.33666291  1
  Pr  Pr61  1  0.32494747  0.37625113  0.66570586  1
  Pr  Pr62  1  0.32532638  0.87445490  0.00512028  1
  Pr  Pr63  1  -0.00744694  0.12574673  0.66412237  1
  Pr  Pr64  1  -0.00482686  0.87721033  -0.00293277  1
  Pr  Pr65  1  0.82734066  0.12366307  0.49759492  1
  Pr  Pr66  1  0.00486748  0.62454511  0.32895540  1
  Pr  Pr67  1  0.49225733  0.37474799  0.16254445  1
  Pr  Pr68  1  0.67009987  0.62703794  1.00177443  1
  Pr  Pr69  1  0.32792466  0.87473468  0.66655151  1
  Pr  Pr70  1  0.66950992  0.12439513  0.67241292  1
  Pr  Pr71  1  0.50826969  0.62048076  0.17295569  1
  Mn  Mn72  1  -0.00124715  -0.00062149  0.16445572  1
  Mn  Mn73  1  -0.00327164  0.00202960  0.49678658  1
  Mn  Mn74  1  0.00046712  0.00019690  0.82968367  1
  Mn  Mn75  1  0.00109170  0.50231664  0.16123880  1
  Mn  Mn76  1  -0.00103524  0.49845325  0.49684588  1
  Mn  Mn77  1  0.00236141  0.50054180  0.83119823  1
  Mn  Mn78  1  0.33271156  -0.00124896  0.16720091  1
  Mn  Mn79  1  0.33314729  0.00175706  0.50056710  1
  Mn  Mn80  1  0.33388428  -0.00084202  0.83424219  1
  Mn  Mn81  1  0.33449856  0.50209320  0.16354592  1
  Mn  Mn82  1  0.33366822  0.49929011  0.50029148  1
  Mn  Mn83  1  0.33406977  0.49856219  0.83483004  1
  Mn  Mn84  1  0.66621326  0.00114199  0.16792945  1
  Mn  Mn85  1  0.66467948  0.00203546  0.50233928  1
  Mn  Mn86  1  0.66342469  0.00082617  0.83793842  1
  Mn  Mn87  1  0.66928844  0.50000005  0.17042054  1
  Mn  Mn88  1  0.66772957  0.49667752  0.50422985  1
  Mn  Mn89  1  0.66627615  0.49991821  0.83670736  1
  Mn  Mn90  1  -0.00031593  0.24997943  0.16366574  1
  Mn  Mn91  1  -0.00271408  0.24680356  0.49637396  1
  Mn  Mn92  1  0.00052262  0.24958515  0.82962810  1
  Mn  Mn93  1  0.00022775  0.74933210  0.16061995  1
  Mn  Mn94  1  -0.00164044  0.75356638  0.49619799  1
  Mn  Mn95  1  0.00185376  0.74993296  0.83079192  1
  Mn  Mn96  1  0.33241818  0.24746043  0.16358878  1
  Mn  Mn97  1  0.33441131  0.24684411  0.49949705  1
  Mn  Mn98  1  0.33216542  0.25020992  0.83322119  1
  Mn  Mn99  1  0.33455612  0.74968006  0.16769951  1
  Mn  Mn100  1  0.33264296  0.75317468  0.50060100  1
  Mn  Mn101  1  0.33582771  0.75060338  0.83600603  1
  Mn  Mn102  1  0.66698144  0.24976336  0.17023779  1
  Mn  Mn103  1  0.66714334  0.24790374  0.50476172  1
  Mn  Mn104  1  0.66436047  0.25075216  0.83635503  1
  Mn  Mn105  1  0.66919763  0.74914643  0.16760894  1
  Mn  Mn106  1  0.66536648  0.75109129  0.50207578  1
  Mn  Mn107  1  0.66555994  0.74809278  0.83629252  1
  Mn  Mn108  1  0.16807786  0.24834695  -0.00289364  1
  Mn  Mn109  1  0.16569604  0.24796790  0.33131876  1
  Mn  Mn110  1  0.16556473  0.24717782  0.66859386  1
  Mn  Mn111  1  0.16738047  0.74929912  0.00060946  1
  Mn  Mn112  1  0.16748864  0.75024369  0.33002966  1
  Mn  Mn113  1  0.16670807  0.75318333  0.66689453  1
  Mn  Mn114  1  0.49939042  0.24937189  0.00188634  1
  Mn  Mn115  1  0.49968792  0.25100777  0.33517028  1
  Mn  Mn116  1  0.49888630  0.24861881  0.66899771  1
  Mn  Mn117  1  0.50184714  0.74971560  -0.00020619  1
  Mn  Mn118  1  0.49882248  0.74979438  0.33367647  1
  Mn  Mn119  1  0.49953197  0.75285432  0.66774562  1
  Mn  Mn120  1  0.83349454  0.24832058  -0.00046214  1
  Mn  Mn121  1  0.83379648  0.25044213  0.33306948  1
  Mn  Mn122  1  0.83207162  0.24872101  0.66564999  1
  Mn  Mn123  1  0.83576433  0.74876169  0.00078364  1
  Mn  Mn124  1  0.83528516  0.74991342  0.33114836  1
  Mn  Mn125  1  0.83249488  0.75117510  0.66627891  1
  Mn  Mn126  1  0.16769366  -0.00072908  -0.00046661  1
  Mn  Mn127  1  0.16622406  -0.00118753  0.33185996  1
  Mn  Mn128  1  0.16612380  0.00227974  0.66778356  1
  Mn  Mn129  1  0.16840597  0.50194405  -0.00149491  1
  Mn  Mn130  1  0.16694111  0.50333401  0.33058901  1
  Mn  Mn131  1  0.16616343  0.49862181  0.66727558  1
  Mn  Mn132  1  0.49931664  -0.00110162  0.00035319  1
  Mn  Mn133  1  0.49577972  0.00059642  0.33442922  1
  Mn  Mn134  1  0.49776471  0.00271485  0.66766067  1
  Mn  Mn135  1  0.50152699  0.50035087  0.00195143  1
  Mn  Mn136  1  0.50271901  0.49825583  0.33525626  1
  Mn  Mn137  1  0.49967272  0.49597235  0.66966612  1
  Mn  Mn138  1  0.83175430  0.00160302  -0.00007005  1
  Mn  Mn139  1  0.83355841  0.00038613  0.33318025  1
  Mn  Mn140  1  0.83297596  0.00315665  0.66647580  1
  Mn  Mn141  1  0.83634207  0.50225718  0.00069807  1
  Mn  Mn142  1  0.83561827  0.50000771  0.33227369  1
  Mn  Mn143  1  0.83251753  0.49774081  0.66606192  1
  O  O144  1  0.17237436  0.11938338  0.01641746  1
  O  O145  1  0.15925087  0.11953939  0.34127916  1
  O  O146  1  0.17019836  0.12398507  0.68831885  1
  O  O147  1  0.15499192  0.62934908  0.02572543  1
  O  O148  1  0.15633096  0.62955969  0.34373937  1
  O  O149  1  0.16697225  0.62548108  0.68872614  1
  O  O150  1  0.49286306  0.12140042  0.02502213  1
  O  O151  1  0.49630829  0.12616307  0.35551108  1
  O  O152  1  0.48859118  0.12643759  0.69662886  1
  O  O153  1  0.49858247  0.62662381  0.02821900  1
  O  O154  1  0.49860369  0.62446703  0.34573397  1
  O  O155  1  0.50132726  0.62070242  0.68961684  1
  O  O156  1  0.83526853  0.12319838  0.02218050  1
  O  O157  1  0.84406264  0.12422461  0.35509104  1
  O  O158  1  0.84146318  0.12690039  0.69417050  1
  O  O159  1  0.84729823  0.62677175  0.02352853  1
  O  O160  1  0.84078179  0.62559789  0.34668268  1
  O  O161  1  0.82887994  0.62193442  0.67895206  1
  O  O162  1  0.16000125  0.37895727  0.32074066  1
  O  O163  1  0.16685253  0.37088958  0.65399048  1
  O  O164  1  0.16880236  0.37875172  0.97686474  1
  O  O165  1  0.17325833  0.87293233  0.30559833  1
  O  O166  1  0.16897827  0.88173416  0.64385620  1
  O  O167  1  0.17705065  0.87242892  0.97717301  1
  O  O168  1  0.50085709  0.37351886  0.30742225  1
  O  O169  1  0.50972570  0.36868294  0.64315130  1
  O  O170  1  0.49765921  0.37804194  0.98018669  1
  O  O171  1  0.49206165  0.87600877  0.32285941  1
  O  O172  1  0.49772798  0.88400078  0.64139678  1
  O  O173  1  0.50607321  0.87285014  0.97539781  1
  O  O174  1  0.83722865  0.37686950  0.30331730  1
  O  O175  1  0.82189443  0.36907710  0.64397039  1
  O  O176  1  0.83477243  0.37621995  0.99158128  1
  O  O177  1  0.83699378  0.87393664  0.30408597  1
  O  O178  1  0.83555731  0.88250000  0.64494046  1
  O  O179  1  0.82426079  0.87517677  0.98931988  1
  O  O180  1  -0.00527919  0.37614401  0.18728622  1
  O  O181  1  -0.00559149  0.36715894  0.51807704  1
  O  O182  1  0.00699229  0.37595076  0.85322413  1
  O  O183  1  -0.00002571  0.87287667  0.18825123  1
  O  O184  1  -0.00118526  0.88131260  0.51851534  1
  O  O185  1  0.00379963  0.87329815  0.85311569  1
  O  O186  1  0.34015286  0.37472075  0.17440541  1
  O  O187  1  0.33920151  0.36827481  0.51847388  1
  O  O188  1  0.33474870  0.37436929  0.85701153  1
  O  O189  1  0.32900358  0.87288666  0.19262842  1
  O  O190  1  0.34005176  0.88075086  0.52124295  1
  O  O191  1  0.34266376  0.87248235  0.86396771  1
  O  O192  1  0.67847854  0.37529247  0.18029256  1
  O  O193  1  0.67092002  0.36722875  0.52900669  1
  O  O194  1  0.66136492  0.37410286  0.84798822  1
  O  O195  1  0.67785878  0.87405382  0.17829108  1
  O  O196  1  0.66571638  0.88066176  0.51250124  1
  O  O197  1  0.65947425  0.87254208  0.86086195  1
  O  O198  1  -0.00456942  0.12301590  0.15512797  1
  O  O199  1  -0.00940292  0.12282967  0.46854891  1
  O  O200  1  -0.00142193  0.12586686  0.80884750  1
  O  O201  1  -0.00893107  0.62885274  0.13335741  1
  O  O202  1  -0.00197608  0.62991660  0.47516584  1
  O  O203  1  0.00456598  0.62648619  0.82154546  1
  O  O204  1  0.33770211  0.12160842  0.14309851  1
  O  O205  1  0.34094363  0.12284287  0.47521373  1
  O  O206  1  0.33533630  0.12580470  0.80761632  1
  O  O207  1  0.33163863  0.62867120  0.14042727  1
  O  O208  1  0.33398938  0.62969505  0.48320919  1
  O  O209  1  0.33159174  0.62641813  0.81902722  1
  O  O210  1  0.66154705  0.12562114  0.15254073  1
  O  O211  1  0.66617631  0.12521116  0.47454832  1
  O  O212  1  0.66094959  0.12788866  0.81680216  1
  O  O213  1  0.65871863  0.62473375  0.14621476  1
  O  O214  1  0.66651370  0.62502815  0.48026798  1
  O  O215  1  0.65778636  0.62384320  0.81182935  1
  O  O216  1  0.08047065  0.00660197  0.24810206  1
  O  O217  1  0.07308891  0.01608565  0.58605792  1
  O  O218  1  0.08824872  0.00366632  0.91299662  1
  O  O219  1  0.08719435  0.52495476  0.23711438  1
  O  O220  1  0.08134449  0.50274023  0.58186464  1
  O  O221  1  0.09539161  0.52088709  0.90852638  1
  O  O222  1  0.41895095  0.02315387  0.24712050  1
  O  O223  1  0.42116212  0.02561404  0.58059462  1
  O  O224  1  0.42071643  0.02056028  0.91152721  1
  O  O225  1  0.42156813  0.51814996  0.24232315  1
  O  O226  1  0.42163446  0.49683416  0.58343289  1
  O  O227  1  0.42550015  0.52046502  0.91141507  1
  O  O228  1  0.74936405  0.02497770  0.25522045  1
  O  O229  1  0.74886951  0.02605973  0.58809258  1
  O  O230  1  0.74789663  0.01793862  0.92083700  1
  O  O231  1  0.75247095  0.52642945  0.25223566  1
  O  O232  1  0.74655802  0.51092837  0.58710058  1
  O  O233  1  0.75374343  0.52318450  0.92194720  1
  O  O234  1  0.25246743  0.23127577  0.24824204  1
  O  O235  1  0.25741994  0.23527934  0.59167072  1
  O  O236  1  0.25405373  0.22966580  0.91646893  1
  O  O237  1  0.26141029  0.72444060  0.25788661  1
  O  O238  1  0.25332871  0.75098293  0.58820116  1
  O  O239  1  0.25935692  0.72846374  0.93012926  1
  O  O240  1  0.58319486  0.22849475  0.25572896  1
  O  O241  1  0.58448700  0.22219289  0.59212515  1
  O  O242  1  0.57936626  0.23414358  0.91992951  1
  O  O243  1  0.58854926  0.73133282  0.25334800  1
  O  O244  1  0.58946646  0.73606377  0.59464220  1
  O  O245  1  0.58711434  0.72268978  0.92150336  1
  O  O246  1  0.90985867  0.23243463  0.24308094  1
  O  O247  1  0.90944401  0.22752443  0.57277486  1
  O  O248  1  0.91341139  0.23552378  0.90591057  1
  O  O249  1  0.92405391  0.72943744  0.24800470  1
  O  O250  1  0.91576170  0.75241442  0.57835792  1
  O  O251  1  0.92704598  0.73994001  0.92318978  1
  O  O252  1  0.07286233  0.48540537  0.06708444  1
  O  O253  1  0.07395234  0.49172319  0.40202686  1
  O  O254  1  0.08263201  0.47796039  0.74811629  1
  O  O255  1  0.08107393  0.97624581  0.07899732  1
  O  O256  1  0.08216908  0.97593459  0.41287630  1
  O  O257  1  0.08363388  0.97964121  0.74867475  1
  O  O258  1  0.41442847  0.48756562  0.07828129  1
  O  O259  1  0.41822983  0.48743459  0.41531280  1
  O  O260  1  0.41202090  0.47250019  0.74662961  1
  O  O261  1  0.40775408  0.98015862  0.07319844  1
  O  O262  1  0.40767809  0.98161120  0.41110648  1
  O  O263  1  0.41048784  0.97710212  0.74526445  1
  O  O264  1  0.75499789  0.49814692  0.09112784  1
  O  O265  1  0.75477516  0.48350827  0.42182741  1
  O  O266  1  0.74198105  0.48892470  0.74572973  1
  O  O267  1  0.75457237  0.98867553  0.08897908  1
  O  O268  1  0.75845085  0.98947590  0.42187803  1
  O  O269  1  0.74974125  1.00132872  0.75373401  1
  O  O270  1  0.25517178  0.25435865  0.07781789  1
  O  O271  1  0.25339049  0.24917222  0.41308160  1
  O  O272  1  0.24916491  0.27142336  0.75404860  1
  O  O273  1  0.23992231  0.76830146  0.09548347  1
  O  O274  1  0.24538115  0.77576989  0.42389565  1
  O  O275  1  0.24712255  0.77135994  0.76217057  1
  O  O276  1  0.57808777  0.26357450  0.09631856  1
  O  O277  1  0.58020837  0.26231278  0.42858051  1
  O  O278  1  0.57575855  0.26697874  0.75631427  1
  O  O279  1  0.59108666  0.76474565  0.07866093  1
  O  O280  1  0.57599329  0.76387472  0.42563517  1
  O  O281  1  0.57102016  0.76463872  0.76338197  1
  O  O282  1  0.91959095  0.26919697  0.08101942  1
  O  O283  1  0.91799252  0.27485561  0.40878075  1
  O  O284  1  0.92523588  0.26759099  0.73477214  1
  O  O285  1  0.91505077  0.77827867  0.08516917  1
  O  O286  1  0.91548156  0.77698279  0.41316114  1
  O  O287  1  0.91929092  0.76338087  0.74616461  1
  O  O288  1  0.24600737  0.49789628  0.08469221  1
  O  O289  1  0.25122520  0.50064582  0.41280012  1
  O  O290  1  0.24458027  0.48159677  0.75794006  1
  O  O291  1  0.24417428  0.97718345  0.08988607  1
  O  O292  1  0.24498102  0.97820231  0.42182710  1
  O  O293  1  0.24957170  0.97538763  0.75810968  1
  O  O294  1  0.57445152  0.48534403  0.09819732  1
  O  O295  1  0.58036516  0.47894130  0.43034543  1
  O  O296  1  0.57059789  0.47989132  0.76138645  1
  O  O297  1  0.58655874  0.98414461  0.07856716  1
  O  O298  1  0.57076932  0.99280638  0.42501622  1
  O  O299  1  0.57251446  0.98901626  0.75915099  1
  O  O300  1  0.91483323  0.47869249  0.08691893  1
  O  O301  1  0.91697003  0.47479757  0.41211288  1
  O  O302  1  0.91872921  0.48315959  0.74310137  1
  O  O303  1  0.91725810  0.97739551  0.08037084  1
  O  O304  1  0.91651429  0.97375636  0.41235119  1
  O  O305  1  0.92473066  0.98713924  0.73770320  1
  O  O306  1  0.08045486  0.26370938  0.07714152  1
  O  O307  1  0.07629271  0.25919729  0.41100283  1
  O  O308  1  0.08358274  0.27062797  0.74958618  1
  O  O309  1  0.07638421  0.77743178  0.07147830  1
  O  O310  1  0.07720427  0.77480156  0.40686462  1
  O  O311  1  0.08216685  0.77363284  0.74592449  1
  O  O312  1  0.42007525  0.26325898  0.08489941  1
  O  O313  1  0.42191453  0.26491610  0.42017331  1
  O  O314  1  0.41211363  0.27503302  0.74609438  1
  O  O315  1  0.40543957  0.76629713  0.07196421  1
  O  O316  1  0.40524773  0.76456922  0.40796343  1
  O  O317  1  0.41198833  0.77528706  0.74629656  1
  O  O318  1  0.75758562  0.25520702  0.09603382  1
  O  O319  1  0.75948413  0.26102872  0.42624466  1
  O  O320  1  0.74209175  0.25675055  0.74702495  1
  O  O321  1  0.75368486  0.75888074  0.08710090  1
  O  O322  1  0.75132520  0.76380953  0.41912591  1
  O  O323  1  0.74528387  0.75311891  0.75206651  1
  O  O324  1  0.25714078  0.01693164  0.25840615  1
  O  O325  1  0.25969311  0.01588531  0.59321231  1
  O  O326  1  0.25995910  0.01470978  0.92470732  1
  O  O327  1  0.25588601  0.52317921  0.25142472  1
  O  O328  1  0.25293799  0.50114634  0.58980188  1
  O  O329  1  0.25534500  0.52555734  0.92289828  1
  O  O330  1  0.58145759  0.01949327  0.25369434  1
  O  O331  1  0.58245346  0.02922510  0.59230897  1
  O  O332  1  0.58040680  0.01926681  0.92003189  1
  O  O333  1  0.59143117  0.52083186  0.25893428  1
  O  O334  1  0.59198629  0.50957852  0.60035925  1
  O  O335  1  0.58852969  0.52406324  0.92740895  1
  O  O336  1  0.91230780  0.01587834  0.24638326  1
  O  O337  1  0.91042690  0.02363701  0.57704436  1
  O  O338  1  0.91127890  0.01303372  0.90907018  1
  O  O339  1  0.92335838  0.52305675  0.24854538  1
  O  O340  1  0.91360682  0.49638739  0.58014892  1
  O  O341  1  0.92749838  0.51217781  0.92155604  1
  O  O342  1  0.07642385  0.23851958  0.24974334  1
  O  O343  1  0.07304391  0.23357126  0.58929674  1
  O  O344  1  0.08760228  0.24264764  0.91069251  1
  O  O345  1  0.08959695  0.73292806  0.23243438  1
  O  O346  1  0.08267399  0.75142785  0.57521175  1
  O  O347  1  0.09532976  0.73353313  0.90820456  1
  O  O348  1  0.41675378  0.22918933  0.24727998  1
  O  O349  1  0.42035367  0.22807919  0.58296124  1
  O  O350  1  0.41643402  0.22925061  0.91344298  1
  O  O351  1  0.42172052  0.72682455  0.24147068  1
  O  O352  1  0.42075499  0.74986122  0.57814593  1
  O  O353  1  0.42561233  0.72645003  0.91000061  1
  O  O354  1  0.74694729  0.22380571  0.25781726  1
  O  O355  1  0.74793688  0.21847237  0.58690430  1
  O  O356  1  0.74980579  0.23053712  0.91579750  1
  O  O357  1  0.75314791  0.72451916  0.24920224  1
  O  O358  1  0.74822309  0.74375900  0.58388615  1
  O  O359  1  0.74978429  0.72943047  0.92303470  1
