# generated using pymatgen
data_Ba17Sr5La8Pr42Mn72O216
_symmetry_space_group_name_H-M   'P 1'
_cell_length_a   16.67919643
_cell_length_b   15.70731797
_cell_length_c   16.82292206
_cell_angle_alpha   89.99725266
_cell_angle_beta   90.01651818
_cell_angle_gamma   90.01954432
_symmetry_Int_Tables_number   1
_chemical_formula_structural   Ba17Sr5La8Pr42Mn72O216
_chemical_formula_sum   'Ba17 Sr5 La8 Pr42 Mn72 O216'
_cell_volume   4407.36022261
_cell_formula_units_Z   1
loop_
 _symmetry_equiv_pos_site_id
 _symmetry_equiv_pos_as_xyz
  1  'x, y, z'
loop_
 _atom_site_type_symbol
 _atom_site_label
 _atom_site_symmetry_multiplicity
 _atom_site_fract_x
 _atom_site_fract_y
 _atom_site_fract_z
 _atom_site_occupancy
  Ba  Ba0  1  0.49916265  0.37521379  0.83164503  1
  Ba  Ba1  1  0.66346802  0.87528587  0.66970804  1
  Ba  Ba2  1  0.16837155  0.37486013  0.50000622  1
  Ba  Ba3  1  0.50299163  0.12528633  0.16717848  1
  Ba  Ba4  1  -0.00145985  0.12540819  0.66422981  1
  Ba  Ba5  1  0.83317795  0.62687603  0.83378687  1
  Ba  Ba6  1  0.16662522  0.12659371  0.16264858  1
  Ba  Ba7  1  0.33572142  0.37543681  0.33528272  1
  Ba  Ba8  1  0.50150183  0.62423797  0.16839858  1
  Ba  Ba9  1  0.33322465  0.87459304  0.33582888  1
  Ba  Ba10  1  0.16424407  0.87555112  0.49771374  1
  Ba  Ba11  1  -0.00018878  0.87473901  0.33146948  1
  Ba  Ba12  1  0.16471563  0.87667223  0.16468141  1
  Ba  Ba13  1  0.50147537  0.87466094  0.50069587  1
  Ba  Ba14  1  0.50172442  0.37463169  0.16615975  1
  Ba  Ba15  1  0.00055199  0.62341293  0.33209727  1
  Ba  Ba16  1  0.33142268  0.87421313  -0.00022867  1
  Sr  Sr17  1  0.82852852  0.87325628  0.83237729  1
  Sr  Sr18  1  0.66587127  0.87569155  0.33997597  1
  Sr  Sr19  1  0.32942783  0.37656175  0.66736702  1
  Sr  Sr20  1  0.33338464  0.62625355  0.33632164  1
  Sr  Sr21  1  0.17038580  0.62588277  0.49675138  1
  La  La22  1  0.66254425  0.12526206  0.66787438  1
  La  La23  1  0.16688074  0.37813180  0.16653717  1
  La  La24  1  0.67060543  0.37745435  0.00466028  1
  La  La25  1  0.17096131  0.62220477  0.83278105  1
  La  La26  1  0.83290403  0.62548645  0.16892774  1
  La  La27  1  0.33764598  0.62214690  0.66376552  1
  La  La28  1  0.15825500  0.87708084  0.82853271  1
  La  La29  1  -0.00101063  0.37486226  -0.00377965  1
  Pr  Pr30  1  0.49046498  0.87423009  0.82674284  1
  Pr  Pr31  1  0.00539933  0.62562787  0.99608032  1
  Pr  Pr32  1  0.66565078  0.62252359  0.99968010  1
  Pr  Pr33  1  0.33539952  0.12771767  0.66713776  1
  Pr  Pr34  1  0.66434918  0.12242978  0.33260921  1
  Pr  Pr35  1  0.66735149  0.12857623  0.99947735  1
  Pr  Pr36  1  0.83326948  0.11996310  0.83816890  1
  Pr  Pr37  1  -0.01103547  0.87372759  0.66520810  1
  Pr  Pr38  1  -0.00695733  0.87487992  0.00288609  1
  Pr  Pr39  1  0.50309608  0.37635643  0.49560826  1
  Pr  Pr40  1  0.50322666  0.12274667  0.83846473  1
  Pr  Pr41  1  0.00687161  0.37289570  0.33280154  1
  Pr  Pr42  1  0.66716672  0.37488417  0.33444317  1
  Pr  Pr43  1  0.66800570  0.37542595  0.67102744  1
  Pr  Pr44  1  0.83342400  0.87245711  0.16848760  1
  Pr  Pr45  1  0.49524123  0.87261786  0.16871589  1
  Pr  Pr46  1  0.33108128  0.37524662  0.00624570  1
  Pr  Pr47  1  0.34116427  0.12308397  0.99971699  1
  Pr  Pr48  1  0.66075547  0.62505905  0.66666400  1
  Pr  Pr49  1  0.00700026  0.12423284  0.99108289  1
  Pr  Pr50  1  0.83580935  0.37655058  0.82902246  1
  Pr  Pr51  1  0.00214234  0.12577441  0.33167345  1
  Pr  Pr52  1  0.83013888  0.12141124  0.50382722  1
  Pr  Pr53  1  0.83270919  0.87682516  0.49717755  1
  Pr  Pr54  1  0.16417236  0.37351552  0.82636045  1
  Pr  Pr55  1  0.83331127  0.62817781  0.50447143  1
  Pr  Pr56  1  0.32637978  0.87359632  0.66943013  1
  Pr  Pr57  1  0.50279307  0.62611457  0.83661587  1
  Pr  Pr58  1  0.17343740  0.12472798  0.49729075  1
  Pr  Pr59  1  0.17631122  0.12901793  0.83712157  1
  Pr  Pr60  1  0.66814172  0.87212571  0.00356979  1
  Pr  Pr61  1  0.83393419  0.12444392  0.17060485  1
  Pr  Pr62  1  0.84101413  0.37326224  0.49782134  1
  Pr  Pr63  1  0.49645823  0.62730263  0.49644589  1
  Pr  Pr64  1  0.00444050  0.37690619  0.66595968  1
  Pr  Pr65  1  0.34186377  0.62638983  1.00126257  1
  Pr  Pr66  1  -0.00026101  0.62610346  0.65741364  1
  Pr  Pr67  1  0.33075549  0.12332096  0.33208719  1
  Pr  Pr68  1  0.83673763  0.37651766  0.16616469  1
  Pr  Pr69  1  0.66485201  0.62778041  0.33314312  1
  Pr  Pr70  1  0.17421998  0.62711960  0.17226166  1
  Pr  Pr71  1  0.49660898  0.12262659  0.49854110  1
  Mn  Mn72  1  -0.00231593  0.00253440  0.16335687  1
  Mn  Mn73  1  -0.00194595  0.00285310  0.49837700  1
  Mn  Mn74  1  -0.00129692  -0.00090099  0.83064207  1
  Mn  Mn75  1  -0.00066761  0.49850076  0.16275506  1
  Mn  Mn76  1  -0.00134228  0.49864015  0.49752782  1
  Mn  Mn77  1  0.00027643  0.50155281  0.83054117  1
  Mn  Mn78  1  0.33440349  0.00118874  0.16586582  1
  Mn  Mn79  1  0.33406908  0.00219353  0.50189570  1
  Mn  Mn80  1  0.33139100  0.00036392  0.83253612  1
  Mn  Mn81  1  0.33359728  0.49915189  0.16727515  1
  Mn  Mn82  1  0.33485594  0.50042895  0.50145225  1
  Mn  Mn83  1  0.33289089  0.50034104  0.83424632  1
  Mn  Mn84  1  0.66894290  -0.00323508  0.16847846  1
  Mn  Mn85  1  0.66699837  0.00201507  0.50096694  1
  Mn  Mn86  1  0.66574057  -0.00028777  0.83703706  1
  Mn  Mn87  1  0.67038111  0.50053171  0.16902825  1
  Mn  Mn88  1  0.66815363  0.49943228  0.50176700  1
  Mn  Mn89  1  0.66735083  0.49921474  0.83446507  1
  Mn  Mn90  1  -0.00176370  0.25057511  0.16311113  1
  Mn  Mn91  1  -0.00121935  0.24864257  0.49755632  1
  Mn  Mn92  1  -0.00172668  0.24965383  0.82999464  1
  Mn  Mn93  1  -0.00120915  0.74905923  0.16207864  1
  Mn  Mn94  1  -0.00015828  0.74948046  0.49921371  1
  Mn  Mn95  1  0.00022734  0.74999148  0.83135955  1
  Mn  Mn96  1  0.33364257  0.24953798  0.16670044  1
  Mn  Mn97  1  0.33647950  0.24990120  0.50187085  1
  Mn  Mn98  1  0.33457675  0.25170470  0.83382465  1
  Mn  Mn99  1  0.33366871  0.74981623  0.16689833  1
  Mn  Mn100  1  0.33297332  0.74807148  0.50201581  1
  Mn  Mn101  1  0.32997818  0.74754051  0.83307450  1
  Mn  Mn102  1  0.67076819  0.24889759  0.16771683  1
  Mn  Mn103  1  0.66683620  0.25050743  0.50222344  1
  Mn  Mn104  1  0.66843028  0.25060405  0.83399423  1
  Mn  Mn105  1  0.66846120  0.75300895  0.16978954  1
  Mn  Mn106  1  0.66823674  0.74829329  0.50085772  1
  Mn  Mn107  1  0.66458099  0.74978809  0.83573158  1
  Mn  Mn108  1  0.16781544  0.25299981  -0.00300715  1
  Mn  Mn109  1  0.16738318  0.24943956  0.33188423  1
  Mn  Mn110  1  0.16657103  0.24788259  0.66667091  1
  Mn  Mn111  1  0.16589415  0.74654232  -0.00193815  1
  Mn  Mn112  1  0.16768520  0.74886237  0.33412984  1
  Mn  Mn113  1  0.16429047  0.75004966  0.66721183  1
  Mn  Mn114  1  0.50136777  0.25016811  -0.00151612  1
  Mn  Mn115  1  0.50289830  0.25019035  0.33538260  1
  Mn  Mn116  1  0.49937132  0.24990213  0.66557027  1
  Mn  Mn117  1  0.50255629  0.75134768  -0.00072014  1
  Mn  Mn118  1  0.50155981  0.74972682  0.33422339  1
  Mn  Mn119  1  0.49696152  0.74927979  0.66828043  1
  Mn  Mn120  1  0.83444670  0.24939549  0.00008505  1
  Mn  Mn121  1  0.83319586  0.25019245  0.33395000  1
  Mn  Mn122  1  0.83061710  0.25095586  0.66693217  1
  Mn  Mn123  1  0.83358204  0.75019558  0.00141530  1
  Mn  Mn124  1  0.83213096  0.74913471  0.33533161  1
  Mn  Mn125  1  0.83160100  0.74906801  0.66779734  1
  Mn  Mn126  1  0.16595727  0.00144608  -0.00504914  1
  Mn  Mn127  1  0.16585827  0.00183432  0.33248569  1
  Mn  Mn128  1  0.16505454  0.00118601  0.66590186  1
  Mn  Mn129  1  0.16726185  0.49972170  -0.00083236  1
  Mn  Mn130  1  0.16857056  0.50114219  0.33310090  1
  Mn  Mn131  1  0.16535387  0.50083230  0.66769175  1
  Mn  Mn132  1  0.50358598  -0.00249648  0.00066260  1
  Mn  Mn133  1  0.50172211  0.00070525  0.33390110  1
  Mn  Mn134  1  0.49651770  0.00159189  0.66909858  1
  Mn  Mn135  1  0.50066877  0.49975559  -0.00148053  1
  Mn  Mn136  1  0.50230975  0.49937244  0.33407051  1
  Mn  Mn137  1  0.50003074  0.49901819  0.66483813  1
  Mn  Mn138  1  0.83271661  -0.00000039  0.00282644  1
  Mn  Mn139  1  0.83307618  0.00211147  0.33488350  1
  Mn  Mn140  1  0.83018816  0.00088219  0.66944991  1
  Mn  Mn141  1  0.83512665  0.50004447  0.00078788  1
  Mn  Mn142  1  0.83213797  0.49781639  0.33438741  1
  Mn  Mn143  1  0.83204082  0.49886006  0.66483051  1
  O  O144  1  0.15553907  0.12900597  0.00600610  1
  O  O145  1  0.16799509  0.12741883  0.34938514  1
  O  O146  1  0.16994415  0.12430307  0.69353591  1
  O  O147  1  0.15456907  0.61617191  0.02801235  1
  O  O148  1  0.16881507  0.62218281  0.34049784  1
  O  O149  1  0.15572942  0.62481612  0.68922943  1
  O  O150  1  0.49979754  0.12412026  0.01063279  1
  O  O151  1  0.51089758  0.12787621  0.35365681  1
  O  O152  1  0.49828149  0.12645620  0.69504342  1
  O  O153  1  0.50186420  0.62529585  0.01102192  1
  O  O154  1  0.51097728  0.62174701  0.35111907  1
  O  O155  1  0.50181276  0.62432590  0.69219892  1
  O  O156  1  0.83084359  0.12582322  0.02700445  1
  O  O157  1  0.83798679  0.12941631  0.36157703  1
  O  O158  1  0.82925321  0.13002917  0.69453215  1
  O  O159  1  0.83553790  0.62738962  0.02451887  1
  O  O160  1  0.82878148  0.61803942  0.36106213  1
  O  O161  1  0.84535521  0.62256742  0.67740571  1
  O  O162  1  0.15935377  0.37372777  0.31415019  1
  O  O163  1  0.16439780  0.37465562  0.65678795  1
  O  O164  1  0.17551362  0.37798628  0.96891568  1
  O  O165  1  0.16541893  0.87815165  0.32541200  1
  O  O166  1  0.17706278  0.87560528  0.65376988  1
  O  O167  1  0.16117090  0.87760500  0.97370681  1
  O  O168  1  0.50643247  0.37422112  0.32472612  1
  O  O169  1  0.50684631  0.37405157  0.63970287  1
  O  O170  1  0.50035027  0.37513289  0.98897450  1
  O  O171  1  0.50500999  0.87747025  0.31579412  1
  O  O172  1  0.49212184  0.87521695  0.65831811  1
  O  O173  1  0.50913520  0.87456905  0.97114914  1
  O  O174  1  0.82314639  0.37323020  0.30686040  1
  O  O175  1  0.81972957  0.37413346  0.64104784  1
  O  O176  1  0.83053808  0.37065805  0.97215226  1
  O  O177  1  0.82847167  0.87975792  0.31232426  1
  O  O178  1  0.83384562  0.87259890  0.64407191  1
  O  O179  1  0.83503668  0.87594492  0.98001842  1
  O  O180  1  -0.00326501  0.37315937  0.18936439  1
  O  O181  1  -0.00358868  0.37218298  0.52190302  1
  O  O182  1  -0.00199426  0.37355167  0.85285661  1
  O  O183  1  -0.00398459  0.87627962  0.17372539  1
  O  O184  1  -0.00501752  0.87660305  0.51982299  1
  O  O185  1  0.00515786  0.87308220  0.85910268  1
  O  O186  1  0.33062140  0.37474174  0.17412932  1
  O  O187  1  0.34449561  0.37379475  0.51768508  1
  O  O188  1  0.32561244  0.37700912  0.86076034  1
  O  O189  1  0.34129463  0.87575110  0.17480261  1
  O  O190  1  0.33381541  0.87639205  0.52497364  1
  O  O191  1  0.33413404  0.87369443  0.84393764  1
  O  O192  1  0.67826220  0.37524605  0.18885414  1
  O  O193  1  0.65960634  0.37459808  0.53068515  1
  O  O194  1  0.67377095  0.37362767  0.85959786  1
  O  O195  1  0.67914604  0.87537911  0.19239258  1
  O  O196  1  0.67534948  0.87622315  0.51377814  1
  O  O197  1  0.66274397  0.87629760  0.85766774  1
  O  O198  1  -0.00976670  0.12928280  0.13536173  1
  O  O199  1  -0.01665311  0.12864743  0.47684372  1
  O  O200  1  -0.01057312  0.12683563  0.81953174  1
  O  O201  1  -0.00843938  0.62175863  0.13875150  1
  O  O202  1  -0.01204022  0.62137377  0.49264203  1
  O  O203  1  0.00458316  0.62739718  0.80380894  1
  O  O204  1  0.33504820  0.12719965  0.14436671  1
  O  O205  1  0.33608675  0.12744403  0.47993908  1
  O  O206  1  0.33176231  0.12490076  0.81061843  1
  O  O207  1  0.32660487  0.62201758  0.14606610  1
  O  O208  1  0.33869570  0.62339397  0.48969749  1
  O  O209  1  0.33151539  0.62433666  0.80851898  1
  O  O210  1  0.67582516  0.12085781  0.14154224  1
  O  O211  1  0.67413627  0.12987053  0.47588099  1
  O  O212  1  0.66612025  0.12663033  0.81279585  1
  O  O213  1  0.67389797  0.62812485  0.14264601  1
  O  O214  1  0.67647757  0.61929596  0.47571041  1
  O  O215  1  0.65879320  0.62336074  0.81260834  1
  O  O216  1  0.07749143  0.01804070  0.24702746  1
  O  O217  1  0.08842450  0.01971359  0.57357591  1
  O  O218  1  0.08979478  0.02073467  0.90112447  1
  O  O219  1  0.08582118  0.51018072  0.23597057  1
  O  O220  1  0.07462889  0.51119313  0.58923851  1
  O  O221  1  0.08973041  0.51863854  0.91537849  1
  O  O222  1  0.41631608  0.01572383  0.25547651  1
  O  O223  1  0.41664215  0.02531162  0.58517682  1
  O  O224  1  0.41953710  0.01727562  0.90938400  1
  O  O225  1  0.41569300  0.50978209  0.25350174  1
  O  O226  1  0.41941210  0.52054402  0.58482486  1
  O  O227  1  0.41663636  0.52245122  0.91181900  1
  O  O228  1  0.75290009  0.02637625  0.25193782  1
  O  O229  1  0.74671239  0.02348945  0.58662272  1
  O  O230  1  0.75139195  0.02234084  0.92057014  1
  O  O231  1  0.74754326  0.52332748  0.25607708  1
  O  O232  1  0.74304546  0.52273132  0.59120944  1
  O  O233  1  0.74495537  0.51570496  0.92933981  1
  O  O234  1  0.25274953  0.23738561  0.25343111  1
  O  O235  1  0.25339115  0.22911654  0.58765974  1
  O  O236  1  0.25823839  0.22667750  0.92330906  1
  O  O237  1  0.25219669  0.73597918  0.24857344  1
  O  O238  1  0.25656600  0.73365089  0.59705223  1
  O  O239  1  0.25517314  0.72302200  0.92173296  1
  O  O240  1  0.59216458  0.23909706  0.25660129  1
  O  O241  1  0.58001336  0.22325860  0.57792963  1
  O  O242  1  0.58514005  0.23042940  0.91395633  1
  O  O243  1  0.58974895  0.73843036  0.25408643  1
  O  O244  1  0.58599142  0.72860556  0.58724765  1
  O  O245  1  0.58753526  0.72739130  0.92232061  1
  O  O246  1  0.91249046  0.23099756  0.24693860  1
  O  O247  1  0.90411844  0.23916533  0.57502144  1
  O  O248  1  0.91627456  0.23107010  0.91753447  1
  O  O249  1  0.91072239  0.73810140  0.24437585  1
  O  O250  1  0.91909130  0.73787084  0.58676518  1
  O  O251  1  0.92757078  0.73495335  0.92467271  1
  O  O252  1  0.08270392  0.47086673  0.07339191  1
  O  O253  1  0.07931181  0.48666002  0.41208551  1
  O  O254  1  0.08129246  0.47792062  0.75045654  1
  O  O255  1  0.07216476  0.99182642  0.06393848  1
  O  O256  1  0.07771124  1.00684953  0.41212794  1
  O  O257  1  0.07708414  0.97653742  0.73819432  1
  O  O258  1  0.40845592  0.49090540  0.07491325  1
  O  O259  1  0.43028595  0.49224835  0.42599350  1
  O  O260  1  0.41252842  0.48845863  0.74457025  1
  O  O261  1  0.42468217  0.98508109  0.08377563  1
  O  O262  1  0.41895043  0.99928300  0.41981136  1
  O  O263  1  0.40609258  0.98309571  0.74553482  1
  O  O264  1  0.75768046  0.48148596  0.09181332  1
  O  O265  1  0.75309587  0.47125782  0.42393848  1
  O  O266  1  0.75353181  0.48072003  0.75536019  1
  O  O267  1  0.74902927  0.97499985  0.08289001  1
  O  O268  1  0.75458790  0.98989416  0.42186186  1
  O  O269  1  0.74785527  0.99178214  0.75693723  1
  O  O270  1  0.24441340  0.27141181  0.08187657  1
  O  O271  1  0.25222244  0.25239483  0.42025615  1
  O  O272  1  0.24266226  0.26371755  0.76201431  1
  O  O273  1  0.24423263  0.75085886  0.08380775  1
  O  O274  1  0.25094041  0.75175414  0.42355494  1
  O  O275  1  0.23785911  0.76249867  0.76114480  1
  O  O276  1  0.59305866  0.26006115  0.07622884  1
  O  O277  1  0.59065358  0.27154146  0.41738668  1
  O  O278  1  0.59017772  0.26393563  0.73965644  1
  O  O279  1  0.58606364  0.77584117  0.08855963  1
  O  O280  1  0.58707317  0.75216552  0.41946504  1
  O  O281  1  0.56714587  0.76253845  0.76151302  1
  O  O282  1  0.91639116  0.27599632  0.08048681  1
  O  O283  1  0.91914978  0.27738628  0.40897281  1
  O  O284  1  0.91548082  0.27731783  0.74511346  1
  O  O285  1  0.91115735  0.77081689  0.08520356  1
  O  O286  1  0.90864996  0.76310679  0.42514941  1
  O  O287  1  0.91436394  0.77034125  0.75060241  1
  O  O288  1  0.24384115  0.47873231  0.08215886  1
  O  O289  1  0.25350377  0.49505189  0.41947429  1
  O  O290  1  0.24186527  0.48720694  0.76077960  1
  O  O291  1  0.24926452  0.99870824  0.07711693  1
  O  O292  1  0.24903000  1.00209341  0.42239283  1
  O  O293  1  0.24307139  0.98422115  0.75686564  1
  O  O294  1  0.59587572  0.48929418  0.07776659  1
  O  O295  1  0.59174442  0.47911512  0.41735612  1
  O  O296  1  0.59050612  0.48525140  0.73826251  1
  O  O297  1  0.58711847  0.97309415  0.08831117  1
  O  O298  1  0.58771162  0.99657660  0.41812332  1
  O  O299  1  0.57049140  0.98942590  0.76322739  1
  O  O300  1  0.91871625  0.47443682  0.07872492  1
  O  O301  1  0.91846725  0.47170735  0.40953756  1
  O  O302  1  0.91692235  0.47492520  0.74101256  1
  O  O303  1  0.90830809  0.98020666  0.08846857  1
  O  O304  1  0.91032112  0.98344251  0.42102548  1
  O  O305  1  0.91405102  0.97945110  0.75245557  1
  O  O306  1  0.08165869  0.27345720  0.07537854  1
  O  O307  1  0.07821491  0.25743265  0.40935240  1
  O  O308  1  0.07857866  0.26919670  0.74584542  1
  O  O309  1  0.06985818  0.76088627  0.06613742  1
  O  O310  1  0.07995535  0.75113187  0.41694265  1
  O  O311  1  0.07549458  0.77583047  0.74308736  1
  O  O312  1  0.40951069  0.25991525  0.07337459  1
  O  O313  1  0.42978413  0.25843711  0.42794887  1
  O  O314  1  0.40903521  0.26369852  0.74505021  1
  O  O315  1  0.41963017  0.75921348  0.08089516  1
  O  O316  1  0.42052185  0.75098794  0.41801815  1
  O  O317  1  0.40317102  0.76437284  0.74270130  1
  O  O318  1  0.75544704  0.27148625  0.08400703  1
  O  O319  1  0.75327085  0.27391222  0.42343682  1
  O  O320  1  0.75324415  0.27386174  0.75481491  1
  O  O321  1  0.75073310  0.77179788  0.08708031  1
  O  O322  1  0.75274277  0.76451345  0.42100028  1
  O  O323  1  0.74419914  0.75523491  0.75028136  1
  O  O324  1  0.25384461  0.01550581  0.25509900  1
  O  O325  1  0.25317874  0.02456727  0.58943940  1
  O  O326  1  0.25382350  0.02465864  0.91718619  1
  O  O327  1  0.24701153  0.50974935  0.24338095  1
  O  O328  1  0.25151317  0.51552475  0.59242685  1
  O  O329  1  0.25329907  0.52804968  0.92693338  1
  O  O330  1  0.59092617  0.01381322  0.25318474  1
  O  O331  1  0.58282359  0.02179146  0.58604913  1
  O  O332  1  0.58966051  0.02371176  0.92309356  1
  O  O333  1  0.59145708  0.51001650  0.25529453  1
  O  O334  1  0.58111689  0.52692978  0.57696679  1
  O  O335  1  0.58282777  0.51752592  0.91298744  1
  O  O336  1  0.91489710  0.02528319  0.25312182  1
  O  O337  1  0.91033025  0.01140584  0.58004194  1
  O  O338  1  0.91847280  0.01998746  0.92505215  1
  O  O339  1  0.90705753  0.51004161  0.24160081  1
  O  O340  1  0.90705387  0.50743104  0.57458788  1
  O  O341  1  0.92389136  0.51330627  0.91732780  1
  O  O342  1  0.07515689  0.23717889  0.24983546  1
  O  O343  1  0.08666945  0.23195856  0.57437773  1
  O  O344  1  0.08787002  0.23818796  0.90787654  1
  O  O345  1  0.08603010  0.73386722  0.23435338  1
  O  O346  1  0.08153169  0.73439660  0.58485076  1
  O  O347  1  0.09123457  0.72553539  0.90677629  1
  O  O348  1  0.41596230  0.23398925  0.25994418  1
  O  O349  1  0.41747972  0.22483606  0.58564634  1
  O  O350  1  0.41954492  0.22912997  0.91087896  1
  O  O351  1  0.42057441  0.74460220  0.24788385  1
  O  O352  1  0.42112000  0.72794155  0.58337546  1
  O  O353  1  0.42018997  0.73239615  0.90679670  1
  O  O354  1  0.75169558  0.22361693  0.25432472  1
  O  O355  1  0.74295158  0.22741840  0.59095466  1
  O  O356  1  0.75276131  0.22368416  0.91964706  1
  O  O357  1  0.75074447  0.72608163  0.25215306  1
  O  O358  1  0.75056201  0.72564506  0.58478989  1
  O  O359  1  0.74610217  0.73657100  0.92723059  1
