# generated using pymatgen
data_Ba17Sr5La8Pr42Mn72O216
_symmetry_space_group_name_H-M   'P 1'
_cell_length_a   16.67982312
_cell_length_b   15.70904830
_cell_length_c   16.81293161
_cell_angle_alpha   90.00639362
_cell_angle_beta   90.00685456
_cell_angle_gamma   89.99437205
_symmetry_Int_Tables_number   1
_chemical_formula_structural   Ba17Sr5La8Pr42Mn72O216
_chemical_formula_sum   'Ba17 Sr5 La8 Pr42 Mn72 O216'
_cell_volume   4405.39398169
_cell_formula_units_Z   1
loop_
 _symmetry_equiv_pos_site_id
 _symmetry_equiv_pos_as_xyz
  1  'x, y, z'
loop_
 _atom_site_type_symbol
 _atom_site_label
 _atom_site_symmetry_multiplicity
 _atom_site_fract_x
 _atom_site_fract_y
 _atom_site_fract_z
 _atom_site_occupancy
  Ba  Ba0  1  0.83350725  0.87663936  0.83403210  1
  Ba  Ba1  1  0.33005754  0.62329635  0.66363171  1
  Ba  Ba2  1  0.49657568  0.62326484  0.16767153  1
  Ba  Ba3  1  0.49809234  0.62488355  0.50231390  1
  Ba  Ba4  1  0.66962250  0.87525323  0.00273979  1
  Ba  Ba5  1  0.16198091  0.62363240  0.83386482  1
  Ba  Ba6  1  0.33395529  0.12398652  0.32829267  1
  Ba  Ba7  1  0.50352614  0.87636835  0.50063804  1
  Ba  Ba8  1  0.49627994  0.12711960  0.83606464  1
  Ba  Ba9  1  0.83306492  0.62273982  0.50102132  1
  Ba  Ba10  1  0.00354457  0.37476197  0.33363334  1
  Ba  Ba11  1  0.83425416  0.12597608  0.16823965  1
  Ba  Ba12  1  0.49890807  0.12510978  0.50204793  1
  Ba  Ba13  1  0.16639394  0.87499341  0.49534415  1
  Ba  Ba14  1  0.33171797  0.62425006  0.99607332  1
  Ba  Ba15  1  0.66897431  0.87504881  0.33591166  1
  Ba  Ba16  1  0.49688608  0.62267414  0.83452232  1
  Sr  Sr17  1  0.00181860  0.87692386  0.33156460  1
  Sr  Sr18  1  0.33173346  0.12844139  0.99683867  1
  Sr  Sr19  1  -0.00716936  0.12600816  0.99996071  1
  Sr  Sr20  1  0.50084732  0.12552615  0.16895425  1
  Sr  Sr21  1  0.50278270  0.37246753  0.16658484  1
  La  La22  1  0.50301208  0.37526868  0.49820635  1
  La  La23  1  0.16414761  0.12569019  0.16549837  1
  La  La24  1  -0.00441822  0.62750256  0.66572397  1
  La  La25  1  0.17099309  0.87609664  0.82856712  1
  La  La26  1  -0.00809038  0.12295521  0.66691605  1
  La  La27  1  0.66422848  0.62611445  0.66620625  1
  La  La28  1  0.66507689  0.87476190  0.66951555  1
  La  La29  1  0.15886828  0.12568523  0.83542346  1
  Pr  Pr30  1  0.50352206  0.87180271  0.83106592  1
  Pr  Pr31  1  0.15975942  0.62410540  0.16490381  1
  Pr  Pr32  1  0.66516377  0.12404845  0.66829057  1
  Pr  Pr33  1  0.50565982  0.87922581  0.16647121  1
  Pr  Pr34  1  0.15918662  0.62473888  0.50096744  1
  Pr  Pr35  1  -0.00071491  0.12193790  0.32954151  1
  Pr  Pr36  1  0.84481908  0.87479324  0.16092933  1
  Pr  Pr37  1  0.34143602  0.37568010  -0.00114485  1
  Pr  Pr38  1  0.84130062  0.37599200  0.16329095  1
  Pr  Pr39  1  -0.00529107  0.62912848  0.33408927  1
  Pr  Pr40  1  0.32269415  0.12503278  0.65797562  1
  Pr  Pr41  1  0.49738283  0.37555620  0.83647477  1
  Pr  Pr42  1  0.82709045  0.62574542  0.83537376  1
  Pr  Pr43  1  0.34165674  0.37319898  0.33008004  1
  Pr  Pr44  1  0.17657145  0.87791392  0.16273153  1
  Pr  Pr45  1  0.15814308  0.12470744  0.49710242  1
  Pr  Pr46  1  0.65777241  0.62478828  1.00023840  1
  Pr  Pr47  1  0.65688661  0.62583895  0.33604602  1
  Pr  Pr48  1  0.00392835  0.37679612  0.66768268  1
  Pr  Pr49  1  0.00430964  0.87237068  0.66846156  1
  Pr  Pr50  1  0.34274946  0.87563678  -0.00416999  1
  Pr  Pr51  1  0.34364500  0.87476491  0.66614870  1
  Pr  Pr52  1  0.17451508  0.37505322  0.49350539  1
  Pr  Pr53  1  0.83158150  0.12677292  0.49858982  1
  Pr  Pr54  1  0.83600892  0.37620447  0.49873626  1
  Pr  Pr55  1  0.17368709  0.37372953  0.83047016  1
  Pr  Pr56  1  0.65955117  0.12429228  0.33139224  1
  Pr  Pr57  1  0.34138892  0.37507989  0.66471555  1
  Pr  Pr58  1  0.66793404  0.37484016  0.00750681  1
  Pr  Pr59  1  0.83801273  0.87449200  0.49832838  1
  Pr  Pr60  1  0.66948145  0.37407411  0.33586811  1
  Pr  Pr61  1  0.17667114  0.37246949  0.16337742  1
  Pr  Pr62  1  0.34324422  0.87625317  0.33312049  1
  Pr  Pr63  1  -0.00716459  0.62401805  0.99610968  1
  Pr  Pr64  1  0.83655393  0.37172361  0.83333907  1
  Pr  Pr65  1  0.66754719  0.37609033  0.67156318  1
  Pr  Pr66  1  0.01041277  0.37203110  0.00568792  1
  Pr  Pr67  1  0.32546405  0.62885376  0.32750000  1
  Pr  Pr68  1  0.82513231  0.62531347  0.17240513  1
  Pr  Pr69  1  0.66197351  0.12597667  1.00192548  1
  Pr  Pr70  1  0.82617675  0.12481897  0.84165453  1
  Pr  Pr71  1  0.00763154  0.87732201  0.00302816  1
  Mn  Mn72  1  0.00310785  0.00027817  0.16703710  1
  Mn  Mn73  1  -0.00223205  0.00189545  0.49888824  1
  Mn  Mn74  1  -0.00063192  0.00150604  0.83436621  1
  Mn  Mn75  1  0.00152837  0.50019939  0.16515868  1
  Mn  Mn76  1  0.00104719  0.49767003  0.50142310  1
  Mn  Mn77  1  -0.00270179  0.49621519  0.83495477  1
  Mn  Mn78  1  0.33479571  0.00004835  0.16192293  1
  Mn  Mn79  1  0.33030224  0.00018407  0.49799553  1
  Mn  Mn80  1  0.33173894  0.00212409  0.83074475  1
  Mn  Mn81  1  0.33120131  0.49988441  0.16544893  1
  Mn  Mn82  1  0.33155464  0.49833832  0.49558789  1
  Mn  Mn83  1  0.33099700  0.49756847  0.83203087  1
  Mn  Mn84  1  0.66892835  0.00043669  0.16910067  1
  Mn  Mn85  1  0.67061870  0.00333304  0.50228888  1
  Mn  Mn86  1  0.66489144  0.00183360  0.83504735  1
  Mn  Mn87  1  0.66877428  0.49899819  0.17052807  1
  Mn  Mn88  1  0.66866442  0.49693505  0.50355567  1
  Mn  Mn89  1  0.66828715  0.49668852  0.83793256  1
  Mn  Mn90  1  0.00228837  0.25009421  0.16739897  1
  Mn  Mn91  1  -0.00026365  0.24947892  0.50119775  1
  Mn  Mn92  1  -0.00194057  0.25142293  0.83432839  1
  Mn  Mn93  1  0.00261565  0.74875219  0.16483803  1
  Mn  Mn94  1  -0.00065281  0.75125515  0.49842203  1
  Mn  Mn95  1  -0.00173400  0.75010382  0.83435971  1
  Mn  Mn96  1  0.33526097  0.24948782  0.16275629  1
  Mn  Mn97  1  0.33046393  0.24931533  0.49831880  1
  Mn  Mn98  1  0.33127063  0.25002263  0.82950150  1
  Mn  Mn99  1  0.33136386  0.75148386  0.16431586  1
  Mn  Mn100  1  0.33117245  0.75038633  0.49626225  1
  Mn  Mn101  1  0.33117121  0.75215484  0.83213277  1
  Mn  Mn102  1  0.66928988  0.25110717  0.16991420  1
  Mn  Mn103  1  0.66982381  0.25089755  0.50304359  1
  Mn  Mn104  1  0.66655903  0.25277376  0.83738332  1
  Mn  Mn105  1  0.66764711  0.74968673  0.16922378  1
  Mn  Mn106  1  0.66974423  0.74960652  0.50244333  1
  Mn  Mn107  1  0.66637394  0.74836174  0.83533747  1
  Mn  Mn108  1  0.16718016  0.24827014  -0.00240469  1
  Mn  Mn109  1  0.16838206  0.24986022  0.33114580  1
  Mn  Mn110  1  0.16338715  0.25082902  0.66402338  1
  Mn  Mn111  1  0.16598358  0.75247959  -0.00125960  1
  Mn  Mn112  1  0.16522610  0.75020199  0.32947691  1
  Mn  Mn113  1  0.16581927  0.75033334  0.66429077  1
  Mn  Mn114  1  0.50058901  0.24992467  0.00305853  1
  Mn  Mn115  1  0.50146752  0.25204461  0.33259491  1
  Mn  Mn116  1  0.50036782  0.25051319  0.66836641  1
  Mn  Mn117  1  0.50054985  0.75184256  0.00069767  1
  Mn  Mn118  1  0.49881425  0.74824724  0.33368624  1
  Mn  Mn119  1  0.50018647  0.74974634  0.66727349  1
  Mn  Mn120  1  0.83248618  0.25136782  -0.00008739  1
  Mn  Mn121  1  0.83446658  0.25129691  0.33501986  1
  Mn  Mn122  1  0.83307204  0.24983753  0.66838176  1
  Mn  Mn123  1  0.83598393  0.74792710  0.00243221  1
  Mn  Mn124  1  0.83396623  0.75032466  0.33252645  1
  Mn  Mn125  1  0.83287416  0.75081055  0.66732316  1
  Mn  Mn126  1  0.16724226  0.00202400  -0.00312842  1
  Mn  Mn127  1  0.16689551  -0.00065109  0.32976689  1
  Mn  Mn128  1  0.16503813  0.00122041  0.66541539  1
  Mn  Mn129  1  0.16602189  0.49811744  -0.00054024  1
  Mn  Mn130  1  0.16763036  0.50050320  0.33157304  1
  Mn  Mn131  1  0.16443214  0.49793976  0.66312545  1
  Mn  Mn132  1  0.49945113  0.00227494  0.00095144  1
  Mn  Mn133  1  0.50108341  0.00110053  0.33235741  1
  Mn  Mn134  1  0.49929614  0.00237170  0.67037133  1
  Mn  Mn135  1  0.50140698  0.49719111  0.00222061  1
  Mn  Mn136  1  0.49894654  0.49799958  0.33416689  1
  Mn  Mn137  1  0.50109945  0.49673703  0.66702283  1
  Mn  Mn138  1  0.83473825  0.00063922  0.00136568  1
  Mn  Mn139  1  0.83489833  -0.00042561  0.33421730  1
  Mn  Mn140  1  0.83215920  0.00259574  0.66626348  1
  Mn  Mn141  1  0.83361824  0.49952655  0.00011509  1
  Mn  Mn142  1  0.83328948  0.50004764  0.33296055  1
  Mn  Mn143  1  0.83351135  0.49630282  0.66975981  1
  O  O144  1  0.17329706  0.12551234  0.02090030  1
  O  O145  1  0.16648354  0.12648383  0.35236606  1
  O  O146  1  0.17196234  0.12867150  0.69135604  1
  O  O147  1  0.16263392  0.62534149  0.02078458  1
  O  O148  1  0.17817316  0.62330849  0.35583928  1
  O  O149  1  0.16101404  0.62512861  0.67698492  1
  O  O150  1  0.50135787  0.12729967  0.01913479  1
  O  O151  1  0.50661976  0.12979595  0.34288601  1
  O  O152  1  0.50345826  0.12817450  0.68012823  1
  O  O153  1  0.50376143  0.62089360  0.00963559  1
  O  O154  1  0.50020134  0.62095321  0.34484562  1
  O  O155  1  0.50745713  0.62091640  0.67703585  1
  O  O156  1  0.82955205  0.12750915  0.01213184  1
  O  O157  1  0.84417169  0.12754107  0.35554683  1
  O  O158  1  0.83857840  0.12792408  0.69778374  1
  O  O159  1  0.84301986  0.62151815  0.02830802  1
  O  O160  1  0.84577231  0.62477805  0.34497260  1
  O  O161  1  0.84043017  0.61800332  0.69176300  1
  O  O162  1  0.16902542  0.37538166  0.30777329  1
  O  O163  1  0.15300779  0.37165549  0.63610048  1
  O  O164  1  0.15836954  0.37049207  0.97580776  1
  O  O165  1  0.15816827  0.87338162  0.30589196  1
  O  O166  1  0.15386769  0.87563186  0.65321769  1
  O  O167  1  0.15648930  0.88000576  0.97392262  1
  O  O168  1  0.50093226  0.37564572  0.31655290  1
  O  O169  1  0.50009568  0.37193955  0.64410521  1
  O  O170  1  0.50720258  0.37305625  0.98275596  1
  O  O171  1  0.49667395  0.87301598  0.31331027  1
  O  O172  1  0.50288228  0.87789321  0.65970410  1
  O  O173  1  0.49926264  0.87978801  0.97715440  1
  O  O174  1  0.82538692  0.37761735  0.30792735  1
  O  O175  1  0.82419496  0.37125701  0.64158316  1
  O  O176  1  0.82305925  0.37660490  0.97539840  1
  O  O177  1  0.83434692  0.87116465  0.30599724  1
  O  O178  1  0.82494939  0.88202072  0.64327177  1
  O  O179  1  0.84173345  0.87385524  0.99131843  1
  O  O180  1  -0.00106247  0.37465684  0.17690866  1
  O  O181  1  0.00195945  0.37181788  0.52349501  1
  O  O182  1  -0.00740562  0.37436795  0.86323598  1
  O  O183  1  -0.00373298  0.87180042  0.18270622  1
  O  O184  1  -0.00527971  0.88134286  0.52437184  1
  O  O185  1  0.00466290  0.88056808  0.85736204  1
  O  O186  1  0.32421610  0.37652553  0.18649189  1
  O  O187  1  0.32292052  0.37221140  0.52048829  1
  O  O188  1  0.32459212  0.37213174  0.85103861  1
  O  O189  1  0.32525640  0.87439188  0.18893699  1
  O  O190  1  0.33075405  0.87930687  0.52023360  1
  O  O191  1  0.32566747  0.88011424  0.85045935  1
  O  O192  1  0.67742032  0.37642538  0.19182866  1
  O  O193  1  0.67581440  0.37210322  0.52836949  1
  O  O194  1  0.67813853  0.37499287  0.86456776  1
  O  O195  1  0.66253571  0.87329304  0.17885598  1
  O  O196  1  0.67962842  0.88097387  0.52451016  1
  O  O197  1  0.66038001  0.87585025  0.84324965  1
  O  O198  1  0.00704348  0.12739856  0.14921892  1
  O  O199  1  -0.00423761  0.12702639  0.47449661  1
  O  O200  1  -0.00130821  0.12764960  0.80987631  1
  O  O201  1  0.00737063  0.62434631  0.13758642  1
  O  O202  1  0.00417398  0.62061077  0.48005636  1
  O  O203  1  -0.00675565  0.61765200  0.80869805  1
  O  O204  1  0.33340302  0.12365271  0.14563132  1
  O  O205  1  0.32559721  0.12566948  0.48728659  1
  O  O206  1  0.32771859  0.12716887  0.80347399  1
  O  O207  1  0.32564210  0.62539547  0.15226323  1
  O  O208  1  0.32759665  0.62114664  0.47294039  1
  O  O209  1  0.33108915  0.62109370  0.82284114  1
  O  O210  1  0.66672166  0.12719387  0.14656803  1
  O  O211  1  0.67593255  0.13047598  0.47525545  1
  O  O212  1  0.67188738  0.12992604  0.81210451  1
  O  O213  1  0.67443682  0.62282056  0.14413854  1
  O  O214  1  0.66762460  0.61706100  0.48161285  1
  O  O215  1  0.67145807  0.61840821  0.81156627  1
  O  O216  1  0.08165829  0.02169891  0.25143880  1
  O  O217  1  0.07583452  0.02430822  0.58797804  1
  O  O218  1  0.07760250  0.02329269  0.92168397  1
  O  O219  1  0.07758886  0.52630997  0.26014373  1
  O  O220  1  0.07527524  0.51921846  0.59037158  1
  O  O221  1  0.06945442  0.51138304  0.92983257  1
  O  O222  1  0.41761299  0.00236481  0.24379445  1
  O  O223  1  0.40671594  0.01176209  0.59758330  1
  O  O224  1  0.40472352  0.01099753  0.92213053  1
  O  O225  1  0.40064322  0.50953746  0.25879122  1
  O  O226  1  0.40960656  0.49943405  0.58227469  1
  O  O227  1  0.41638191  0.49312520  0.91758998  1
  O  O228  1  0.74461622  0.01939736  0.26246989  1
  O  O229  1  0.75025958  0.03212857  0.58747415  1
  O  O230  1  0.74567725  0.01902513  0.91847319  1
  O  O231  1  0.74543493  0.52523343  0.25702031  1
  O  O232  1  0.74497084  0.51458799  0.59580315  1
  O  O233  1  0.74791586  0.52752901  0.92483217  1
  O  O234  1  0.24174666  0.23725164  0.23467711  1
  O  O235  1  0.23642224  0.23209340  0.57360717  1
  O  O236  1  0.23848462  0.23524774  0.90226729  1
  O  O237  1  0.23670609  0.73337822  0.23633196  1
  O  O238  1  0.24121307  0.73452562  0.56923471  1
  O  O239  1  0.24039304  0.74885632  0.90975229  1
  O  O240  1  0.58761280  0.23906116  0.25236322  1
  O  O241  1  0.59027330  0.23823752  0.58958233  1
  O  O242  1  0.58657072  0.23724165  0.92277568  1
  O  O243  1  0.58242193  0.73524141  0.25245386  1
  O  O244  1  0.58871922  0.74292943  0.59083679  1
  O  O245  1  0.58626231  0.73554294  0.91887181  1
  O  O246  1  0.91804232  0.24050713  0.25412687  1
  O  O247  1  0.91206057  0.22999850  0.58389688  1
  O  O248  1  0.90443425  0.23651186  0.90674439  1
  O  O249  1  0.91201786  0.73033256  0.23800118  1
  O  O250  1  0.91563569  0.74324159  0.58323059  1
  O  O251  1  0.90970946  0.72568729  0.90962285  1
  O  O252  1  0.09342749  0.48020666  0.09253846  1
  O  O253  1  0.09772959  0.48724403  0.42657696  1
  O  O254  1  0.08293553  0.47336727  0.75784465  1
  O  O255  1  0.09118184  0.98147240  0.08934188  1
  O  O256  1  0.08251502  0.99784548  0.41668651  1
  O  O257  1  0.08914060  0.98816919  0.75663641  1
  O  O258  1  0.41806824  0.48035741  0.08483460  1
  O  O259  1  0.41926370  0.47369782  0.42122618  1
  O  O260  1  0.41828172  0.47592770  0.75121257  1
  O  O261  1  0.41965105  0.97395595  0.08465851  1
  O  O262  1  0.41719834  0.98805932  0.41234718  1
  O  O263  1  0.42014075  0.97787739  0.75832861  1
  O  O264  1  0.75949309  0.48020282  0.09063860  1
  O  O265  1  0.75093982  0.47666783  0.42257065  1
  O  O266  1  0.75390506  0.47606475  0.75737096  1
  O  O267  1  0.75899121  0.98531765  0.09523328  1
  O  O268  1  0.76269396  0.98947810  0.42950269  1
  O  O269  1  0.74565874  0.99210932  0.74582856  1
  O  O270  1  0.25598899  0.27203557  0.07210321  1
  O  O271  1  0.25593553  0.27200158  0.40726828  1
  O  O272  1  0.25248410  0.27453759  0.73620536  1
  O  O273  1  0.25582492  0.77558414  0.07377990  1
  O  O274  1  0.25825262  0.76644408  0.39607381  1
  O  O275  1  0.25336319  0.77152974  0.74010458  1
  O  O276  1  0.59232720  0.26657041  0.08317664  1
  O  O277  1  0.58966318  0.27237446  0.41950114  1
  O  O278  1  0.58700794  0.27670786  0.75710229  1
  O  O279  1  0.58537566  0.75761937  0.08505322  1
  O  O280  1  0.58986423  0.75211965  0.41742554  1
  O  O281  1  0.58350082  0.76359717  0.75121861  1
  O  O282  1  0.91950286  0.27079041  0.07541613  1
  O  O283  1  0.91305693  0.26941760  0.42317139  1
  O  O284  1  0.92035885  0.27523880  0.74391970  1
  O  O285  1  0.93134616  0.76561513  0.07330548  1
  O  O286  1  0.92107682  0.76709513  0.41054343  1
  O  O287  1  0.92333125  0.76671603  0.74117127  1
  O  O288  1  0.25394998  0.47634922  0.07543973  1
  O  O289  1  0.25946780  0.47688960  0.40228016  1
  O  O290  1  0.25012266  0.47497166  0.73832969  1
  O  O291  1  0.25633853  0.97751085  0.07089437  1
  O  O292  1  0.25400869  0.98149308  0.40098244  1
  O  O293  1  0.25775476  0.98158409  0.73620734  1
  O  O294  1  0.59274777  0.48388284  0.08301538  1
  O  O295  1  0.58821774  0.47647227  0.42087197  1
  O  O296  1  0.58659159  0.47252318  0.75684055  1
  O  O297  1  0.58212483  0.98987612  0.08985721  1
  O  O298  1  0.59103313  0.99782462  0.41824552  1
  O  O299  1  0.58240104  0.98741775  0.75355926  1
  O  O300  1  0.92330368  0.47619025  0.07008574  1
  O  O301  1  0.91694955  0.48368201  0.41944904  1
  O  O302  1  0.91782031  0.46918129  0.74937145  1
  O  O303  1  0.92634091  0.98445263  0.08117970  1
  O  O304  1  0.91795939  0.97918803  0.41619889  1
  O  O305  1  0.92665919  0.98363945  0.73728393  1
  O  O306  1  0.09306152  0.26724900  0.08831650  1
  O  O307  1  0.09404835  0.26098834  0.42763587  1
  O  O308  1  0.08705951  0.27150082  0.75461561  1
  O  O309  1  0.09418531  0.77162997  0.09247473  1
  O  O310  1  0.08592314  0.75172861  0.41523874  1
  O  O311  1  0.08422682  0.76706858  0.75574087  1
  O  O312  1  0.41754559  0.27203041  0.08268278  1
  O  O313  1  0.42009683  0.27083524  0.42075865  1
  O  O314  1  0.41884230  0.27490426  0.75440380  1
  O  O315  1  0.42080725  0.77472651  0.08877863  1
  O  O316  1  0.41547454  0.76385107  0.41516013  1
  O  O317  1  0.41898753  0.77029453  0.75295405  1
  O  O318  1  0.75548492  0.27350172  0.08848352  1
  O  O319  1  0.75469436  0.27333739  0.42213960  1
  O  O320  1  0.75322312  0.27087365  0.75410379  1
  O  O321  1  0.76694962  0.76055621  0.09877424  1
  O  O322  1  0.76041334  0.76427926  0.42595534  1
  O  O323  1  0.74945169  0.75592278  0.75233784  1
  O  O324  1  0.24081328  0.01195862  0.23320595  1
  O  O325  1  0.23883592  0.02218015  0.57709834  1
  O  O326  1  0.23851275  0.01709537  0.89993886  1
  O  O327  1  0.23731476  0.51765748  0.23840730  1
  O  O328  1  0.23800296  0.51024517  0.56396668  1
  O  O329  1  0.24131256  0.50060638  0.91098683  1
  O  O330  1  0.58440327  0.01448796  0.25048329  1
  O  O331  1  0.59102208  0.01322893  0.59167080  1
  O  O332  1  0.58559704  0.01932412  0.92308858  1
  O  O333  1  0.58785317  0.51066461  0.25629050  1
  O  O334  1  0.58839826  0.50451987  0.58907454  1
  O  O335  1  0.58942844  0.50870074  0.92187876  1
  O  O336  1  0.92112614  0.01206700  0.25254911  1
  O  O337  1  0.90985919  0.02423225  0.57772307  1
  O  O338  1  0.91100786  0.01935735  0.90809976  1
  O  O339  1  0.91184839  0.51528774  0.23633958  1
  O  O340  1  0.91773548  0.50518251  0.59032541  1
  O  O341  1  0.90723845  0.51979077  0.90930947  1
  O  O342  1  0.08199335  0.22891904  0.25705528  1
  O  O343  1  0.07536195  0.22239571  0.59004291  1
  O  O344  1  0.07652345  0.23257310  0.92253910  1
  O  O345  1  0.07633080  0.72223310  0.25351297  1
  O  O346  1  0.07679886  0.73367991  0.58799822  1
  O  O347  1  0.06961596  0.73680767  0.93084131  1
  O  O348  1  0.41387604  0.24698707  0.24751200  1
  O  O349  1  0.40117608  0.24004846  0.59097870  1
  O  O350  1  0.41039642  0.24789266  0.92019696  1
  O  O351  1  0.40288101  0.73915822  0.25632711  1
  O  O352  1  0.41351932  0.74706951  0.58947202  1
  O  O353  1  0.41353429  0.75223400  0.91815054  1
  O  O354  1  0.74431405  0.23340237  0.26271737  1
  O  O355  1  0.75081896  0.22312609  0.58899453  1
  O  O356  1  0.74426033  0.22822724  0.92252856  1
  O  O357  1  0.74422830  0.72434455  0.25992031  1
  O  O358  1  0.74546234  0.73227352  0.59339773  1
  O  O359  1  0.74716820  0.72611279  0.92473072  1
