# generated using pymatgen
data_Ba17Sr5La8Pr42Mn72O216
_symmetry_space_group_name_H-M   'P 1'
_cell_length_a   16.68574453
_cell_length_b   15.70810663
_cell_length_c   16.82394080
_cell_angle_alpha   90.00865263
_cell_angle_beta   90.00721421
_cell_angle_gamma   90.00281327
_symmetry_Int_Tables_number   1
_chemical_formula_structural   Ba17Sr5La8Pr42Mn72O216
_chemical_formula_sum   'Ba17 Sr5 La8 Pr42 Mn72 O216'
_cell_volume   4409.57926043
_cell_formula_units_Z   1
loop_
 _symmetry_equiv_pos_site_id
 _symmetry_equiv_pos_as_xyz
  1  'x, y, z'
loop_
 _atom_site_type_symbol
 _atom_site_label
 _atom_site_symmetry_multiplicity
 _atom_site_fract_x
 _atom_site_fract_y
 _atom_site_fract_z
 _atom_site_occupancy
  Ba  Ba0  1  0.49820781  0.37611446  0.16617771  1
  Ba  Ba1  1  0.66409391  0.87548116  0.66769396  1
  Ba  Ba2  1  0.16587741  0.87552561  0.49811815  1
  Ba  Ba3  1  0.49697513  0.37642941  0.49836520  1
  Ba  Ba4  1  0.83450920  0.62410238  0.83664230  1
  Ba  Ba5  1  0.66643114  0.62452244  0.33361035  1
  Ba  Ba6  1  0.00178324  0.12486156  0.99739883  1
  Ba  Ba7  1  0.66812698  0.12423131  0.33173431  1
  Ba  Ba8  1  0.50163722  0.62686350  0.49939710  1
  Ba  Ba9  1  0.33087765  0.37470919  0.00338017  1
  Ba  Ba10  1  0.33183323  0.87526239  0.00148582  1
  Ba  Ba11  1  0.83552046  0.62659197  0.16914647  1
  Ba  Ba12  1  0.00033689  0.37629901  0.33169624  1
  Ba  Ba13  1  0.66347695  0.37416585  0.66752332  1
  Ba  Ba14  1  0.66372543  0.37464554  0.33332698  1
  Ba  Ba15  1  0.83255751  0.87444654  0.50247848  1
  Ba  Ba16  1  0.83734754  0.12459547  0.49811121  1
  Sr  Sr17  1  0.49925661  0.62644887  0.17049195  1
  Sr  Sr18  1  0.33099649  0.37603841  0.33501152  1
  Sr  Sr19  1  0.49845725  0.87490571  0.49934436  1
  Sr  Sr20  1  0.83652822  0.62284914  0.50109095  1
  Sr  Sr21  1  0.17242757  0.12621633  0.49857026  1
  La  La22  1  0.00826128  0.12474381  0.66103321  1
  La  La23  1  0.66870650  0.12450131  1.00266447  1
  La  La24  1  0.50489344  0.12616208  0.50010028  1
  La  La25  1  0.50496344  0.12350282  0.83339269  1
  La  La26  1  0.82728464  0.37188762  0.83532503  1
  La  La27  1  0.82718394  0.37574200  0.49528423  1
  La  La28  1  0.50672490  0.62656305  0.83351847  1
  La  La29  1  0.82768668  0.87508898  0.16922730  1
  Pr  Pr30  1  0.32681256  0.37660341  0.66975490  1
  Pr  Pr31  1  -0.00909848  0.37566630  0.00644255  1
  Pr  Pr32  1  0.33915978  0.62542977  0.33460601  1
  Pr  Pr33  1  0.34028981  0.62556477  0.66497906  1
  Pr  Pr34  1  0.15500426  0.87606905  0.82580616  1
  Pr  Pr35  1  0.33738383  0.12363741  0.33810293  1
  Pr  Pr36  1  0.34557939  0.62405483  0.99973060  1
  Pr  Pr37  1  0.66610044  0.87058592  0.34066375  1
  Pr  Pr38  1  -0.00901754  0.37426813  0.66365134  1
  Pr  Pr39  1  0.67584146  0.62453264  0.65928683  1
  Pr  Pr40  1  0.33428865  0.87261298  0.33704965  1
  Pr  Pr41  1  0.48814788  0.87591547  0.82689842  1
  Pr  Pr42  1  0.82307300  0.37520482  0.16844036  1
  Pr  Pr43  1  0.84043157  0.12603688  0.17595060  1
  Pr  Pr44  1  0.66743197  0.87173605  -0.00199125  1
  Pr  Pr45  1  0.17369960  0.62481986  0.16571736  1
  Pr  Pr46  1  0.67350581  0.12410831  0.65966165  1
  Pr  Pr47  1  -0.00993598  0.87575541  0.66536157  1
  Pr  Pr48  1  0.49419165  0.12566965  0.16795914  1
  Pr  Pr49  1  0.16183537  0.37433183  0.16401359  1
  Pr  Pr50  1  0.17550131  0.62420633  0.83613248  1
  Pr  Pr51  1  0.66944033  0.62407652  1.00245310  1
  Pr  Pr52  1  0.16390070  0.37301958  0.49504763  1
  Pr  Pr53  1  0.17708896  0.12589785  0.16672667  1
  Pr  Pr54  1  0.17161845  0.62204385  0.50006935  1
  Pr  Pr55  1  0.34083692  0.12396172  0.66235259  1
  Pr  Pr56  1  0.15395045  0.37335224  0.83157074  1
  Pr  Pr57  1  0.32731929  0.87249085  0.66886859  1
  Pr  Pr58  1  0.50480025  0.87468938  0.16585792  1
  Pr  Pr59  1  0.00826331  0.11964492  0.32841541  1
  Pr  Pr60  1  -0.00752353  0.87413531  -0.00105319  1
  Pr  Pr61  1  0.49156045  0.37537108  0.82960110  1
  Pr  Pr62  1  0.00508208  0.62532831  0.66249109  1
  Pr  Pr63  1  0.83184916  0.12448936  0.83455805  1
  Pr  Pr64  1  0.16193666  0.87606096  0.16235668  1
  Pr  Pr65  1  0.00932321  0.62445802  0.99400236  1
  Pr  Pr66  1  0.00468172  0.62987593  0.33196239  1
  Pr  Pr67  1  0.82708673  0.87655185  0.82848131  1
  Pr  Pr68  1  0.66474982  0.37859119  0.00471746  1
  Pr  Pr69  1  0.34102507  0.12655823  0.99839965  1
  Pr  Pr70  1  -0.00730517  0.87364082  0.33487897  1
  Pr  Pr71  1  0.17667586  0.12549293  0.83493131  1
  Mn  Mn72  1  0.00222173  -0.00194758  0.16401900  1
  Mn  Mn73  1  0.00398962  0.00079616  0.49765680  1
  Mn  Mn74  1  -0.00089408  0.00174124  0.83072379  1
  Mn  Mn75  1  0.00072951  0.50187684  0.16517336  1
  Mn  Mn76  1  0.00232092  0.50073474  0.50011896  1
  Mn  Mn77  1  0.00018363  0.49787425  0.83269341  1
  Mn  Mn78  1  0.33265456  -0.00151008  0.16829184  1
  Mn  Mn79  1  0.33435778  -0.00098963  0.50084247  1
  Mn  Mn80  1  0.33049971  0.00056992  0.83310813  1
  Mn  Mn81  1  0.33197791  0.50134537  0.16790756  1
  Mn  Mn82  1  0.33151395  0.50040548  0.50160541  1
  Mn  Mn83  1  0.33185012  0.50021970  0.83431108  1
  Mn  Mn84  1  0.66718803  -0.00091891  0.16563442  1
  Mn  Mn85  1  0.66562025  -0.00176618  0.49939831  1
  Mn  Mn86  1  0.66516368  0.00183890  0.83424534  1
  Mn  Mn87  1  0.66532308  0.50143242  0.16720739  1
  Mn  Mn88  1  0.66766735  0.50122519  0.50026264  1
  Mn  Mn89  1  0.66485162  0.50016114  0.83511205  1
  Mn  Mn90  1  0.00138212  0.24976687  0.16530749  1
  Mn  Mn91  1  0.00407340  0.24926524  0.49858812  1
  Mn  Mn92  1  -0.00134404  0.24991857  0.83074979  1
  Mn  Mn93  1  0.00195149  0.75097998  0.16402584  1
  Mn  Mn94  1  0.00211327  0.74918460  0.49896871  1
  Mn  Mn95  1  0.00101676  0.74903937  0.83203052  1
  Mn  Mn96  1  0.33179659  0.25009962  0.16861456  1
  Mn  Mn97  1  0.33257864  0.24943392  0.50149275  1
  Mn  Mn98  1  0.33183193  0.24998284  0.83248345  1
  Mn  Mn99  1  0.33213354  0.75134613  0.16823270  1
  Mn  Mn100  1  0.33305989  0.75094600  0.50134440  1
  Mn  Mn101  1  0.33102458  0.74909048  0.83457708  1
  Mn  Mn102  1  0.66674772  0.24824092  0.16400763  1
  Mn  Mn103  1  0.66672501  0.24847872  0.50002591  1
  Mn  Mn104  1  0.66396871  0.24795710  0.83541879  1
  Mn  Mn105  1  0.66554411  0.75318663  0.16782415  1
  Mn  Mn106  1  0.66733269  0.75008773  0.50159822  1
  Mn  Mn107  1  0.66561152  0.74908683  0.83412404  1
  Mn  Mn108  1  0.16601900  0.24865340  -0.00152096  1
  Mn  Mn109  1  0.16857498  0.24859376  0.33279070  1
  Mn  Mn110  1  0.16711862  0.25168426  0.66574650  1
  Mn  Mn111  1  0.16689735  0.75167845  -0.00228880  1
  Mn  Mn112  1  0.16828140  0.74986335  0.32992271  1
  Mn  Mn113  1  0.16497281  0.74851494  0.66724416  1
  Mn  Mn114  1  0.50171775  0.24795064  -0.00172323  1
  Mn  Mn115  1  0.49696291  0.24897743  0.33424113  1
  Mn  Mn116  1  0.49754804  0.24954188  0.66806815  1
  Mn  Mn117  1  0.50209619  0.75141443  -0.00001777  1
  Mn  Mn118  1  0.49840337  0.75175915  0.33185146  1
  Mn  Mn119  1  0.49845429  0.75105468  0.66827244  1
  Mn  Mn120  1  0.83170215  0.24744398  0.00143499  1
  Mn  Mn121  1  0.83736282  0.25032843  0.33398306  1
  Mn  Mn122  1  0.83493152  0.25046220  0.66781865  1
  Mn  Mn123  1  0.83419833  0.75092024  0.00087630  1
  Mn  Mn124  1  0.83500683  0.74869005  0.33489236  1
  Mn  Mn125  1  0.83496701  0.74824886  0.66935224  1
  Mn  Mn126  1  0.16668157  -0.00025582  -0.00271723  1
  Mn  Mn127  1  0.16918785  -0.00034812  0.32965251  1
  Mn  Mn128  1  0.16643899  0.00043220  0.66632426  1
  Mn  Mn129  1  0.16623534  0.50054115  -0.00081366  1
  Mn  Mn130  1  0.16802062  0.50179623  0.33269427  1
  Mn  Mn131  1  0.16519720  0.49961044  0.66741865  1
  Mn  Mn132  1  0.50197135  -0.00250241  -0.00044511  1
  Mn  Mn133  1  0.49848827  -0.00045117  0.33217883  1
  Mn  Mn134  1  0.49728697  -0.00063476  0.66669582  1
  Mn  Mn135  1  0.50200998  0.50296624  -0.00131513  1
  Mn  Mn136  1  0.49731624  0.50061776  0.33249467  1
  Mn  Mn137  1  0.49795280  0.49968929  0.66876426  1
  Mn  Mn138  1  0.83237449  -0.00045531  0.00098721  1
  Mn  Mn139  1  0.83593435  -0.00058372  0.33281281  1
  Mn  Mn140  1  0.83493383  0.00128500  0.66914762  1
  Mn  Mn141  1  0.83394038  0.50061018  0.00240756  1
  Mn  Mn142  1  0.83625817  0.50121549  0.33479905  1
  Mn  Mn143  1  0.83490720  0.49855120  0.66811080  1
  O  O144  1  0.16956209  0.12361349  0.02118626  1
  O  O145  1  0.15983054  0.12409184  0.34964617  1
  O  O146  1  0.16071899  0.12615749  0.69267089  1
  O  O147  1  0.15687920  0.62803245  0.02108070  1
  O  O148  1  0.16014664  0.62705462  0.35629016  1
  O  O149  1  0.15654902  0.62308876  0.69518470  1
  O  O150  1  0.49731818  0.11751502  0.02325060  1
  O  O151  1  0.49105019  0.12147107  0.35419635  1
  O  O152  1  0.49139219  0.12420096  0.69131785  1
  O  O153  1  0.49919010  0.62972724  0.01899442  1
  O  O154  1  0.49151035  0.62872726  0.34017461  1
  O  O155  1  0.49204891  0.62582913  0.68997971  1
  O  O156  1  0.82818247  0.12086649  0.03057991  1
  O  O157  1  0.84299593  0.12439467  0.33807350  1
  O  O158  1  0.83320663  0.12675319  0.69021419  1
  O  O159  1  0.83111913  0.62624952  0.01314508  1
  O  O160  1  0.84328448  0.62579261  0.34816263  1
  O  O161  1  0.83607342  0.62244836  0.68023446  1
  O  O162  1  0.17293962  0.37440848  0.30789892  1
  O  O163  1  0.17611959  0.37821789  0.63883669  1
  O  O164  1  0.16348711  0.37380586  0.97578308  1
  O  O165  1  0.17859196  0.87440102  0.30465509  1
  O  O166  1  0.17482890  0.87377732  0.65563199  1
  O  O167  1  0.16451140  0.87523424  0.96980465  1
  O  O168  1  0.49417866  0.37179498  0.32466472  1
  O  O169  1  0.49037595  0.37378799  0.65740359  1
  O  O170  1  0.50940637  0.37779119  0.97436075  1
  O  O171  1  0.49334833  0.87816502  0.30840095  1
  O  O172  1  0.48988610  0.87629707  0.65150101  1
  O  O173  1  0.50718419  0.87503560  0.96936303  1
  O  O174  1  0.83580114  0.37479959  0.31468074  1
  O  O175  1  0.84026113  0.37401617  0.64232302  1
  O  O176  1  0.83431364  0.37482595  0.97895958  1
  O  O177  1  0.84059829  0.87502660  0.31470212  1
  O  O178  1  0.83941279  0.87550045  0.66057130  1
  O  O179  1  0.83493820  0.87614711  0.97266124  1
  O  O180  1  0.01118353  0.37519033  0.17562732  1
  O  O181  1  0.01241663  0.37652496  0.52178204  1
  O  O182  1  0.00551910  0.37445864  0.86123566  1
  O  O183  1  0.01218158  0.87407918  0.19093029  1
  O  O184  1  0.00263784  0.87437199  0.52043846  1
  O  O185  1  0.00699667  0.87673055  0.85571192  1
  O  O186  1  0.32497027  0.37605373  0.18334746  1
  O  O187  1  0.32491091  0.37646241  0.52505225  1
  O  O188  1  0.34026208  0.37374104  0.84729295  1
  O  O189  1  0.32797221  0.87609583  0.19286521  1
  O  O190  1  0.33377925  0.87575738  0.52469318  1
  O  O191  1  0.33552739  0.87422689  0.84512486  1
  O  O192  1  0.66998626  0.37238846  0.17290302  1
  O  O193  1  0.67134778  0.37543418  0.50868280  1
  O  O194  1  0.66370016  0.36959425  0.86010852  1
  O  O195  1  0.66200092  0.87976414  0.19367681  1
  O  O196  1  0.66193936  0.87469353  0.50818687  1
  O  O197  1  0.67302530  0.87685897  0.85434788  1
  O  O198  1  -0.00735754  0.12291497  0.15307555  1
  O  O199  1  0.00570729  0.12446163  0.47548655  1
  O  O200  1  -0.01150842  0.12559043  0.80529642  1
  O  O201  1  0.00406501  0.62893084  0.13670818  1
  O  O202  1  0.00371856  0.62538919  0.47757281  1
  O  O203  1  0.00384429  0.62182457  0.80744213  1
  O  O204  1  0.33204799  0.12095014  0.14097557  1
  O  O205  1  0.33282612  0.12187800  0.48282712  1
  O  O206  1  0.32774353  0.12663828  0.80687840  1
  O  O207  1  0.32700265  0.62797378  0.14127218  1
  O  O208  1  0.32446996  0.62633972  0.48086591  1
  O  O209  1  0.32720468  0.62560576  0.80908890  1
  O  O210  1  0.67547529  0.12124771  0.14493571  1
  O  O211  1  0.66198946  0.12021918  0.49362041  1
  O  O212  1  0.66300564  0.12535656  0.80534386  1
  O  O213  1  0.66519451  0.62940219  0.14607311  1
  O  O214  1  0.67082701  0.62751310  0.49623852  1
  O  O215  1  0.65975369  0.62800041  0.80557613  1
  O  O216  1  0.09301748  0.01828951  0.23584678  1
  O  O217  1  0.09071161  0.01827508  0.57950284  1
  O  O218  1  0.09212248  0.01839037  0.89829602  1
  O  O219  1  0.09113081  0.52056625  0.24014109  1
  O  O220  1  0.09094429  0.52318412  0.57879667  1
  O  O221  1  0.09352076  0.51908254  0.90512897  1
  O  O222  1  0.41415179  0.02316683  0.24997674  1
  O  O223  1  0.42187908  0.02183478  0.57914742  1
  O  O224  1  0.42058795  0.01923471  0.91190993  1
  O  O225  1  0.41246435  0.51672498  0.24744871  1
  O  O226  1  0.41314324  0.51474681  0.58621596  1
  O  O227  1  0.42406961  0.52096883  0.91103357  1
  O  O228  1  0.76310815  0.00985639  0.23851306  1
  O  O229  1  0.75096438  0.01266497  0.59056894  1
  O  O230  1  0.75175605  0.02352353  0.91793342  1
  O  O231  1  0.75467146  0.50347508  0.24553883  1
  O  O232  1  0.75448474  0.51187922  0.58552798  1
  O  O233  1  0.74711306  0.51024141  0.92384823  1
  O  O234  1  0.25597688  0.22450128  0.25759866  1
  O  O235  1  0.26111381  0.23313391  0.59794310  1
  O  O236  1  0.25765258  0.22729188  0.92244129  1
  O  O237  1  0.25154568  0.72358881  0.25237456  1
  O  O238  1  0.25129198  0.72776632  0.59189024  1
  O  O239  1  0.25630656  0.72531948  0.92492696  1
  O  O240  1  0.58011673  0.23182507  0.24075631  1
  O  O241  1  0.58471317  0.22913514  0.59360492  1
  O  O242  1  0.58620316  0.22133876  0.91822232  1
  O  O243  1  0.57767495  0.74653612  0.24375248  1
  O  O244  1  0.58788989  0.73569752  0.59667652  1
  O  O245  1  0.58912542  0.72728896  0.92175166  1
  O  O246  1  0.92604799  0.23348321  0.25403411  1
  O  O247  1  0.93226169  0.23651297  0.59215508  1
  O  O248  1  0.90960060  0.23591512  0.91629762  1
  O  O249  1  0.92940331  0.73997492  0.25704803  1
  O  O250  1  0.92749273  0.73709072  0.59500072  1
  O  O251  1  0.93284757  0.73754299  0.92666004  1
  O  O252  1  0.07341404  0.48441655  0.06945928  1
  O  O253  1  0.08513135  0.48845740  0.41636234  1
  O  O254  1  0.07596162  0.47276038  0.74011932  1
  O  O255  1  0.07759315  0.97678237  0.07333112  1
  O  O256  1  0.07833584  0.98291370  0.39760620  1
  O  O257  1  0.07351470  0.98036873  0.73840280  1
  O  O258  1  0.41178463  0.49710123  0.07713534  1
  O  O259  1  0.40571420  0.49508073  0.41233532  1
  O  O260  1  0.40527678  0.48568957  0.74434275  1
  O  O261  1  0.42178410  0.98255344  0.08942821  1
  O  O262  1  0.41291967  0.98150401  0.41200298  1
  O  O263  1  0.40379918  0.98313463  0.74160911  1
  O  O264  1  0.74927486  0.48246662  0.08132811  1
  O  O265  1  0.75456861  0.49074638  0.41982730  1
  O  O266  1  0.74762178  0.48474962  0.75591684  1
  O  O267  1  0.74650201  0.97208934  0.07805944  1
  O  O268  1  0.74664292  0.98504140  0.40565975  1
  O  O269  1  0.75243540  0.99220549  0.75682308  1
  O  O270  1  0.23909674  0.26102878  0.09750512  1
  O  O271  1  0.24322509  0.26426108  0.42645960  1
  O  O272  1  0.23856064  0.27153453  0.75979979  1
  O  O273  1  0.23945209  0.76569902  0.09323341  1
  O  O274  1  0.25316476  0.76270403  0.41271800  1
  O  O275  1  0.23972594  0.76468260  0.75990012  1
  O  O276  1  0.58818707  0.25701877  0.07615728  1
  O  O277  1  0.57718673  0.24915765  0.42066524  1
  O  O278  1  0.56805018  0.26310390  0.76248372  1
  O  O279  1  0.58538707  0.77585535  0.08108564  1
  O  O280  1  0.58155600  0.76644783  0.41103100  1
  O  O281  1  0.56880629  0.76717002  0.76406550  1
  O  O282  1  0.91105107  0.26987733  0.08998251  1
  O  O283  1  0.91399156  0.26795341  0.42826379  1
  O  O284  1  0.91308807  0.27535206  0.75450608  1
  O  O285  1  0.91396044  0.77657191  0.08970051  1
  O  O286  1  0.91942795  0.76221771  0.41678458  1
  O  O287  1  0.91336438  0.77072833  0.75973010  1
  O  O288  1  0.23472240  0.48888826  0.09569346  1
  O  O289  1  0.24144180  0.48624233  0.42770594  1
  O  O290  1  0.23781360  0.48045473  0.75902450  1
  O  O291  1  0.24166346  0.98454454  0.09463101  1
  O  O292  1  0.25408069  0.98802481  0.41271861  1
  O  O293  1  0.23716355  0.98525723  0.76109756  1
  O  O294  1  0.58891325  0.49079969  0.07472653  1
  O  O295  1  0.58152523  0.49728181  0.41844466  1
  O  O296  1  0.56734710  0.48550361  0.76326003  1
  O  O297  1  0.58517384  0.97618665  0.07952968  1
  O  O298  1  0.58019036  0.98354637  0.41084764  1
  O  O299  1  0.56754737  0.98529082  0.76076014  1
  O  O300  1  0.91021907  0.47689013  0.09089464  1
  O  O301  1  0.91252550  0.48456298  0.43020250  1
  O  O302  1  0.91190990  0.47361014  0.75846656  1
  O  O303  1  0.91343670  0.97506543  0.08705621  1
  O  O304  1  0.91944636  0.98643644  0.41359535  1
  O  O305  1  0.91319346  0.97831807  0.75689766  1
  O  O306  1  0.07728404  0.26777564  0.07432121  1
  O  O307  1  0.08493310  0.26457522  0.41344810  1
  O  O308  1  0.07721409  0.27440875  0.73701518  1
  O  O309  1  0.07678438  0.77420315  0.07097861  1
  O  O310  1  0.07801607  0.76653680  0.40104163  1
  O  O311  1  0.07396601  0.77187442  0.74014263  1
  O  O312  1  0.41345069  0.25223688  0.08001478  1
  O  O313  1  0.40543889  0.25560800  0.41312317  1
  O  O314  1  0.40387014  0.26537006  0.74144079  1
  O  O315  1  0.42004375  0.76683841  0.08853431  1
  O  O316  1  0.41417710  0.76760275  0.41470720  1
  O  O317  1  0.40702130  0.76635565  0.74664258  1
  O  O318  1  0.74718123  0.27074062  0.07691023  1
  O  O319  1  0.75422567  0.25870338  0.41668371  1
  O  O320  1  0.75046631  0.26268224  0.75915391  1
  O  O321  1  0.74665217  0.77452440  0.08464694  1
  O  O322  1  0.74768228  0.76329372  0.41100947  1
  O  O323  1  0.74968847  0.76196414  0.75475831  1
  O  O324  1  0.25436917  0.02626615  0.25301264  1
  O  O325  1  0.25914232  0.01459846  0.59677973  1
  O  O326  1  0.25733193  0.02354191  0.92253253  1
  O  O327  1  0.25407061  0.52668795  0.25717008  1
  O  O328  1  0.25292953  0.52574775  0.59359245  1
  O  O329  1  0.25744735  0.52424288  0.92645661  1
  O  O330  1  0.57491117  0.01616848  0.23944452  1
  O  O331  1  0.58293854  0.01943568  0.59222473  1
  O  O332  1  0.58810114  0.02193301  0.92034745  1
  O  O333  1  0.58172747  0.50890313  0.24461675  1
  O  O334  1  0.58869706  0.51487397  0.59698747  1
  O  O335  1  0.58807928  0.52726940  0.91951487  1
  O  O336  1  0.92709815  0.01047741  0.25303126  1
  O  O337  1  0.92647216  0.01291581  0.59583709  1
  O  O338  1  0.91341609  0.01389729  0.91465380  1
  O  O339  1  0.92946964  0.51739564  0.25727135  1
  O  O340  1  0.93125366  0.51260179  0.59391700  1
  O  O341  1  0.92891035  0.51201257  0.93038006  1
  O  O342  1  0.09143508  0.23093752  0.23976640  1
  O  O343  1  0.09389404  0.23499818  0.57641134  1
  O  O344  1  0.09237840  0.23238556  0.89847779  1
  O  O345  1  0.09046510  0.72906979  0.23865654  1
  O  O346  1  0.08938382  0.72680811  0.57728502  1
  O  O347  1  0.09263102  0.72984523  0.90339287  1
  O  O348  1  0.41626403  0.22694614  0.24669280  1
  O  O349  1  0.42181752  0.22792920  0.57870502  1
  O  O350  1  0.42143954  0.22868965  0.90973974  1
  O  O351  1  0.40882184  0.73858394  0.25398884  1
  O  O352  1  0.41233807  0.73665117  0.58896319  1
  O  O353  1  0.42009393  0.73124626  0.91277333  1
  O  O354  1  0.76062687  0.23987913  0.23766501  1
  O  O355  1  0.75090605  0.23650725  0.58894473  1
  O  O356  1  0.74938325  0.22454464  0.91670912  1
  O  O357  1  0.75210464  0.75101930  0.24910396  1
  O  O358  1  0.75476214  0.73635281  0.58854317  1
  O  O359  1  0.74581410  0.73817139  0.92196922  1
