# generated using pymatgen
data_Ba17Sr5La8Pr42Mn72O216
_symmetry_space_group_name_H-M   'P 1'
_cell_length_a   16.67149064
_cell_length_b   15.70182527
_cell_length_c   16.81512765
_cell_angle_alpha   90.00500937
_cell_angle_beta   89.99657326
_cell_angle_gamma   90.03754153
_symmetry_Int_Tables_number   1
_chemical_formula_structural   Ba17Sr5La8Pr42Mn72O216
_chemical_formula_sum   'Ba17 Sr5 La8 Pr42 Mn72 O216'
_cell_volume   4401.74263175
_cell_formula_units_Z   1
loop_
 _symmetry_equiv_pos_site_id
 _symmetry_equiv_pos_as_xyz
  1  'x, y, z'
loop_
 _atom_site_type_symbol
 _atom_site_label
 _atom_site_symmetry_multiplicity
 _atom_site_fract_x
 _atom_site_fract_y
 _atom_site_fract_z
 _atom_site_occupancy
  Ba  Ba0  1  0.16694308  0.87464827  0.16290260  1
  Ba  Ba1  1  -0.00023690  0.12521885  1.00061101  1
  Ba  Ba2  1  0.16844757  0.87703811  0.83111866  1
  Ba  Ba3  1  0.50365742  0.87511566  0.83436624  1
  Ba  Ba4  1  0.49769593  0.12605275  0.16736912  1
  Ba  Ba5  1  0.16815579  0.37597287  0.49519926  1
  Ba  Ba6  1  0.83490833  0.37798135  0.16976867  1
  Ba  Ba7  1  0.00036528  0.37573648  0.66525140  1
  Ba  Ba8  1  0.50249849  0.87694996  0.16400544  1
  Ba  Ba9  1  0.00059775  0.37427950  0.33475012  1
  Ba  Ba10  1  -0.00147498  0.12511321  0.33219027  1
  Ba  Ba11  1  0.00296929  0.87472269  0.66861878  1
  Ba  Ba12  1  0.50128464  0.37304505  0.16918002  1
  Ba  Ba13  1  0.33527834  0.87208553  -0.00121748  1
  Ba  Ba14  1  0.49672499  0.62536656  0.50103276  1
  Ba  Ba15  1  0.33173613  0.62270781  0.99941474  1
  Ba  Ba16  1  -0.00366956  0.62455824  0.66764054  1
  Sr  Sr17  1  0.00602907  0.87465588  -0.00022516  1
  Sr  Sr18  1  0.82788093  0.62402122  0.16931252  1
  Sr  Sr19  1  0.66648643  0.37368924  0.33545371  1
  Sr  Sr20  1  0.33013441  0.12530371  0.32992315  1
  Sr  Sr21  1  0.33087048  0.12294576  0.66274239  1
  La  La22  1  0.66008333  0.62224975  0.33181348  1
  La  La23  1  0.15747429  0.62599259  0.83385150  1
  La  La24  1  0.16569622  0.12006924  0.16700743  1
  La  La25  1  0.66902811  0.87608624  0.33354371  1
  La  La26  1  0.83868909  0.87567162  0.83519530  1
  La  La27  1  0.49611181  0.62419649  0.83445725  1
  La  La28  1  0.32759544  0.62729413  0.66417556  1
  La  La29  1  0.82908853  0.62261107  0.50362215  1
  Pr  Pr30  1  0.66113496  0.62596343  0.66470450  1
  Pr  Pr31  1  0.67079217  0.87186335  0.67232169  1
  Pr  Pr32  1  0.50307776  0.37408658  0.49429588  1
  Pr  Pr33  1  0.67143706  0.87595521  0.00745928  1
  Pr  Pr34  1  -0.00564313  0.62808237  0.99872035  1
  Pr  Pr35  1  0.83179695  0.12507502  0.83751126  1
  Pr  Pr36  1  0.17168748  0.37386707  0.82683338  1
  Pr  Pr37  1  0.66491150  0.12795925  1.00105689  1
  Pr  Pr38  1  0.49399312  0.12835156  0.50097614  1
  Pr  Pr39  1  0.00772390  0.37710247  0.00458709  1
  Pr  Pr40  1  0.15707294  0.63057298  0.16448788  1
  Pr  Pr41  1  0.33782704  0.37458853  0.66508118  1
  Pr  Pr42  1  0.49327550  0.62623705  0.17112159  1
  Pr  Pr43  1  0.16230698  0.12551996  0.83252457  1
  Pr  Pr44  1  0.67068385  0.37373445  0.00782049  1
  Pr  Pr45  1  0.00141779  0.12316698  0.66493154  1
  Pr  Pr46  1  0.66268310  0.12336813  0.66555283  1
  Pr  Pr47  1  0.50618762  0.87809421  0.49972960  1
  Pr  Pr48  1  0.34396841  0.87712143  0.33085994  1
  Pr  Pr49  1  0.83629077  0.37672280  0.49284261  1
  Pr  Pr50  1  0.66619207  0.37712679  0.66670810  1
  Pr  Pr51  1  0.66423921  0.12640090  0.33159277  1
  Pr  Pr52  1  0.33915278  0.87523618  0.67271650  1
  Pr  Pr53  1  0.83169799  0.62616428  0.83566464  1
  Pr  Pr54  1  0.15893535  0.62399525  0.50066874  1
  Pr  Pr55  1  0.84243939  0.87460175  0.49923710  1
  Pr  Pr56  1  -0.00855893  0.62347502  0.33172904  1
  Pr  Pr57  1  0.32664151  0.62251170  0.32678696  1
  Pr  Pr58  1  0.83185403  0.12787226  0.50367652  1
  Pr  Pr59  1  0.17628368  0.87555547  0.49769008  1
  Pr  Pr60  1  0.33710792  0.37343851  0.00188041  1
  Pr  Pr61  1  0.33318186  0.12010698  0.99937541  1
  Pr  Pr62  1  0.66212702  0.62061056  1.00274169  1
  Pr  Pr63  1  0.49593931  0.12599599  0.83790990  1
  Pr  Pr64  1  0.01051843  0.87606657  0.33613222  1
  Pr  Pr65  1  0.83216746  0.12671435  0.17165716  1
  Pr  Pr66  1  0.84067778  0.87530414  0.16388525  1
  Pr  Pr67  1  0.15904873  0.12745203  0.49916091  1
  Pr  Pr68  1  0.16809043  0.37128300  0.16685183  1
  Pr  Pr69  1  0.83652789  0.37455710  0.83427384  1
  Pr  Pr70  1  0.50365988  0.37461063  0.83482144  1
  Pr  Pr71  1  0.33935871  0.37187390  0.33547487  1
  Mn  Mn72  1  -0.00094193  -0.00006467  0.16618516  1
  Mn  Mn73  1  -0.00000889  -0.00019114  0.50013028  1
  Mn  Mn74  1  -0.00051932  0.00185864  0.83208068  1
  Mn  Mn75  1  0.00001157  0.50067087  0.16598456  1
  Mn  Mn76  1  -0.00155485  0.50198675  0.49877186  1
  Mn  Mn77  1  -0.00213836  0.49875880  0.83689371  1
  Mn  Mn78  1  0.33344923  0.00058905  0.16534703  1
  Mn  Mn79  1  0.33414502  0.00038271  0.49950749  1
  Mn  Mn80  1  0.33489157  0.00321693  0.82910067  1
  Mn  Mn81  1  0.33087806  0.49818174  0.16603083  1
  Mn  Mn82  1  0.33300036  0.50187347  0.49788423  1
  Mn  Mn83  1  0.33312514  0.49725854  0.83138890  1
  Mn  Mn84  1  0.66993991  0.00111282  0.16816881  1
  Mn  Mn85  1  0.66801742  0.00065402  0.50141743  1
  Mn  Mn86  1  0.66844407  0.00055795  0.83428499  1
  Mn  Mn87  1  0.66557264  0.50013052  0.16767680  1
  Mn  Mn88  1  0.66572606  0.49998166  0.50168327  1
  Mn  Mn89  1  0.66745521  0.49900198  0.83430148  1
  Mn  Mn90  1  -0.00005442  0.25121811  0.16558323  1
  Mn  Mn91  1  -0.00243454  0.24779232  0.50123557  1
  Mn  Mn92  1  -0.00091086  0.25151204  0.83297374  1
  Mn  Mn93  1  -0.00368250  0.74827626  0.16726417  1
  Mn  Mn94  1  0.00005381  0.75213070  0.49845203  1
  Mn  Mn95  1  -0.00113825  0.74989191  0.83394828  1
  Mn  Mn96  1  0.33122270  0.25090628  0.16612185  1
  Mn  Mn97  1  0.33308472  0.24745043  0.49933462  1
  Mn  Mn98  1  0.33473845  0.25028265  0.83193958  1
  Mn  Mn99  1  0.33270017  0.74806110  0.16659166  1
  Mn  Mn100  1  0.33310846  0.75202425  0.49886751  1
  Mn  Mn101  1  0.33402181  0.74875090  0.83059416  1
  Mn  Mn102  1  0.66823194  0.25018541  0.16817514  1
  Mn  Mn103  1  0.66651079  0.24787345  0.50146620  1
  Mn  Mn104  1  0.66790312  0.25168514  0.83295453  1
  Mn  Mn105  1  0.66734972  0.74822657  0.16823644  1
  Mn  Mn106  1  0.66791614  0.75267767  0.50202879  1
  Mn  Mn107  1  0.66846935  0.74776665  0.83623452  1
  Mn  Mn108  1  0.16923767  0.25095007  -0.00297215  1
  Mn  Mn109  1  0.16849315  0.24849181  0.33110922  1
  Mn  Mn110  1  0.16852619  0.25008857  0.66538687  1
  Mn  Mn111  1  0.16509457  0.74858057  -0.00047730  1
  Mn  Mn112  1  0.16843525  0.75046871  0.33404406  1
  Mn  Mn113  1  0.16792095  0.74941923  0.66370000  1
  Mn  Mn114  1  0.50117988  0.24993999  -0.00150004  1
  Mn  Mn115  1  0.50033917  0.24876399  0.33553756  1
  Mn  Mn116  1  0.50020080  0.25021978  0.66730531  1
  Mn  Mn117  1  0.50338848  0.74715404  0.00066483  1
  Mn  Mn118  1  0.49969512  0.75133195  0.33515356  1
  Mn  Mn119  1  0.50050259  0.74963483  0.66704543  1
  Mn  Mn120  1  0.83392287  0.25054820  0.00035233  1
  Mn  Mn121  1  0.83047583  0.24895278  0.33646588  1
  Mn  Mn122  1  0.82992865  0.25039715  0.66842943  1
  Mn  Mn123  1  0.83253236  0.74884824  0.00217124  1
  Mn  Mn124  1  0.83157954  0.75159287  0.33381170  1
  Mn  Mn125  1  0.83089403  0.74965779  0.66818648  1
  Mn  Mn126  1  0.16742523  0.00198116  -0.00152414  1
  Mn  Mn127  1  0.17011448  -0.00166562  0.33306725  1
  Mn  Mn128  1  0.16894884  0.00317969  0.66365718  1
  Mn  Mn129  1  0.16589514  0.49818772  -0.00190497  1
  Mn  Mn130  1  0.16685321  0.50314357  0.33018144  1
  Mn  Mn131  1  0.16862732  0.49881806  0.66532219  1
  Mn  Mn132  1  0.50254938  0.00117619  -0.00114584  1
  Mn  Mn133  1  0.50106956  -0.00026701  0.33484853  1
  Mn  Mn134  1  0.50145686  0.00290304  0.66541951  1
  Mn  Mn135  1  0.50153052  0.49863113  0.00025896  1
  Mn  Mn136  1  0.49847549  0.49980458  0.33534476  1
  Mn  Mn137  1  0.49910511  0.49678167  0.66784543  1
  Mn  Mn138  1  0.83383982  0.00060597  0.00144619  1
  Mn  Mn139  1  0.83213317  -0.00225036  0.33378121  1
  Mn  Mn140  1  0.83087359  0.00179524  0.66848665  1
  Mn  Mn141  1  0.83305053  0.50143683  -0.00018937  1
  Mn  Mn142  1  0.82989486  0.50154654  0.33573023  1
  Mn  Mn143  1  0.82942165  0.49769087  0.66801681  1
  O  O144  1  0.17515953  0.13175386  0.02158710  1
  O  O145  1  0.17297986  0.11961290  0.35483921  1
  O  O146  1  0.16548171  0.12880843  0.68727218  1
  O  O147  1  0.15905648  0.61941068  0.01880307  1
  O  O148  1  0.17704206  0.63016519  0.35905128  1
  O  O149  1  0.17497028  0.62123641  0.68683375  1
  O  O150  1  0.49868144  0.12760902  0.00801796  1
  O  O151  1  0.50395259  0.12230561  0.35709683  1
  O  O152  1  0.50667741  0.12967090  0.69479500  1
  O  O153  1  0.50814484  0.62044827  0.02509120  1
  O  O154  1  0.49661087  0.62649869  0.34487886  1
  O  O155  1  0.50460099  0.61786821  0.69073398  1
  O  O156  1  0.82917331  0.12461023  0.02659418  1
  O  O157  1  0.82518725  0.11984523  0.35923838  1
  O  O158  1  0.82257848  0.12655884  0.69519485  1
  O  O159  1  0.84102420  0.62641337  0.02117602  1
  O  O160  1  0.83197944  0.63066198  0.36004205  1
  O  O161  1  0.82171928  0.62043541  0.69089400  1
  O  O162  1  0.17156440  0.37830155  0.31139799  1
  O  O163  1  0.17535191  0.37399544  0.65231473  1
  O  O164  1  0.16485541  0.37431896  0.96996608  1
  O  O165  1  0.16098922  0.87229254  0.31875803  1
  O  O166  1  0.17544426  0.87758900  0.64371019  1
  O  O167  1  0.16549403  0.87445880  0.98950964  1
  O  O168  1  0.49855898  0.37446453  0.32758503  1
  O  O169  1  0.50215995  0.37197023  0.63857559  1
  O  O170  1  0.50608380  0.37397663  0.97852109  1
  O  O171  1  0.50344980  0.87592290  0.32131053  1
  O  O172  1  0.50192191  0.87954740  0.64419746  1
  O  O173  1  0.51229706  0.87575735  0.99069304  1
  O  O174  1  0.82980505  0.37595190  0.33014903  1
  O  O175  1  0.82299637  0.37260467  0.63769439  1
  O  O176  1  0.82410373  0.37659761  0.97681863  1
  O  O177  1  0.82434905  0.87397697  0.30714315  1
  O  O178  1  0.82424816  0.87965132  0.64312237  1
  O  O179  1  0.82220404  0.87313487  0.97769741  1
  O  O180  1  0.00754519  0.37826857  0.17864844  1
  O  O181  1  -0.01130156  0.37175667  0.50773144  1
  O  O182  1  -0.00666748  0.37503132  0.85892278  1
  O  O183  1  -0.00704717  0.87109188  0.19198676  1
  O  O184  1  -0.00494105  0.87648996  0.51348714  1
  O  O185  1  -0.00670413  0.87344106  0.84750710  1
  O  O186  1  0.32288423  0.37559247  0.19077916  1
  O  O187  1  0.33790822  0.37132867  0.52140435  1
  O  O188  1  0.32235994  0.37382697  0.85863873  1
  O  O189  1  0.33254101  0.87085283  0.18375056  1
  O  O190  1  0.32609177  0.87720766  0.52891128  1
  O  O191  1  0.33304713  0.87760814  0.83780320  1
  O  O192  1  0.66802464  0.37543930  0.18260804  1
  O  O193  1  0.66219190  0.37019314  0.52347896  1
  O  O194  1  0.66366997  0.37575578  0.86525119  1
  O  O195  1  0.67225192  0.87469830  0.18782587  1
  O  O196  1  0.65935746  0.87860407  0.52981726  1
  O  O197  1  0.67164597  0.86981446  0.86407835  1
  O  O198  1  -0.00621696  0.12713029  0.15697950  1
  O  O199  1  -0.00128077  0.12180599  0.48929685  1
  O  O200  1  -0.00263831  0.12992343  0.81112482  1
  O  O201  1  0.00029679  0.62302768  0.14346742  1
  O  O202  1  -0.00090355  0.63197584  0.47813377  1
  O  O203  1  -0.00136705  0.62234571  0.82530443  1
  O  O204  1  0.32676894  0.13106361  0.14500443  1
  O  O205  1  0.34309928  0.12258588  0.47785016  1
  O  O206  1  0.34607161  0.12954714  0.81143918  1
  O  O207  1  0.34451202  0.62090850  0.15873670  1
  O  O208  1  0.33172621  0.63194903  0.47118180  1
  O  O209  1  0.34129177  0.61847597  0.80953881  1
  O  O210  1  0.67695459  0.12474974  0.14678433  1
  O  O211  1  0.67585368  0.12213918  0.47428124  1
  O  O212  1  0.67582324  0.13121640  0.80654523  1
  O  O213  1  0.66523165  0.62456055  0.14787569  1
  O  O214  1  0.67353013  0.63118870  0.47796481  1
  O  O215  1  0.67370009  0.62113051  0.80539950  1
  O  O216  1  0.08124051  0.00844014  0.25193557  1
  O  O217  1  0.08170819  0.02126066  0.58711310  1
  O  O218  1  0.08743507  0.01698362  0.91205370  1
  O  O219  1  0.07971373  0.52842039  0.25337736  1
  O  O220  1  0.08263461  0.51374192  0.58093492  1
  O  O221  1  0.07002467  0.51375060  0.93117098  1
  O  O222  1  0.41118603  0.00673012  0.25780412  1
  O  O223  1  0.41807174  0.01718632  0.58294650  1
  O  O224  1  0.41544513  0.01819460  0.91513306  1
  O  O225  1  0.40848720  0.50958730  0.25990069  1
  O  O226  1  0.40808206  0.51188342  0.59594617  1
  O  O227  1  0.41987802  0.50540666  0.91285168  1
  O  O228  1  0.74586005  0.02164410  0.25704599  1
  O  O229  1  0.74427267  0.02296087  0.58889493  1
  O  O230  1  0.74652848  0.02361170  0.92425551  1
  O  O231  1  0.74218101  0.51779266  0.26026305  1
  O  O232  1  0.74252647  0.51918099  0.59048362  1
  O  O233  1  0.74715689  0.52401328  0.91718719  1
  O  O234  1  0.24327815  0.23250548  0.24154716  1
  O  O235  1  0.24582926  0.22839482  0.57422123  1
  O  O236  1  0.25406953  0.22558275  0.91477278  1
  O  O237  1  0.24390148  0.72697358  0.24623153  1
  O  O238  1  0.24231340  0.73011733  0.57023975  1
  O  O239  1  0.24360717  0.73210392  0.90504722  1
  O  O240  1  0.58691545  0.23584982  0.25809874  1
  O  O241  1  0.58401805  0.22456901  0.58343371  1
  O  O242  1  0.58443949  0.22808051  0.91049841  1
  O  O243  1  0.57779154  0.73060440  0.24280635  1
  O  O244  1  0.58259367  0.73628138  0.58423468  1
  O  O245  1  0.58347442  0.72064730  0.91188494  1
  O  O246  1  0.90788394  0.23823160  0.24859946  1
  O  O247  1  0.91284026  0.22528578  0.59039110  1
  O  O248  1  0.90791469  0.23633767  0.91068084  1
  O  O249  1  0.91048497  0.72929439  0.24789292  1
  O  O250  1  0.90494626  0.73942601  0.57237715  1
  O  O251  1  0.91045797  0.73343690  0.91568740  1
  O  O252  1  0.09458324  0.47834117  0.08754421  1
  O  O253  1  0.08688124  0.50133543  0.41478026  1
  O  O254  1  0.09107935  0.48739659  0.76550705  1
  O  O255  1  0.08467138  0.99754720  0.08490045  1
  O  O256  1  0.09291249  0.98212743  0.42172200  1
  O  O257  1  0.08644129  1.00035970  0.74890243  1
  O  O258  1  0.41573154  0.48204667  0.08168763  1
  O  O259  1  0.42085360  0.47946432  0.42394537  1
  O  O260  1  0.42218841  0.47027472  0.75364734  1
  O  O261  1  0.41859364  0.99728380  0.08103846  1
  O  O262  1  0.42219199  0.97670610  0.42341259  1
  O  O263  1  0.42000435  0.98786816  0.74605999  1
  O  O264  1  0.74945490  0.49116925  0.07861411  1
  O  O265  1  0.75416750  0.48721424  0.42747362  1
  O  O266  1  0.74931080  0.47091533  0.75362386  1
  O  O267  1  0.75808431  0.97917545  0.09044626  1
  O  O268  1  0.75436264  0.97356557  0.42401671  1
  O  O269  1  0.75346577  0.97615256  0.75693856  1
  O  O270  1  0.25018812  0.27751090  0.07801625  1
  O  O271  1  0.25926217  0.26311664  0.40604039  1
  O  O272  1  0.25438718  0.26774563  0.74869578  1
  O  O273  1  0.24937093  0.74778560  0.08351992  1
  O  O274  1  0.25933585  0.77773609  0.41042049  1
  O  O275  1  0.26052087  0.75930017  0.73356453  1
  O  O276  1  0.58959356  0.25882492  0.07532433  1
  O  O277  1  0.58104105  0.26002309  0.42496852  1
  O  O278  1  0.58543795  0.27551703  0.74975713  1
  O  O279  1  0.59766519  0.75954719  0.07298694  1
  O  O280  1  0.59198923  0.76997880  0.41501030  1
  O  O281  1  0.59471056  0.76140873  0.74536666  1
  O  O282  1  0.92194968  0.26904109  0.07485165  1
  O  O283  1  0.90669555  0.25445148  0.42593258  1
  O  O284  1  0.90843690  0.26719240  0.75239131  1
  O  O285  1  0.91651268  0.77020798  0.08094076  1
  O  O286  1  0.92307558  0.77275114  0.40695056  1
  O  O287  1  0.91229223  0.75914142  0.75300800  1
  O  O288  1  0.25352259  0.47618113  0.07256180  1
  O  O289  1  0.26149273  0.48788959  0.39878204  1
  O  O290  1  0.26020410  0.47971005  0.74084268  1
  O  O291  1  0.25397993  0.99848517  0.07615407  1
  O  O292  1  0.25842048  0.97473285  0.41006059  1
  O  O293  1  0.25908686  0.99218882  0.73692502  1
  O  O294  1  0.59058320  0.48471009  0.07468189  1
  O  O295  1  0.58545574  0.48764306  0.41658166  1
  O  O296  1  0.58509588  0.47499962  0.75098361  1
  O  O297  1  0.59829084  0.99456219  0.07455374  1
  O  O298  1  0.58920522  0.98094018  0.41754094  1
  O  O299  1  0.59478156  0.98767285  0.73796369  1
  O  O300  1  0.92724242  0.48545452  0.07106758  1
  O  O301  1  0.91425820  0.49669680  0.41792512  1
  O  O302  1  0.91071380  0.48405120  0.75300484  1
  O  O303  1  0.91819508  0.97849032  0.07943375  1
  O  O304  1  0.91921911  0.97651529  0.40862314  1
  O  O305  1  0.91375276  0.99182352  0.74853158  1
  O  O306  1  0.08860495  0.27034314  0.07878480  1
  O  O307  1  0.08882242  0.25190700  0.41718337  1
  O  O308  1  0.08883485  0.26398061  0.75447752  1
  O  O309  1  0.08021598  0.75357775  0.08475631  1
  O  O310  1  0.09002300  0.76935905  0.42160748  1
  O  O311  1  0.08917673  0.75222383  0.75229472  1
  O  O312  1  0.41084280  0.26415342  0.07678893  1
  O  O313  1  0.42129345  0.26701207  0.42341160  1
  O  O314  1  0.41898287  0.27879388  0.75187172  1
  O  O315  1  0.42505454  0.75119211  0.08998419  1
  O  O316  1  0.42140189  0.77848282  0.42712016  1
  O  O317  1  0.42055229  0.75858093  0.74864354  1
  O  O318  1  0.74996730  0.26366622  0.07968384  1
  O  O319  1  0.74855484  0.26696629  0.42247333  1
  O  O320  1  0.74802658  0.27971368  0.75170244  1
  O  O321  1  0.75571421  0.76850304  0.09130018  1
  O  O322  1  0.75718960  0.77656204  0.42801782  1
  O  O323  1  0.75331653  0.77214344  0.75809591  1
  O  O324  1  0.24514434  0.01528043  0.24509960  1
  O  O325  1  0.24150762  0.02085300  0.56905382  1
  O  O326  1  0.25045408  0.02567534  0.90868668  1
  O  O327  1  0.23889184  0.52385793  0.23810047  1
  O  O328  1  0.24776667  0.52359921  0.57152191  1
  O  O329  1  0.23547794  0.51445976  0.90257772  1
  O  O330  1  0.58797863  0.01369488  0.25482839  1
  O  O331  1  0.57908346  0.02788213  0.57680192  1
  O  O332  1  0.58303538  0.02458594  0.90938888  1
  O  O333  1  0.57553602  0.51944627  0.24771184  1
  O  O334  1  0.58435817  0.51206109  0.58816967  1
  O  O335  1  0.58240771  0.52266727  0.91183270  1
  O  O336  1  0.90398996  0.01088243  0.24111876  1
  O  O337  1  0.90834376  0.02160263  0.58336102  1
  O  O338  1  0.90700142  0.01283281  0.91009554  1
  O  O339  1  0.91239231  0.51852994  0.25265666  1
  O  O340  1  0.90484773  0.51270489  0.57864344  1
  O  O341  1  0.90745544  0.51766340  0.91137292  1
  O  O342  1  0.08854240  0.23841538  0.24318953  1
  O  O343  1  0.08001185  0.23026091  0.58608884  1
  O  O344  1  0.09135869  0.23547356  0.91149569  1
  O  O345  1  0.07640303  0.72797455  0.25695096  1
  O  O346  1  0.08401078  0.73666964  0.58058140  1
  O  O347  1  0.07774617  0.73160661  0.92013726  1
  O  O348  1  0.41066564  0.24325128  0.25617434  1
  O  O349  1  0.41758680  0.23108538  0.58581702  1
  O  O350  1  0.41983783  0.24021646  0.91208070  1
  O  O351  1  0.40684698  0.73829500  0.25984914  1
  O  O352  1  0.40415194  0.73799855  0.59061345  1
  O  O353  1  0.42218616  0.73462288  0.91606659  1
  O  O354  1  0.74902507  0.22810585  0.25482823  1
  O  O355  1  0.74727964  0.22569001  0.58560369  1
  O  O356  1  0.74827596  0.22902576  0.91770469  1
  O  O357  1  0.73833179  0.73200360  0.26306860  1
  O  O358  1  0.74144579  0.73239873  0.59197643  1
  O  O359  1  0.74654777  0.72185251  0.92251586  1
