# generated using pymatgen
data_Ba17Sr5La8Pr42Mn72O216
_symmetry_space_group_name_H-M   'P 1'
_cell_length_a   16.67940756
_cell_length_b   15.70138777
_cell_length_c   16.82521812
_cell_angle_alpha   89.99967391
_cell_angle_beta   89.99321172
_cell_angle_gamma   89.99686536
_symmetry_Int_Tables_number   1
_chemical_formula_structural   Ba17Sr5La8Pr42Mn72O216
_chemical_formula_sum   'Ba17 Sr5 La8 Pr42 Mn72 O216'
_cell_volume   4406.35374185
_cell_formula_units_Z   1
loop_
 _symmetry_equiv_pos_site_id
 _symmetry_equiv_pos_as_xyz
  1  'x, y, z'
loop_
 _atom_site_type_symbol
 _atom_site_label
 _atom_site_symmetry_multiplicity
 _atom_site_fract_x
 _atom_site_fract_y
 _atom_site_fract_z
 _atom_site_occupancy
  Ba  Ba0  1  -0.00173679  0.62430615  1.00064504  1
  Ba  Ba1  1  0.66421436  0.62565533  0.99931068  1
  Ba  Ba2  1  0.16580008  0.87752210  0.83208956  1
  Ba  Ba3  1  0.00064680  0.87310437  0.00187765  1
  Ba  Ba4  1  0.33282686  0.62703210  0.33045353  1
  Ba  Ba5  1  0.83269666  0.12438646  0.16938124  1
  Ba  Ba6  1  0.33065266  0.62454926  0.66392262  1
  Ba  Ba7  1  0.83427521  0.87810536  0.16702214  1
  Ba  Ba8  1  0.00606148  0.37357883  0.33546044  1
  Ba  Ba9  1  0.33634159  0.37448526  -0.00155986  1
  Ba  Ba10  1  0.83280771  0.62457412  0.50002966  1
  Ba  Ba11  1  0.49549624  0.12483269  0.16962858  1
  Ba  Ba12  1  0.16266115  0.12615791  0.83197594  1
  Ba  Ba13  1  0.66718063  0.62408121  0.33067668  1
  Ba  Ba14  1  0.33340406  0.62462810  1.00032220  1
  Ba  Ba15  1  0.83011496  0.12569769  0.50316392  1
  Ba  Ba16  1  0.33462001  0.87452858  0.66741090  1
  Sr  Sr17  1  0.33508514  0.87664618  -0.00261470  1
  Sr  Sr18  1  0.50604277  0.37738986  0.83306630  1
  Sr  Sr19  1  0.49530207  0.12458550  0.83906780  1
  Sr  Sr20  1  0.32826326  0.12260051  0.33076973  1
  Sr  Sr21  1  0.49527793  0.62462367  0.16596021  1
  La  La22  1  -0.00354705  0.87604136  0.67036148  1
  La  La23  1  -0.00076068  0.12662741  0.33078524  1
  La  La24  1  0.16787108  0.62883915  0.83422141  1
  La  La25  1  0.66656848  0.37193620  0.00047251  1
  La  La26  1  -0.00606365  0.12187746  0.99929432  1
  La  La27  1  -0.00242433  0.62739834  0.66649470  1
  La  La28  1  0.83385682  0.87197989  0.83721582  1
  La  La29  1  0.67046847  0.37242550  0.33319317  1
  Pr  Pr30  1  0.66083992  0.62234186  0.66196034  1
  Pr  Pr31  1  0.34296692  0.37288305  0.67231753  1
  Pr  Pr32  1  0.34378524  0.37357489  0.33137768  1
  Pr  Pr33  1  0.66476632  0.87790513  0.00322545  1
  Pr  Pr34  1  0.84087421  0.37589827  0.49646763  1
  Pr  Pr35  1  0.00332002  0.37225480  0.00614438  1
  Pr  Pr36  1  0.17996314  0.37469378  0.49308330  1
  Pr  Pr37  1  0.15956744  0.12710788  0.50146245  1
  Pr  Pr38  1  0.50717206  0.37845047  0.50032253  1
  Pr  Pr39  1  0.17379333  0.37656068  0.16478982  1
  Pr  Pr40  1  0.49636318  0.62519715  0.50088895  1
  Pr  Pr41  1  0.16563261  0.62550772  0.16498091  1
  Pr  Pr42  1  0.32164715  0.12489225  0.66520723  1
  Pr  Pr43  1  -0.00502581  0.12191727  0.66695919  1
  Pr  Pr44  1  0.82780931  0.12632876  0.83823440  1
  Pr  Pr45  1  0.50207045  0.87060020  0.83128772  1
  Pr  Pr46  1  0.67000123  0.87798513  0.33499615  1
  Pr  Pr47  1  0.65581351  0.12659589  0.66558679  1
  Pr  Pr48  1  0.67065977  0.87678973  0.66869693  1
  Pr  Pr49  1  0.83664004  0.87436641  0.49650444  1
  Pr  Pr50  1  0.17443317  0.87600352  0.49616751  1
  Pr  Pr51  1  0.50237495  0.86998694  0.16626453  1
  Pr  Pr52  1  0.00316895  0.87743561  0.33315663  1
  Pr  Pr53  1  0.16245314  0.62338286  0.49993756  1
  Pr  Pr54  1  0.34539503  0.87639599  0.33443903  1
  Pr  Pr55  1  0.83480200  0.62939619  0.17244301  1
  Pr  Pr56  1  0.50487858  0.38059128  0.16368422  1
  Pr  Pr57  1  0.17173796  0.37828078  0.82984472  1
  Pr  Pr58  1  0.49109135  0.12489070  0.50435551  1
  Pr  Pr59  1  0.66185148  0.12265385  0.99906433  1
  Pr  Pr60  1  0.83775968  0.37787968  0.83610402  1
  Pr  Pr61  1  0.32633568  0.12417917  0.99644740  1
  Pr  Pr62  1  -0.00021615  0.37299326  0.66594277  1
  Pr  Pr63  1  0.50392372  0.87169464  0.49925608  1
  Pr  Pr64  1  -0.00073495  0.62275393  0.32776182  1
  Pr  Pr65  1  0.83127167  0.62439672  0.83677324  1
  Pr  Pr66  1  0.83740383  0.37722758  0.16618439  1
  Pr  Pr67  1  0.16615347  0.12545937  0.16510923  1
  Pr  Pr68  1  0.66374341  0.12515581  0.33152539  1
  Pr  Pr69  1  0.49191516  0.62557509  0.83708084  1
  Pr  Pr70  1  0.17288026  0.87383887  0.15782295  1
  Pr  Pr71  1  0.67706293  0.37276722  0.67053660  1
  Mn  Mn72  1  0.00389005  0.00161601  0.16807512  1
  Mn  Mn73  1  0.00136835  -0.00118120  0.50074896  1
  Mn  Mn74  1  -0.00439621  0.00149771  0.83248294  1
  Mn  Mn75  1  0.00120911  0.49845540  0.16701597  1
  Mn  Mn76  1  0.00185189  0.50096096  0.50056141  1
  Mn  Mn77  1  -0.00013694  0.49750877  0.83262259  1
  Mn  Mn78  1  0.33281463  -0.00100719  0.16642956  1
  Mn  Mn79  1  0.33374801  0.00098611  0.49804192  1
  Mn  Mn80  1  0.33478167  0.00101883  0.83280508  1
  Mn  Mn81  1  0.33344743  0.50011265  0.16733994  1
  Mn  Mn82  1  0.33522376  0.49851266  0.49927503  1
  Mn  Mn83  1  0.33431897  0.49814875  0.83069219  1
  Mn  Mn84  1  0.66402457  0.00068010  0.16826286  1
  Mn  Mn85  1  0.66426122  0.00058085  0.50259868  1
  Mn  Mn86  1  0.66558292  -0.00009363  0.83357782  1
  Mn  Mn87  1  0.66855942  0.49928359  0.16558552  1
  Mn  Mn88  1  0.66646625  0.49881772  0.50094949  1
  Mn  Mn89  1  0.66766327  0.49966875  0.83078213  1
  Mn  Mn90  1  0.00234969  0.25058266  0.16783642  1
  Mn  Mn91  1  0.00045428  0.24921732  0.50165057  1
  Mn  Mn92  1  -0.00236029  0.25240634  0.83522772  1
  Mn  Mn93  1  0.00205672  0.74958787  0.16898205  1
  Mn  Mn94  1  0.00270349  0.75195075  0.49968564  1
  Mn  Mn95  1  -0.00253151  0.74960399  0.83128417  1
  Mn  Mn96  1  0.33358608  0.24889097  0.16805387  1
  Mn  Mn97  1  0.33500811  0.24946349  0.49982657  1
  Mn  Mn98  1  0.33486995  0.24933491  0.83279671  1
  Mn  Mn99  1  0.33295493  0.75186024  0.16579907  1
  Mn  Mn100  1  0.33371943  0.75109782  0.49726300  1
  Mn  Mn101  1  0.33303129  0.75131003  0.83269297  1
  Mn  Mn102  1  0.66615785  0.24971942  0.16849207  1
  Mn  Mn103  1  0.66430639  0.25068520  0.50212884  1
  Mn  Mn104  1  0.66615284  0.24959222  0.83407111  1
  Mn  Mn105  1  0.66688666  0.75027903  0.16605936  1
  Mn  Mn106  1  0.66637600  0.74963899  0.50166949  1
  Mn  Mn107  1  0.66709599  0.75009787  0.83090172  1
  Mn  Mn108  1  0.16539840  0.25089832  -0.00017565  1
  Mn  Mn109  1  0.17182087  0.24812158  0.33307226  1
  Mn  Mn110  1  0.16378659  0.25238851  0.66287376  1
  Mn  Mn111  1  0.16795554  0.74989573  -0.00102834  1
  Mn  Mn112  1  0.16621959  0.75327071  0.33072537  1
  Mn  Mn113  1  0.16362599  0.74876563  0.66394311  1
  Mn  Mn114  1  0.50011764  0.24897826  0.00102167  1
  Mn  Mn115  1  0.50081292  0.25008929  0.33624367  1
  Mn  Mn116  1  0.49954483  0.24873130  0.66879670  1
  Mn  Mn117  1  0.49928216  0.75139155  -0.00154416  1
  Mn  Mn118  1  0.50273209  0.75032591  0.33188560  1
  Mn  Mn119  1  0.50193375  0.75026846  0.66606600  1
  Mn  Mn120  1  0.83200305  0.25048603  0.00113668  1
  Mn  Mn121  1  0.83355041  0.24940737  0.33537352  1
  Mn  Mn122  1  0.83287692  0.24981854  0.67008030  1
  Mn  Mn123  1  0.83094993  0.74883608  0.00180731  1
  Mn  Mn124  1  0.83505399  0.75220003  0.33446307  1
  Mn  Mn125  1  0.83109285  0.75028543  0.66748704  1
  Mn  Mn126  1  0.16689219  0.00014119  0.00013134  1
  Mn  Mn127  1  0.16778537  -0.00105228  0.33034767  1
  Mn  Mn128  1  0.16397850  0.00131975  0.66285726  1
  Mn  Mn129  1  0.16568025  0.49935055  -0.00286877  1
  Mn  Mn130  1  0.17039794  0.49975247  0.33297489  1
  Mn  Mn131  1  0.16357631  0.49690665  0.66285363  1
  Mn  Mn132  1  0.49819864  -0.00016466  0.00091899  1
  Mn  Mn133  1  0.50140433  0.00081642  0.33608474  1
  Mn  Mn134  1  0.49900246  0.00178502  0.66909408  1
  Mn  Mn135  1  0.50150454  0.49991557  -0.00228169  1
  Mn  Mn136  1  0.50217859  0.49834872  0.33195910  1
  Mn  Mn137  1  0.50187694  0.49863578  0.66629288  1
  Mn  Mn138  1  0.83079663  0.00196968  0.00032593  1
  Mn  Mn139  1  0.83355112  0.00005554  0.33665513  1
  Mn  Mn140  1  0.83025141  0.00021440  0.66901988  1
  Mn  Mn141  1  0.83229278  0.49870527  0.00052525  1
  Mn  Mn142  1  0.83510311  0.49827260  0.33301851  1
  Mn  Mn143  1  0.83378786  0.49885620  0.66822648  1
  O  O144  1  0.16946862  0.12680591  0.01997334  1
  O  O145  1  0.16869879  0.12255453  0.35997648  1
  O  O146  1  0.17081955  0.12827324  0.67494747  1
  O  O147  1  0.16630025  0.62212357  0.01768637  1
  O  O148  1  0.16318215  0.63027327  0.35818972  1
  O  O149  1  0.15905114  0.61674535  0.68960616  1
  O  O150  1  0.50825455  0.12366588  0.01566404  1
  O  O151  1  0.50817944  0.12590678  0.36165422  1
  O  O152  1  0.50811704  0.12543481  0.68962190  1
  O  O153  1  0.49930174  0.62698468  0.01339238  1
  O  O154  1  0.50061042  0.62331097  0.35679449  1
  O  O155  1  0.51067241  0.62305203  0.69158877  1
  O  O156  1  0.83179901  0.12747049  0.01301177  1
  O  O157  1  0.83327008  0.12355291  0.34676039  1
  O  O158  1  0.83734747  0.12529387  0.69410306  1
  O  O159  1  0.83013209  0.61884116  0.02651577  1
  O  O160  1  0.84029775  0.62669020  0.34168011  1
  O  O161  1  0.83424672  0.62092986  0.69292598  1
  O  O162  1  0.17537541  0.37048833  0.30932742  1
  O  O163  1  0.15336025  0.37389794  0.63409845  1
  O  O164  1  0.15745333  0.37447860  0.97531994  1
  O  O165  1  0.15454895  0.87710824  0.30182312  1
  O  O166  1  0.15524118  0.87959848  0.64229276  1
  O  O167  1  0.16629588  0.87632474  0.99214147  1
  O  O168  1  0.50087286  0.37261586  0.31022660  1
  O  O169  1  0.49587038  0.37247107  0.64316947  1
  O  O170  1  0.50892943  0.37332673  0.98349597  1
  O  O171  1  0.50326495  0.87746449  0.31326902  1
  O  O172  1  0.50688982  0.87827290  0.64268623  1
  O  O173  1  0.50615061  0.87678173  0.97468316  1
  O  O174  1  0.83103082  0.37268153  0.31352299  1
  O  O175  1  0.82931353  0.37332869  0.63998672  1
  O  O176  1  0.83518402  0.37337346  0.97761224  1
  O  O177  1  0.82993929  0.87642416  0.32487418  1
  O  O178  1  0.82909101  0.87931707  0.63984839  1
  O  O179  1  0.82601080  0.87923197  0.98128472  1
  O  O180  1  -0.00280987  0.37470220  0.17999520  1
  O  O181  1  -0.00436187  0.37347821  0.52165146  1
  O  O182  1  -0.00480702  0.37467287  0.86310702  1
  O  O183  1  0.01170727  0.87574427  0.18763205  1
  O  O184  1  0.00217582  0.87531424  0.52683346  1
  O  O185  1  -0.00678650  0.87536802  0.84250880  1
  O  O186  1  0.32423985  0.37280123  0.18847888  1
  O  O187  1  0.33002152  0.37223595  0.52737906  1
  O  O188  1  0.32541574  0.37326043  0.83952632  1
  O  O189  1  0.32335809  0.87721665  0.19094600  1
  O  O190  1  0.33321060  0.87645000  0.51122060  1
  O  O191  1  0.33971688  0.87708231  0.84484998  1
  O  O192  1  0.66023598  0.37299330  0.18831791  1
  O  O193  1  0.65805500  0.37375625  0.52893305  1
  O  O194  1  0.66861904  0.37312894  0.85563793  1
  O  O195  1  0.65838940  0.87676787  0.18930614  1
  O  O196  1  0.66164526  0.87396103  0.52685252  1
  O  O197  1  0.66201126  0.87640015  0.85897189  1
  O  O198  1  0.00916520  0.12876812  0.14465549  1
  O  O199  1  0.00597572  0.12297158  0.47465237  1
  O  O200  1  -0.01130836  0.12943377  0.80996599  1
  O  O201  1  0.00003482  0.62144906  0.15794257  1
  O  O202  1  0.00790384  0.62952007  0.47183650  1
  O  O203  1  -0.00698979  0.62115671  0.80874701  1
  O  O204  1  0.33051132  0.12395622  0.14144367  1
  O  O205  1  0.33955626  0.12552274  0.47890604  1
  O  O206  1  0.33622740  0.12765184  0.80979313  1
  O  O207  1  0.33305886  0.62668788  0.15775741  1
  O  O208  1  0.33613255  0.62627840  0.48676887  1
  O  O209  1  0.33675919  0.62273583  0.82155276  1
  O  O210  1  0.66556448  0.12648973  0.14566614  1
  O  O211  1  0.66040306  0.12712755  0.47481404  1
  O  O212  1  0.67469033  0.12490769  0.80716610  1
  O  O213  1  0.67949536  0.62358068  0.15588272  1
  O  O214  1  0.66189288  0.62491631  0.48702398  1
  O  O215  1  0.67689895  0.62556033  0.80411045  1
  O  O216  1  0.08248623  0.02779866  0.25561038  1
  O  O217  1  0.08073993  0.02497640  0.58141018  1
  O  O218  1  0.07464298  0.01637072  0.92413476  1
  O  O219  1  0.08284660  0.51781656  0.25346539  1
  O  O220  1  0.07676834  0.52422291  0.58679399  1
  O  O221  1  0.08475231  0.51476199  0.90792154  1
  O  O222  1  0.40895511  0.00689659  0.26066166  1
  O  O223  1  0.41157533  0.02445345  0.59380571  1
  O  O224  1  0.41101132  0.01886033  0.92729439  1
  O  O225  1  0.41397233  0.50100084  0.25416430  1
  O  O226  1  0.41854686  0.51140858  0.58039115  1
  O  O227  1  0.42008235  0.50855714  0.91243735  1
  O  O228  1  0.74199201  0.01041401  0.25974791  1
  O  O229  1  0.73711076  0.01782267  0.59640146  1
  O  O230  1  0.74572987  0.02167732  0.91659841  1
  O  O231  1  0.75631859  0.50428341  0.24285045  1
  O  O232  1  0.74090674  0.51186023  0.59483526  1
  O  O233  1  0.75157387  0.51236297  0.91311760  1
  O  O234  1  0.24528918  0.22759489  0.24427854  1
  O  O235  1  0.24255974  0.23247387  0.56968193  1
  O  O236  1  0.24773892  0.23746206  0.91658744  1
  O  O237  1  0.23724170  0.73735035  0.23921617  1
  O  O238  1  0.24078661  0.74061640  0.56912473  1
  O  O239  1  0.24593719  0.73826992  0.91013251  1
  O  O240  1  0.58420655  0.23455804  0.25627058  1
  O  O241  1  0.57237091  0.22945339  0.57563700  1
  O  O242  1  0.58478116  0.23198770  0.91428622  1
  O  O243  1  0.57945271  0.73912173  0.24413923  1
  O  O244  1  0.57984186  0.72787145  0.57987547  1
  O  O245  1  0.57722846  0.73433044  0.90267639  1
  O  O246  1  0.92205876  0.23671407  0.25078295  1
  O  O247  1  0.91612790  0.23583638  0.59157031  1
  O  O248  1  0.90789996  0.23186902  0.91134415  1
  O  O249  1  0.92225847  0.73815766  0.25478804  1
  O  O250  1  0.91989743  0.73835201  0.58711797  1
  O  O251  1  0.91052098  0.73632862  0.90998756  1
  O  O252  1  0.08422922  0.47971922  0.08469550  1
  O  O253  1  0.09939448  0.48512860  0.42517447  1
  O  O254  1  0.08390862  0.47204096  0.74898560  1
  O  O255  1  0.09347247  0.99122386  0.09414116  1
  O  O256  1  0.08844563  0.97719048  0.41654691  1
  O  O257  1  0.07384003  0.99490757  0.74129690  1
  O  O258  1  0.42215661  0.48562347  0.09288040  1
  O  O259  1  0.42461902  0.47679683  0.42031054  1
  O  O260  1  0.42008275  0.48381693  0.74764723  1
  O  O261  1  0.42048334  0.97730443  0.09179596  1
  O  O262  1  0.42673750  0.98131447  0.42538858  1
  O  O263  1  0.42902723  0.98551710  0.75930695  1
  O  O264  1  0.75171603  0.47095433  0.08306487  1
  O  O265  1  0.75321780  0.47732001  0.42218288  1
  O  O266  1  0.75715714  0.47482883  0.75469226  1
  O  O267  1  0.74196086  0.98956238  0.07754008  1
  O  O268  1  0.75063767  0.97917447  0.42737245  1
  O  O269  1  0.75209920  0.97576824  0.75572145  1
  O  O270  1  0.24652989  0.26363764  0.08452494  1
  O  O271  1  0.26238149  0.27093316  0.40920620  1
  O  O272  1  0.25185963  0.26893320  0.73516222  1
  O  O273  1  0.25365037  0.76490784  0.08220685  1
  O  O274  1  0.25265130  0.77677891  0.40483754  1
  O  O275  1  0.24505461  0.75394390  0.74655018  1
  O  O276  1  0.58828951  0.26834293  0.08092487  1
  O  O277  1  0.58902183  0.27518345  0.41461820  1
  O  O278  1  0.59435231  0.26623044  0.74005337  1
  O  O279  1  0.58354781  0.77149850  0.07964117  1
  O  O280  1  0.58690412  0.77253522  0.41628929  1
  O  O281  1  0.58929646  0.77260083  0.74391745  1
  O  O282  1  0.92033174  0.26714684  0.07794080  1
  O  O283  1  0.91695015  0.26288052  0.42206410  1
  O  O284  1  0.92015728  0.27742246  0.75044542  1
  O  O285  1  0.91430323  0.75366419  0.09027863  1
  O  O286  1  0.92151931  0.77424221  0.41887783  1
  O  O287  1  0.91154649  0.76781921  0.74929451  1
  O  O288  1  0.24638505  0.48616824  0.08512140  1
  O  O289  1  0.26111566  0.47754403  0.40986322  1
  O  O290  1  0.24974064  0.47530306  0.73757169  1
  O  O291  1  0.25439647  0.98668325  0.08003761  1
  O  O292  1  0.25344694  0.97553050  0.40454408  1
  O  O293  1  0.25146248  0.99674421  0.74034430  1
  O  O294  1  0.58889902  0.48166562  0.07981148  1
  O  O295  1  0.58773734  0.47681655  0.41287916  1
  O  O296  1  0.59496097  0.48122353  0.73696313  1
  O  O297  1  0.58188934  0.97821187  0.08334550  1
  O  O298  1  0.58885876  0.97554655  0.41649613  1
  O  O299  1  0.58951953  0.97960138  0.74556284  1
  O  O300  1  0.91683358  0.47748932  0.08231461  1
  O  O301  1  0.91896068  0.48679458  0.42023717  1
  O  O302  1  0.91991653  0.47338969  0.74824604  1
  O  O303  1  0.92184019  0.99747680  0.08144980  1
  O  O304  1  0.92037183  0.97754548  0.42058899  1
  O  O305  1  0.91131552  0.97975625  0.74875031  1
  O  O306  1  0.08775190  0.27250626  0.08829928  1
  O  O307  1  0.09901080  0.26275185  0.42606956  1
  O  O308  1  0.08449465  0.27343855  0.75562469  1
  O  O309  1  0.09107710  0.75656983  0.09344532  1
  O  O310  1  0.08806584  0.77817457  0.41841757  1
  O  O311  1  0.07183144  0.75903592  0.74099281  1
  O  O312  1  0.42363418  0.26797653  0.09575858  1
  O  O313  1  0.42720819  0.27184013  0.42938396  1
  O  O314  1  0.42193565  0.26844812  0.75172989  1
  O  O315  1  0.42057029  0.77048585  0.08842885  1
  O  O316  1  0.42248093  0.77006750  0.41837331  1
  O  O317  1  0.42690045  0.76016720  0.75505581  1
  O  O318  1  0.75528547  0.27375296  0.08828166  1
  O  O319  1  0.75180622  0.27356513  0.42793145  1
  O  O320  1  0.75851329  0.27144057  0.75960734  1
  O  O321  1  0.74262103  0.76887698  0.07849826  1
  O  O322  1  0.75161026  0.77058891  0.42223273  1
  O  O323  1  0.75026679  0.77677795  0.75210734  1
  O  O324  1  0.24153257  0.01876410  0.24066492  1
  O  O325  1  0.24302966  0.01660981  0.57146244  1
  O  O326  1  0.25041054  0.01535868  0.91813280  1
  O  O327  1  0.24062526  0.51484150  0.24178668  1
  O  O328  1  0.23704873  0.51192757  0.57088679  1
  O  O329  1  0.24236480  0.50924233  0.90374942  1
  O  O330  1  0.58487701  0.01672375  0.25740546  1
  O  O331  1  0.57518215  0.02295335  0.57804883  1
  O  O332  1  0.58541202  0.01788063  0.91687770  1
  O  O333  1  0.57868976  0.50868232  0.24333964  1
  O  O334  1  0.57558731  0.51939457  0.57598924  1
  O  O335  1  0.57980979  0.51678982  0.90086934  1
  O  O336  1  0.92633850  0.00926823  0.25628437  1
  O  O337  1  0.91794540  0.01446465  0.59040103  1
  O  O338  1  0.90931456  0.01953727  0.91315089  1
  O  O339  1  0.91660465  0.51566574  0.24718551  1
  O  O340  1  0.91617287  0.51223769  0.58960541  1
  O  O341  1  0.90908506  0.51413820  0.90967931  1
  O  O342  1  0.08571235  0.22878112  0.25489289  1
  O  O343  1  0.07521342  0.22631080  0.58967640  1
  O  O344  1  0.06956313  0.23462535  0.92787457  1
  O  O345  1  0.08016981  0.72578065  0.25639872  1
  O  O346  1  0.08262295  0.72545901  0.58038506  1
  O  O347  1  0.08350246  0.73507170  0.90748536  1
  O  O348  1  0.40917226  0.24054535  0.26441300  1
  O  O349  1  0.40689985  0.22809663  0.59264771  1
  O  O350  1  0.41261261  0.23102354  0.92755881  1
  O  O351  1  0.41484525  0.75071885  0.25146195  1
  O  O352  1  0.42312835  0.73822819  0.57996423  1
  O  O353  1  0.41899794  0.74198902  0.91422110  1
  O  O354  1  0.74167409  0.23787511  0.26024034  1
  O  O355  1  0.73517684  0.23399757  0.59741558  1
  O  O356  1  0.74308233  0.23040252  0.92350074  1
  O  O357  1  0.75533086  0.74160052  0.24585116  1
  O  O358  1  0.74208193  0.73503880  0.59300404  1
  O  O359  1  0.75228264  0.73622881  0.90869046  1
