# generated using pymatgen
data_Ba17Sr5La8Pr42Mn72O216
_symmetry_space_group_name_H-M   'P 1'
_cell_length_a   16.68857142
_cell_length_b   15.71088117
_cell_length_c   16.82499016
_cell_angle_alpha   89.99806428
_cell_angle_beta   90.00604258
_cell_angle_gamma   90.01538764
_symmetry_Int_Tables_number   1
_chemical_formula_structural   Ba17Sr5La8Pr42Mn72O216
_chemical_formula_sum   'Ba17 Sr5 La8 Pr42 Mn72 O216'
_cell_volume   4411.38036602
_cell_formula_units_Z   1
loop_
 _symmetry_equiv_pos_site_id
 _symmetry_equiv_pos_as_xyz
  1  'x, y, z'
loop_
 _atom_site_type_symbol
 _atom_site_label
 _atom_site_symmetry_multiplicity
 _atom_site_fract_x
 _atom_site_fract_y
 _atom_site_fract_z
 _atom_site_occupancy
  Ba  Ba0  1  0.66384478  0.62485060  0.33171721  1
  Ba  Ba1  1  0.16507987  0.62558661  0.50097725  1
  Ba  Ba2  1  0.00228285  0.37442548  0.66908935  1
  Ba  Ba3  1  0.66437776  0.12412932  0.99713518  1
  Ba  Ba4  1  0.83135938  0.12513254  0.49913902  1
  Ba  Ba5  1  0.00315552  0.37546638  0.00294147  1
  Ba  Ba6  1  0.83535735  0.37657058  0.16482250  1
  Ba  Ba7  1  0.66341293  0.12596816  0.66400653  1
  Ba  Ba8  1  0.16832293  0.12562780  0.49745658  1
  Ba  Ba9  1  0.66925030  0.87477149  -0.00281308  1
  Ba  Ba10  1  0.00140908  0.12322318  1.00332046  1
  Ba  Ba11  1  0.49510563  0.12388730  0.16688254  1
  Ba  Ba12  1  0.82991837  0.62637617  0.50153610  1
  Ba  Ba13  1  0.00237764  0.87492627  0.33502099  1
  Ba  Ba14  1  -0.00165721  0.62450638  0.66462414  1
  Ba  Ba15  1  0.00154766  0.87561589  0.66757723  1
  Ba  Ba16  1  0.33518980  0.87578498  0.66758842  1
  Sr  Sr17  1  -0.00519963  0.62452530  0.99905338  1
  Sr  Sr18  1  0.16865498  0.37377940  0.83467736  1
  Sr  Sr19  1  0.00437662  0.87294636  0.00330781  1
  Sr  Sr20  1  0.32467222  0.12483357  0.32984511  1
  Sr  Sr21  1  0.16948744  0.87375085  0.50159447  1
  La  La22  1  0.66515693  0.62391810  0.99511326  1
  La  La23  1  0.83048693  0.12246204  0.16691144  1
  La  La24  1  0.67319443  0.37350244  -0.00038371  1
  La  La25  1  0.49334579  0.62821373  0.16883428  1
  La  La26  1  0.50713058  0.37567714  0.83001878  1
  La  La27  1  0.50889516  0.87475846  0.82877965  1
  La  La28  1  0.32461345  0.62416752  0.66653544  1
  La  La29  1  0.83884773  0.37215894  0.83458440  1
  Pr  Pr30  1  0.16009530  0.12386380  0.83397573  1
  Pr  Pr31  1  0.84260144  0.37566575  0.49659026  1
  Pr  Pr32  1  0.67375965  0.87590014  0.33256939  1
  Pr  Pr33  1  0.15451617  0.62527197  0.17039201  1
  Pr  Pr34  1  0.34276026  0.37410553  0.33520534  1
  Pr  Pr35  1  0.50998846  0.37388748  0.49763695  1
  Pr  Pr36  1  0.66205952  0.12670013  0.32464424  1
  Pr  Pr37  1  0.67695725  0.37446825  0.33298694  1
  Pr  Pr38  1  0.49189087  0.62385306  0.50177505  1
  Pr  Pr39  1  0.83317163  0.62465869  0.83043861  1
  Pr  Pr40  1  0.16812941  0.87788220  0.83040276  1
  Pr  Pr41  1  0.66006261  0.62565918  0.65667123  1
  Pr  Pr42  1  -0.00387617  0.12564329  0.66651374  1
  Pr  Pr43  1  0.32224580  0.62481266  0.99967662  1
  Pr  Pr44  1  0.83993262  0.87083971  0.16169162  1
  Pr  Pr45  1  0.32233944  0.62527172  0.33213767  1
  Pr  Pr46  1  0.00723060  0.37340006  0.33712600  1
  Pr  Pr47  1  0.67679743  0.37403191  0.66380659  1
  Pr  Pr48  1  0.33007465  0.12735161  0.66644383  1
  Pr  Pr49  1  0.17430358  0.37371111  0.16088845  1
  Pr  Pr50  1  0.17557096  0.87561696  0.16621719  1
  Pr  Pr51  1  0.50660334  0.87637404  0.49898780  1
  Pr  Pr52  1  0.48917286  0.62588221  0.83460333  1
  Pr  Pr53  1  0.33804997  0.87763778  0.34218278  1
  Pr  Pr54  1  0.67458472  0.87589965  0.66716552  1
  Pr  Pr55  1  -0.00207707  0.12122834  0.32876448  1
  Pr  Pr56  1  0.17398992  0.37889786  0.50063157  1
  Pr  Pr57  1  0.49381773  0.12599255  0.49896733  1
  Pr  Pr58  1  0.33954384  0.37633092  0.00411262  1
  Pr  Pr59  1  0.83412828  0.12444276  0.83567180  1
  Pr  Pr60  1  0.84063036  0.87518130  0.49948233  1
  Pr  Pr61  1  -0.00753724  0.62784735  0.33385786  1
  Pr  Pr62  1  0.50871918  0.37513909  0.16409603  1
  Pr  Pr63  1  0.83152140  0.62563997  0.16752242  1
  Pr  Pr64  1  0.34033568  0.87345527  0.00224874  1
  Pr  Pr65  1  0.15591934  0.62664048  0.83399215  1
  Pr  Pr66  1  0.32747477  0.12672239  1.00038759  1
  Pr  Pr67  1  0.83948382  0.87860885  0.83333568  1
  Pr  Pr68  1  0.49191870  0.12254749  0.83981470  1
  Pr  Pr69  1  0.33422786  0.37382140  0.66783303  1
  Pr  Pr70  1  0.50827873  0.87507179  0.16749864  1
  Pr  Pr71  1  0.15937690  0.12400440  0.17236379  1
  Mn  Mn72  1  0.00074390  -0.00320803  0.16705315  1
  Mn  Mn73  1  0.00206769  0.00226862  0.49991205  1
  Mn  Mn74  1  0.00031512  -0.00050143  0.83563180  1
  Mn  Mn75  1  0.00050542  0.50187104  0.16806896  1
  Mn  Mn76  1  0.00160791  0.49784551  0.49948610  1
  Mn  Mn77  1  0.00003264  0.50068700  0.83521013  1
  Mn  Mn78  1  0.33269563  -0.00268665  0.16925046  1
  Mn  Mn79  1  0.33535522  0.00176243  0.50131130  1
  Mn  Mn80  1  0.33309588  0.00041845  0.83647258  1
  Mn  Mn81  1  0.33294472  0.50103009  0.16791989  1
  Mn  Mn82  1  0.33585547  0.49815612  0.50071269  1
  Mn  Mn83  1  0.33209344  0.49915161  0.83522827  1
  Mn  Mn84  1  0.66711124  -0.00174234  0.16714866  1
  Mn  Mn85  1  0.66492557  -0.00057600  0.49693260  1
  Mn  Mn86  1  0.66656546  -0.00033972  0.82999110  1
  Mn  Mn87  1  0.66465994  0.50158880  0.16272262  1
  Mn  Mn88  1  0.66498157  0.49926636  0.49831611  1
  Mn  Mn89  1  0.66708411  0.50175452  0.82857569  1
  Mn  Mn90  1  0.00004439  0.24973928  0.16996904  1
  Mn  Mn91  1  0.00271980  0.24880342  0.50015112  1
  Mn  Mn92  1  0.00117579  0.24970985  0.83463591  1
  Mn  Mn93  1  0.00112808  0.74978312  0.16530281  1
  Mn  Mn94  1  0.00119122  0.75183434  0.49996755  1
  Mn  Mn95  1  -0.00098345  0.75004499  0.83747384  1
  Mn  Mn96  1  0.33261981  0.25029890  0.16796062  1
  Mn  Mn97  1  0.33597975  0.25063507  0.50031198  1
  Mn  Mn98  1  0.33327319  0.25202103  0.83444537  1
  Mn  Mn99  1  0.33257155  0.75065486  0.16914604  1
  Mn  Mn100  1  0.33497613  0.75016372  0.50104421  1
  Mn  Mn101  1  0.33140357  0.74864280  0.83606125  1
  Mn  Mn102  1  0.66609103  0.25140575  0.16494725  1
  Mn  Mn103  1  0.66636598  0.25022197  0.49641095  1
  Mn  Mn104  1  0.66609160  0.25130507  0.83075806  1
  Mn  Mn105  1  0.66604096  0.74927415  0.16435852  1
  Mn  Mn106  1  0.66341748  0.75197001  0.49911974  1
  Mn  Mn107  1  0.66770649  0.74696644  0.82775512  1
  Mn  Mn108  1  0.16979545  0.24951227  0.00034781  1
  Mn  Mn109  1  0.16691870  0.25318339  0.33189134  1
  Mn  Mn110  1  0.16831216  0.24939798  0.66843063  1
  Mn  Mn111  1  0.16699586  0.75070483  0.00099814  1
  Mn  Mn112  1  0.16721607  0.74983343  0.33307307  1
  Mn  Mn113  1  0.16695112  0.75245732  0.66817592  1
  Mn  Mn114  1  0.49796656  0.25184377  -0.00204809  1
  Mn  Mn115  1  0.50032743  0.25176051  0.33203685  1
  Mn  Mn116  1  0.49927438  0.25133790  0.66682513  1
  Mn  Mn117  1  0.49893337  0.74808908  0.00039988  1
  Mn  Mn118  1  0.49753158  0.74916772  0.33427852  1
  Mn  Mn119  1  0.50054847  0.74887599  0.66611731  1
  Mn  Mn120  1  0.83382201  0.24801078  0.00021260  1
  Mn  Mn121  1  0.83365645  0.24966943  0.33308314  1
  Mn  Mn122  1  0.83306409  0.24980744  0.66653992  1
  Mn  Mn123  1  0.83386142  0.74865920  -0.00105555  1
  Mn  Mn124  1  0.83258717  0.75033591  0.33187598  1
  Mn  Mn125  1  0.83160102  0.75122808  0.66754021  1
  Mn  Mn126  1  0.17031117  -0.00212205  0.00091723  1
  Mn  Mn127  1  0.16781406  -0.00121231  0.33372115  1
  Mn  Mn128  1  0.16767244  0.00167886  0.66771231  1
  Mn  Mn129  1  0.16750149  0.50100339  0.00062540  1
  Mn  Mn130  1  0.16633603  0.49882844  0.33080141  1
  Mn  Mn131  1  0.16801538  0.49729654  0.66873784  1
  Mn  Mn132  1  0.49792712  -0.00156783  0.00074815  1
  Mn  Mn133  1  0.49938937  -0.00051506  0.33369354  1
  Mn  Mn134  1  0.50020048  0.00186781  0.66650699  1
  Mn  Mn135  1  0.49885247  0.50156589  -0.00069732  1
  Mn  Mn136  1  0.49854992  0.50066766  0.33241291  1
  Mn  Mn137  1  0.49975807  0.49900660  0.66661702  1
  Mn  Mn138  1  0.83488963  -0.00180257  0.00025413  1
  Mn  Mn139  1  0.83107056  -0.00004757  0.33378269  1
  Mn  Mn140  1  0.83277909  0.00086454  0.66642952  1
  Mn  Mn141  1  0.83249324  0.50328905  -0.00127333  1
  Mn  Mn142  1  0.83506866  0.50048114  0.33174550  1
  Mn  Mn143  1  0.83137553  0.49895670  0.66667972  1
  O  O144  1  0.17646411  0.12116680  0.02811417  1
  O  O145  1  0.16287492  0.12752456  0.33951275  1
  O  O146  1  0.17831870  0.12663000  0.69012543  1
  O  O147  1  0.17345144  0.62630628  0.02802282  1
  O  O148  1  0.17235545  0.62216343  0.34559653  1
  O  O149  1  0.17345028  0.62271227  0.68599561  1
  O  O150  1  0.49302905  0.12755491  0.00944777  1
  O  O151  1  0.51063424  0.12862486  0.35432522  1
  O  O152  1  0.49661952  0.13055652  0.69612520  1
  O  O153  1  0.50452444  0.62466295  0.02479972  1
  O  O154  1  0.49612303  0.62388572  0.35799910  1
  O  O155  1  0.51028780  0.62221878  0.69191498  1
  O  O156  1  0.83023538  0.12006412  0.02016385  1
  O  O157  1  0.82188609  0.12517065  0.34306166  1
  O  O158  1  0.83480057  0.12513465  0.68991480  1
  O  O159  1  0.82470135  0.62620097  0.02230398  1
  O  O160  1  0.83684976  0.62430798  0.34432655  1
  O  O161  1  0.82057783  0.62500379  0.68467580  1
  O  O162  1  0.16183633  0.37795477  0.30290677  1
  O  O163  1  0.17404421  0.37235849  0.64772396  1
  O  O164  1  0.17565829  0.37725748  0.98543652  1
  O  O165  1  0.17706505  0.87243446  0.31095306  1
  O  O166  1  0.16846960  0.87903798  0.65693901  1
  O  O167  1  0.17613561  0.87425077  0.97356516  1
  O  O168  1  0.49206697  0.37732589  0.30768070  1
  O  O169  1  0.48828761  0.37587691  0.64045965  1
  O  O170  1  0.49179867  0.37784270  0.97388490  1
  O  O171  1  0.48757617  0.87085895  0.31107335  1
  O  O172  1  0.50242336  0.87190637  0.64346091  1
  O  O173  1  0.49188871  0.86999712  0.97401680  1
  O  O174  1  0.83539890  0.37613859  0.32088170  1
  O  O175  1  0.82931262  0.37382838  0.64383760  1
  O  O176  1  0.82860885  0.37974330  0.98046547  1
  O  O177  1  0.82847917  0.87465930  0.30713961  1
  O  O178  1  0.82783286  0.87668436  0.64536300  1
  O  O179  1  0.83914212  0.87243444  0.97823487  1
  O  O180  1  0.00399052  0.37672838  0.19044843  1
  O  O181  1  -0.00663348  0.37158935  0.51015183  1
  O  O182  1  -0.00592026  0.37581902  0.84473584  1
  O  O183  1  -0.00791139  0.87298967  0.17886953  1
  O  O184  1  -0.00724213  0.87919259  0.50882015  1
  O  O185  1  -0.00485352  0.87444213  0.85229548  1
  O  O186  1  0.32341635  0.37967541  0.19208506  1
  O  O187  1  0.33320275  0.37444178  0.52284691  1
  O  O188  1  0.33168413  0.37734238  0.86203494  1
  O  O189  1  0.32388085  0.87182518  0.19758828  1
  O  O190  1  0.33877916  0.87654275  0.50853184  1
  O  O191  1  0.32368261  0.87290450  0.85883994  1
  O  O192  1  0.65927788  0.37930503  0.18609562  1
  O  O193  1  0.65816019  0.37608803  0.52033378  1
  O  O194  1  0.66078073  0.38084487  0.85780636  1
  O  O195  1  0.66175818  0.87373300  0.18680966  1
  O  O196  1  0.65517090  0.87406182  0.52368673  1
  O  O197  1  0.65854349  0.87214309  0.84212101  1
  O  O198  1  0.00879029  0.12253044  0.16112280  1
  O  O199  1  0.00295737  0.12805543  0.47427010  1
  O  O200  1  0.00170563  0.12426354  0.81417889  1
  O  O201  1  0.00702776  0.62712620  0.14801704  1
  O  O202  1  0.00059670  0.62100413  0.48010612  1
  O  O203  1  0.00503324  0.62578720  0.82316473  1
  O  O204  1  0.32889076  0.12047257  0.14428825  1
  O  O205  1  0.34239183  0.12883573  0.47932619  1
  O  O206  1  0.34504492  0.12833969  0.81022947  1
  O  O207  1  0.34225206  0.62574363  0.14212887  1
  O  O208  1  0.34066591  0.62069717  0.47603531  1
  O  O209  1  0.33996875  0.62256059  0.80995557  1
  O  O210  1  0.67341207  0.12294350  0.15976001  1
  O  O211  1  0.66128459  0.12553740  0.46977877  1
  O  O212  1  0.67128028  0.12349069  0.82070636  1
  O  O213  1  0.66659750  0.62421426  0.14248680  1
  O  O214  1  0.66036174  0.62480206  0.48831963  1
  O  O215  1  0.67819311  0.62313727  0.79898298  1
  O  O216  1  0.07906561  0.01177469  0.25558061  1
  O  O217  1  0.07994411  0.02040141  0.59381567  1
  O  O218  1  0.08900569  0.01056770  0.91564179  1
  O  O219  1  0.07461739  0.52243112  0.26012359  1
  O  O220  1  0.08519281  0.49996719  0.58226547  1
  O  O221  1  0.08298599  0.51698286  0.92401419  1
  O  O222  1  0.40544762  0.01038803  0.26131034  1
  O  O223  1  0.41419989  0.02486909  0.59179805  1
  O  O224  1  0.40576832  0.01568190  0.92771222  1
  O  O225  1  0.40334906  0.51859458  0.26164241  1
  O  O226  1  0.41293276  0.52387379  0.59367307  1
  O  O227  1  0.40874025  0.52375298  0.92606366  1
  O  O228  1  0.74046246  0.01184057  0.25921487  1
  O  O229  1  0.74440101  0.00472033  0.58241350  1
  O  O230  1  0.75354830  0.00714638  0.91134126  1
  O  O231  1  0.74898015  0.51245507  0.24506609  1
  O  O232  1  0.73535527  0.50859941  0.59387933  1
  O  O233  1  0.74432443  0.52323593  0.91470645  1
  O  O234  1  0.23629149  0.23730874  0.23694029  1
  O  O235  1  0.25343819  0.23961039  0.58502985  1
  O  O236  1  0.24794821  0.22434338  0.90973104  1
  O  O237  1  0.24213554  0.72698499  0.23891289  1
  O  O238  1  0.25442081  0.73870671  0.58244924  1
  O  O239  1  0.24340272  0.72352155  0.91493244  1
  O  O240  1  0.57909558  0.24171284  0.24676314  1
  O  O241  1  0.57247724  0.23764655  0.56813970  1
  O  O242  1  0.57094710  0.24003670  0.90378099  1
  O  O243  1  0.56863998  0.73728657  0.24239167  1
  O  O244  1  0.57128142  0.73034162  0.57240521  1
  O  O245  1  0.57910814  0.72619475  0.90130632  1
  O  O246  1  0.91154806  0.22623431  0.24899029  1
  O  O247  1  0.91770142  0.23387321  0.58833569  1
  O  O248  1  0.91140150  0.23521107  0.91212300  1
  O  O249  1  0.91377207  0.72991497  0.24365718  1
  O  O250  1  0.90820528  0.74627725  0.58206815  1
  O  O251  1  0.90825804  0.72944645  0.91195501  1
  O  O252  1  0.09624648  0.48760299  0.09747228  1
  O  O253  1  0.09104304  0.47527537  0.41862768  1
  O  O254  1  0.09348550  0.49236757  0.75818873  1
  O  O255  1  0.09520463  0.98089575  0.08950367  1
  O  O256  1  0.09199981  0.98836924  0.42021424  1
  O  O257  1  0.08929920  0.99164336  0.75827376  1
  O  O258  1  0.42155700  0.47820215  0.09728774  1
  O  O259  1  0.42465991  0.47684367  0.42622406  1
  O  O260  1  0.42520991  0.48274592  0.76047272  1
  O  O261  1  0.41844607  0.97215131  0.09416689  1
  O  O262  1  0.42912031  0.98657423  0.42653443  1
  O  O263  1  0.42535782  0.98410419  0.76654501  1
  O  O264  1  0.74423849  0.48817694  0.07576265  1
  O  O265  1  0.75413952  0.47838116  0.42199986  1
  O  O266  1  0.75333525  0.47190293  0.75532048  1
  O  O267  1  0.75861221  0.98306970  0.09518545  1
  O  O268  1  0.75167076  0.97261276  0.41990659  1
  O  O269  1  0.75249519  0.97910401  0.75170038  1
  O  O270  1  0.26150149  0.26851349  0.07402467  1
  O  O271  1  0.25637455  0.27391716  0.40823715  1
  O  O272  1  0.26052114  0.26724159  0.74542371  1
  O  O273  1  0.25962778  0.77040495  0.07700534  1
  O  O274  1  0.26152377  0.75983659  0.40407761  1
  O  O275  1  0.25190137  0.75905751  0.75423019  1
  O  O276  1  0.58429863  0.27181121  0.07483153  1
  O  O277  1  0.59146199  0.27528784  0.40585480  1
  O  O278  1  0.58761697  0.27621273  0.74012048  1
  O  O279  1  0.58253086  0.76389826  0.08071261  1
  O  O280  1  0.58724295  0.77428327  0.40836355  1
  O  O281  1  0.59396500  0.76455844  0.73479692  1
  O  O282  1  0.91910822  0.25298485  0.08669745  1
  O  O283  1  0.92189975  0.26442855  0.40993215  1
  O  O284  1  0.91198410  0.25807657  0.75396343  1
  O  O285  1  0.92005961  0.76105180  0.08124591  1
  O  O286  1  0.91452246  0.76016384  0.41469920  1
  O  O287  1  0.91280947  0.75877982  0.75503809  1
  O  O288  1  0.26190417  0.48438455  0.07488037  1
  O  O289  1  0.25639226  0.47794182  0.40714746  1
  O  O290  1  0.26192090  0.48227841  0.74397362  1
  O  O291  1  0.25877085  0.97314913  0.07827892  1
  O  O292  1  0.25957895  0.98839018  0.40737670  1
  O  O293  1  0.24966651  0.99075579  0.75758675  1
  O  O294  1  0.58641535  0.47737336  0.07264045  1
  O  O295  1  0.58940911  0.47640648  0.40677776  1
  O  O296  1  0.59059671  0.47627402  0.73764947  1
  O  O297  1  0.58171645  0.98521548  0.08337691  1
  O  O298  1  0.58958143  0.97507390  0.40784010  1
  O  O299  1  0.58845849  0.98108138  0.73890238  1
  O  O300  1  0.91828319  0.49895353  0.08321776  1
  O  O301  1  0.92529415  0.48328848  0.40961047  1
  O  O302  1  0.91101312  0.49407055  0.75199034  1
  O  O303  1  0.91765393  0.98471278  0.08500064  1
  O  O304  1  0.91236974  0.99112185  0.41640987  1
  O  O305  1  0.91294188  0.98997082  0.75593198  1
  O  O306  1  0.09589700  0.26077853  0.09757596  1
  O  O307  1  0.09440227  0.27667653  0.42112882  1
  O  O308  1  0.09130789  0.25410167  0.75687461  1
  O  O309  1  0.09621223  0.76903656  0.09309629  1
  O  O310  1  0.09099151  0.76005346  0.41809648  1
  O  O311  1  0.09123097  0.76184696  0.76432850  1
  O  O312  1  0.42138235  0.27429441  0.08939657  1
  O  O313  1  0.42750411  0.27093293  0.42412164  1
  O  O314  1  0.42057834  0.27646892  0.75798418  1
  O  O315  1  0.42019930  0.77324129  0.09801742  1
  O  O316  1  0.42694039  0.76579532  0.42712229  1
  O  O317  1  0.43028512  0.76136709  0.76232752  1
  O  O318  1  0.74774606  0.26247502  0.08105870  1
  O  O319  1  0.75436440  0.27424943  0.42019691  1
  O  O320  1  0.75121840  0.27230796  0.75032448  1
  O  O321  1  0.75970190  0.76500079  0.08745633  1
  O  O322  1  0.75091925  0.77444425  0.42220191  1
  O  O323  1  0.75621114  0.77536716  0.75627651  1
  O  O324  1  0.23926819  0.01435265  0.23772977  1
  O  O325  1  0.25391912  0.01490146  0.58652520  1
  O  O326  1  0.24873824  0.02703031  0.91529293  1
  O  O327  1  0.24173844  0.52221622  0.23805439  1
  O  O328  1  0.25226155  0.50771574  0.58264611  1
  O  O329  1  0.24458634  0.52589074  0.91070528  1
  O  O330  1  0.58012801  0.00698100  0.25002844  1
  O  O331  1  0.57248367  0.01719605  0.56649449  1
  O  O332  1  0.57316771  0.00975554  0.90173403  1
  O  O333  1  0.56883500  0.51563438  0.23478569  1
  O  O334  1  0.57251570  0.51505741  0.57236695  1
  O  O335  1  0.57938476  0.52532125  0.90164835  1
  O  O336  1  0.90983975  0.01924590  0.24882404  1
  O  O337  1  0.91851774  0.01684214  0.58917760  1
  O  O338  1  0.91231263  0.01598971  0.91176867  1
  O  O339  1  0.91587244  0.52392504  0.24535701  1
  O  O340  1  0.90843792  0.50359079  0.57801694  1
  O  O341  1  0.90772667  0.51730074  0.91167404  1
  O  O342  1  0.07109450  0.23742523  0.26433061  1
  O  O343  1  0.08063676  0.23247087  0.59295375  1
  O  O344  1  0.08778151  0.23582592  0.91946859  1
  O  O345  1  0.07847233  0.73044481  0.25541222  1
  O  O346  1  0.08306398  0.74628321  0.58664455  1
  O  O347  1  0.08075279  0.73518256  0.92536252  1
  O  O348  1  0.40502117  0.24089867  0.26044763  1
  O  O349  1  0.41329232  0.22843772  0.59162000  1
  O  O350  1  0.40723043  0.23356102  0.92393355  1
  O  O351  1  0.40529437  0.72747240  0.26107492  1
  O  O352  1  0.41384774  0.72343263  0.59282444  1
  O  O353  1  0.40710930  0.72741522  0.92678553  1
  O  O354  1  0.74303470  0.24176194  0.25768465  1
  O  O355  1  0.74475326  0.24576083  0.58360154  1
  O  O356  1  0.75144509  0.24278164  0.91195951  1
  O  O357  1  0.75012389  0.73743855  0.24768960  1
  O  O358  1  0.73441595  0.74193009  0.59377828  1
  O  O359  1  0.74434619  0.72765277  0.91609174  1
