# generated using pymatgen
data_Ba17Sr5La8Pr42Mn72O216
_symmetry_space_group_name_H-M   'P 1'
_cell_length_a   16.67552388
_cell_length_b   15.70424513
_cell_length_c   16.83027077
_cell_angle_alpha   90.00756565
_cell_angle_beta   90.02210867
_cell_angle_gamma   90.01299698
_symmetry_Int_Tables_number   1
_chemical_formula_structural   Ba17Sr5La8Pr42Mn72O216
_chemical_formula_sum   'Ba17 Sr5 La8 Pr42 Mn72 O216'
_cell_volume   4407.45217157
_cell_formula_units_Z   1
loop_
 _symmetry_equiv_pos_site_id
 _symmetry_equiv_pos_as_xyz
  1  'x, y, z'
loop_
 _atom_site_type_symbol
 _atom_site_label
 _atom_site_symmetry_multiplicity
 _atom_site_fract_x
 _atom_site_fract_y
 _atom_site_fract_z
 _atom_site_occupancy
  Ba  Ba0  1  0.33578411  0.12648824  0.66326273  1
  Ba  Ba1  1  0.66403330  0.37571341  0.33756541  1
  Ba  Ba2  1  0.16796004  0.37564598  0.49543635  1
  Ba  Ba3  1  0.83171509  0.62385205  0.50528055  1
  Ba  Ba4  1  0.33132758  0.87581198  0.32971844  1
  Ba  Ba5  1  0.33602848  0.62410000  0.99621334  1
  Ba  Ba6  1  0.16509403  0.87529002  0.83095694  1
  Ba  Ba7  1  0.16929934  0.62503049  0.83228704  1
  Ba  Ba8  1  0.83403348  0.62450896  0.83839532  1
  Ba  Ba9  1  0.49854231  0.62447608  0.16665492  1
  Ba  Ba10  1  0.66651356  0.87621204  0.67255197  1
  Ba  Ba11  1  0.16624387  0.87627226  0.16349970  1
  Ba  Ba12  1  -0.00360276  0.12551389  0.33084630  1
  Ba  Ba13  1  0.66901771  0.87717150  0.00534460  1
  Ba  Ba14  1  0.00020490  0.12755298  0.99731396  1
  Ba  Ba15  1  0.83310239  0.12609629  0.50333216  1
  Ba  Ba16  1  0.17053204  0.62350816  0.49863978  1
  Sr  Sr17  1  0.00188565  0.62347733  0.99613892  1
  Sr  Sr18  1  0.00178303  0.37792272  -0.00098950  1
  Sr  Sr19  1  0.67007590  0.37474568  0.00724877  1
  Sr  Sr20  1  0.33534306  0.62545829  0.66548336  1
  Sr  Sr21  1  0.66682369  0.12755349  1.00433003  1
  La  La22  1  0.17044203  0.12649815  0.83128342  1
  La  La23  1  0.82969244  0.12482044  0.83789443  1
  La  La24  1  0.50180905  0.37461014  0.83285264  1
  La  La25  1  0.50354265  0.62581478  0.83657655  1
  La  La26  1  -0.00139309  0.62245554  0.33020598  1
  La  La27  1  0.82835922  0.12612426  0.17165478  1
  La  La28  1  -0.00204427  0.37424294  0.33416403  1
  La  La29  1  0.32886979  0.37714381  0.66558562  1
  Pr  Pr30  1  0.32939406  0.87295774  0.66496692  1
  Pr  Pr31  1  0.33441183  0.37829935  0.33260160  1
  Pr  Pr32  1  0.49789494  0.87831295  0.49885844  1
  Pr  Pr33  1  0.50120789  0.12514591  0.16623122  1
  Pr  Pr34  1  0.00636917  0.62584819  0.66416820  1
  Pr  Pr35  1  0.33143653  0.37591319  -0.00221824  1
  Pr  Pr36  1  0.33385125  0.12126465  0.99202489  1
  Pr  Pr37  1  0.00194424  0.86865579  -0.00079036  1
  Pr  Pr38  1  0.83640972  0.37522920  0.49932084  1
  Pr  Pr39  1  0.66421823  0.87424066  0.33938755  1
  Pr  Pr40  1  0.50206123  0.37529169  0.16025549  1
  Pr  Pr41  1  0.16925435  0.12378805  0.49842572  1
  Pr  Pr42  1  0.83984938  0.87635844  0.16680100  1
  Pr  Pr43  1  0.16156934  0.12342429  0.16495087  1
  Pr  Pr44  1  0.00415506  0.12437504  0.65971111  1
  Pr  Pr45  1  0.66393515  0.12400169  0.66870012  1
  Pr  Pr46  1  0.32826423  0.62439635  0.32627701  1
  Pr  Pr47  1  0.66373629  0.12638579  0.33319426  1
  Pr  Pr48  1  -0.00473449  0.87199642  0.66601413  1
  Pr  Pr49  1  0.33045549  0.12644039  0.32759951  1
  Pr  Pr50  1  0.83247715  0.87330956  0.49866180  1
  Pr  Pr51  1  0.16695672  0.62574799  0.16507442  1
  Pr  Pr52  1  0.66258073  0.62423896  0.33482450  1
  Pr  Pr53  1  0.83716217  0.37478538  0.84023538  1
  Pr  Pr54  1  0.82932102  0.62307529  0.17144454  1
  Pr  Pr55  1  0.67189952  0.37471359  0.67291369  1
  Pr  Pr56  1  0.50310448  0.12491221  0.50079918  1
  Pr  Pr57  1  0.83782626  0.37257567  0.16573901  1
  Pr  Pr58  1  0.49708105  0.87441712  0.83073633  1
  Pr  Pr59  1  0.83663082  0.87657283  0.83678141  1
  Pr  Pr60  1  -0.00034197  0.87455270  0.33669575  1
  Pr  Pr61  1  0.16658491  0.87509111  0.49429367  1
  Pr  Pr62  1  0.66658921  0.62303142  1.00109863  1
  Pr  Pr63  1  0.16092932  0.37612123  0.82924071  1
  Pr  Pr64  1  0.50346780  0.12335341  0.83668055  1
  Pr  Pr65  1  0.50120442  0.62567955  0.50169181  1
  Pr  Pr66  1  0.33196622  0.87122916  0.00126460  1
  Pr  Pr67  1  0.16497592  0.37240072  0.16052198  1
  Pr  Pr68  1  0.49755121  0.37294000  0.49875330  1
  Pr  Pr69  1  -0.00172341  0.37914147  0.66563034  1
  Pr  Pr70  1  0.66754740  0.62790158  0.66886643  1
  Pr  Pr71  1  0.49825337  0.87446044  0.16194967  1
  Mn  Mn72  1  -0.00157692  -0.00036572  0.16476241  1
  Mn  Mn73  1  0.00023961  -0.00036024  0.50002028  1
  Mn  Mn74  1  -0.00140779  0.00193221  0.82918900  1
  Mn  Mn75  1  -0.00060723  0.50124089  0.16448528  1
  Mn  Mn76  1  -0.00051856  0.49992721  0.49929989  1
  Mn  Mn77  1  0.00001751  0.49842345  0.83405133  1
  Mn  Mn78  1  0.33494462  0.00271559  0.16088318  1
  Mn  Mn79  1  0.33434754  0.00097083  0.49741445  1
  Mn  Mn80  1  0.33464486  0.00002270  0.82996506  1
  Mn  Mn81  1  0.33125995  0.49692354  0.16534015  1
  Mn  Mn82  1  0.33701766  0.50047250  0.49780731  1
  Mn  Mn83  1  0.33583846  0.49748213  0.83084660  1
  Mn  Mn84  1  0.66544165  -0.00007805  0.17257842  1
  Mn  Mn85  1  0.66667898  -0.00022569  0.50259682  1
  Mn  Mn86  1  0.66676528  0.00120278  0.83868953  1
  Mn  Mn87  1  0.66639493  0.49950386  0.16973381  1
  Mn  Mn88  1  0.66413449  0.49965131  0.50636717  1
  Mn  Mn89  1  0.66798130  0.49742796  0.83765360  1
  Mn  Mn90  1  -0.00080326  0.25096012  0.16427196  1
  Mn  Mn91  1  0.00098910  0.25013224  0.49917646  1
  Mn  Mn92  1  -0.00072429  0.25091694  0.82876917  1
  Mn  Mn93  1  -0.00172755  0.74708505  0.16553340  1
  Mn  Mn94  1  0.00006584  0.74933785  0.50004608  1
  Mn  Mn95  1  -0.00059661  0.75028005  0.83346366  1
  Mn  Mn96  1  0.33369573  0.24928925  0.16265408  1
  Mn  Mn97  1  0.33478799  0.25014974  0.49518719  1
  Mn  Mn98  1  0.33542963  0.25007922  0.83152194  1
  Mn  Mn99  1  0.33300445  0.74976385  0.16447966  1
  Mn  Mn100  1  0.33533773  0.75018141  0.49903025  1
  Mn  Mn101  1  0.33528844  0.75126540  0.83071594  1
  Mn  Mn102  1  0.66531020  0.25019981  0.16974333  1
  Mn  Mn103  1  0.66592070  0.25002093  0.50511842  1
  Mn  Mn104  1  0.66767739  0.25150836  0.83787055  1
  Mn  Mn105  1  0.66678004  0.75022942  0.17172246  1
  Mn  Mn106  1  0.66485849  0.75097197  0.50331627  1
  Mn  Mn107  1  0.66766848  0.75078952  0.83768733  1
  Mn  Mn108  1  0.16829499  0.24980219  -0.00333188  1
  Mn  Mn109  1  0.16677266  0.24977941  0.32788134  1
  Mn  Mn110  1  0.16628189  0.25055715  0.66400771  1
  Mn  Mn111  1  0.16690359  0.74944084  -0.00160051  1
  Mn  Mn112  1  0.16455704  0.74971026  0.33155687  1
  Mn  Mn113  1  0.16751959  0.75027156  0.66270148  1
  Mn  Mn114  1  0.49994686  0.24945658  -0.00026146  1
  Mn  Mn115  1  0.49715653  0.24927822  0.33218478  1
  Mn  Mn116  1  0.50280918  0.25174154  0.66557238  1
  Mn  Mn117  1  0.50273525  0.75073610  -0.00145927  1
  Mn  Mn118  1  0.49855583  0.75124675  0.33479768  1
  Mn  Mn119  1  0.49830541  0.74913403  0.66723283  1
  Mn  Mn120  1  0.83306150  0.25002849  0.00278834  1
  Mn  Mn121  1  0.83028200  0.25144934  0.33556176  1
  Mn  Mn122  1  0.83484431  0.25163341  0.67128515  1
  Mn  Mn123  1  0.83438277  0.74963298  0.00467116  1
  Mn  Mn124  1  0.83180678  0.74868355  0.33462301  1
  Mn  Mn125  1  0.83340197  0.74995287  0.66989280  1
  Mn  Mn126  1  0.16656306  0.00151684  -0.00351106  1
  Mn  Mn127  1  0.16488891  0.00061877  0.33101839  1
  Mn  Mn128  1  0.16641037  0.00011810  0.66266464  1
  Mn  Mn129  1  0.16704031  0.49789148  -0.00230144  1
  Mn  Mn130  1  0.16529098  0.50018465  0.32741049  1
  Mn  Mn131  1  0.16764217  0.49935006  0.66482197  1
  Mn  Mn132  1  0.50093822  0.00122014  -0.00020836  1
  Mn  Mn133  1  0.49885551  0.00108000  0.33220590  1
  Mn  Mn134  1  0.49961056  0.00054765  0.66688234  1
  Mn  Mn135  1  0.50232479  0.49789193  -0.00143877  1
  Mn  Mn136  1  0.49812638  0.49920566  0.33462941  1
  Mn  Mn137  1  0.50174019  0.49931127  0.66646512  1
  Mn  Mn138  1  0.83427332  0.00115076  0.00280265  1
  Mn  Mn139  1  0.82951937  -0.00214887  0.33467243  1
  Mn  Mn140  1  0.83461789  0.00047476  0.67017199  1
  Mn  Mn141  1  0.83421632  0.49854531  0.00508026  1
  Mn  Mn142  1  0.83183805  0.50026514  0.33606288  1
  Mn  Mn143  1  0.83294214  0.49922665  0.67079418  1
  O  O144  1  0.17520317  0.12758660  0.02103408  1
  O  O145  1  0.17126999  0.12620385  0.35380102  1
  O  O146  1  0.16022813  0.12637164  0.68654051  1
  O  O147  1  0.16672709  0.62072430  0.01930294  1
  O  O148  1  0.17082044  0.62519168  0.34250807  1
  O  O149  1  0.16075251  0.62334412  0.67493326  1
  O  O150  1  0.49032914  0.12642862  0.02289193  1
  O  O151  1  0.49503140  0.12517909  0.35849450  1
  O  O152  1  0.50481354  0.12916725  0.69259757  1
  O  O153  1  0.50501776  0.62472850  0.00964464  1
  O  O154  1  0.49807805  0.62806485  0.35719819  1
  O  O155  1  0.49851726  0.62222238  0.69371338  1
  O  O156  1  0.83462319  0.12516823  0.02721579  1
  O  O157  1  0.82496707  0.12386955  0.34542344  1
  O  O158  1  0.84261752  0.12962017  0.69392339  1
  O  O159  1  0.83370669  0.62392088  0.02708168  1
  O  O160  1  0.83835644  0.62495366  0.34985739  1
  O  O161  1  0.83072034  0.62418321  0.68219433  1
  O  O162  1  0.16887817  0.37450488  0.30468633  1
  O  O163  1  0.16896267  0.37346696  0.65248336  1
  O  O164  1  0.17008042  0.37104090  0.97437663  1
  O  O165  1  0.15769922  0.87394094  0.32000304  1
  O  O166  1  0.16814698  0.87707108  0.64006283  1
  O  O167  1  0.16374187  0.87866893  0.98852017  1
  O  O168  1  0.49324039  0.36995591  0.30356139  1
  O  O169  1  0.51181122  0.37488147  0.64002968  1
  O  O170  1  0.50162725  0.37133132  0.97886178  1
  O  O171  1  0.50743193  0.87788133  0.30567777  1
  O  O172  1  0.49701451  0.87348515  0.64228601  1
  O  O173  1  0.49849343  0.87721723  0.97645000  1
  O  O174  1  0.83422368  0.37817162  0.31218103  1
  O  O175  1  0.82789874  0.37456333  0.64240027  1
  O  O176  1  0.82695560  0.37303143  0.98384700  1
  O  O177  1  0.82742955  0.87140616  0.31044194  1
  O  O178  1  0.83881851  0.87303448  0.64177319  1
  O  O179  1  0.83625234  0.87774081  0.98063105  1
  O  O180  1  0.00530019  0.37751179  0.19026571  1
  O  O181  1  -0.00493206  0.37393096  0.51958211  1
  O  O182  1  0.00717652  0.37306618  0.85088872  1
  O  O183  1  -0.00480203  0.87241538  0.19251882  1
  O  O184  1  0.00017147  0.87475018  0.52159570  1
  O  O185  1  -0.00449557  0.87918609  0.85558762  1
  O  O186  1  0.33059901  0.37086410  0.19183426  1
  O  O187  1  0.34055422  0.37379577  0.52019352  1
  O  O188  1  0.33702178  0.37094366  0.85330290  1
  O  O189  1  0.34075095  0.87727258  0.17401799  1
  O  O190  1  0.33591222  0.87736691  0.52116489  1
  O  O191  1  0.34199450  0.87984091  0.85562434  1
  O  O192  1  0.65778725  0.37384836  0.18115398  1
  O  O193  1  0.65704681  0.37597366  0.52910572  1
  O  O194  1  0.66426550  0.37353614  0.85862864  1
  O  O195  1  0.65961666  0.87551092  0.19497491  1
  O  O196  1  0.66277380  0.87641894  0.51656797  1
  O  O197  1  0.66225735  0.87936840  0.84903804  1
  O  O198  1  -0.00660685  0.12608588  0.15503383  1
  O  O199  1  0.00428964  0.12559445  0.48654029  1
  O  O200  1  -0.00713511  0.12733220  0.80304414  1
  O  O201  1  -0.01181520  0.62348660  0.14442596  1
  O  O202  1  -0.00134807  0.62569291  0.47683603  1
  O  O203  1  -0.00174969  0.62177981  0.80910153  1
  O  O204  1  0.34198135  0.12794334  0.13411541  1
  O  O205  1  0.33614749  0.12588548  0.47295263  1
  O  O206  1  0.33785213  0.12593365  0.81780864  1
  O  O207  1  0.32547206  0.62235748  0.15382139  1
  O  O208  1  0.34418616  0.62402509  0.47141556  1
  O  O209  1  0.34406162  0.62213663  0.81585008  1
  O  O210  1  0.67059344  0.12470765  0.15410395  1
  O  O211  1  0.66185687  0.12227743  0.47648525  1
  O  O212  1  0.66792934  0.12773030  0.81157261  1
  O  O213  1  0.67238995  0.62499574  0.14578511  1
  O  O214  1  0.66061276  0.62665671  0.47820052  1
  O  O215  1  0.66338679  0.62062339  0.81178662  1
  O  O216  1  0.08498301  0.01599128  0.24365379  1
  O  O217  1  0.08961229  0.02042885  0.57592608  1
  O  O218  1  0.08729427  0.02092617  0.90265119  1
  O  O219  1  0.08061414  0.52556974  0.24435235  1
  O  O220  1  0.07825692  0.51043479  0.58586479  1
  O  O221  1  0.08438223  0.50743184  0.91558351  1
  O  O222  1  0.41647893  0.02341172  0.24628534  1
  O  O223  1  0.42436835  0.01510704  0.57537289  1
  O  O224  1  0.41972696  0.02031380  0.91327755  1
  O  O225  1  0.40441672  0.51207152  0.25641866  1
  O  O226  1  0.42557607  0.51453054  0.57566164  1
  O  O227  1  0.42597067  0.50452331  0.90573880  1
  O  O228  1  0.73690323  0.01298125  0.26474586  1
  O  O229  1  0.74786450  0.01832429  0.59565271  1
  O  O230  1  0.74916593  0.01971863  0.92404758  1
  O  O231  1  0.74695861  0.52229304  0.25739287  1
  O  O232  1  0.73979828  0.51218985  0.59847580  1
  O  O233  1  0.74496564  0.51458639  0.93061110  1
  O  O234  1  0.24970640  0.22189837  0.24068364  1
  O  O235  1  0.24920328  0.23482272  0.57368995  1
  O  O236  1  0.25502362  0.22963451  0.91860131  1
  O  O237  1  0.24743081  0.73356764  0.24775818  1
  O  O238  1  0.25788286  0.74281373  0.58522571  1
  O  O239  1  0.25754301  0.74793330  0.91615264  1
  O  O240  1  0.57955615  0.22557381  0.25257296  1
  O  O241  1  0.58544514  0.22261862  0.58602631  1
  O  O242  1  0.57942401  0.22960293  0.91363785  1
  O  O243  1  0.58897590  0.73262595  0.26086006  1
  O  O244  1  0.58250501  0.72657043  0.58872161  1
  O  O245  1  0.58903170  0.72979688  0.92196479  1
  O  O246  1  0.90894755  0.24480020  0.24424438  1
  O  O247  1  0.92245036  0.24064215  0.59179368  1
  O  O248  1  0.91146214  0.24056746  0.90774126  1
  O  O249  1  0.91380286  0.73170319  0.24944078  1
  O  O250  1  0.92550297  0.73564436  0.59154708  1
  O  O251  1  0.91939268  0.74417848  0.92206325  1
  O  O252  1  0.08825442  0.48323479  0.08737485  1
  O  O253  1  0.07803212  0.48695582  0.40294655  1
  O  O254  1  0.08137376  0.48066155  0.74780534  1
  O  O255  1  0.08222488  0.99266869  0.07668793  1
  O  O256  1  0.07875097  0.97903849  0.41671688  1
  O  O257  1  0.07376221  0.98706999  0.73545105  1
  O  O258  1  0.41557798  0.47662963  0.08356373  1
  O  O259  1  0.41804420  0.47396312  0.41538092  1
  O  O260  1  0.41632528  0.47247791  0.74189031  1
  O  O261  1  0.41911446  0.97862056  0.07922998  1
  O  O262  1  0.42127272  0.98297289  0.41732510  1
  O  O263  1  0.41542693  0.97761601  0.74632405  1
  O  O264  1  0.75670710  0.48481254  0.09737035  1
  O  O265  1  0.75177680  0.48349087  0.43083539  1
  O  O266  1  0.75269837  0.47504217  0.75860141  1
  O  O267  1  0.75811232  0.98692964  0.10269548  1
  O  O268  1  0.75213059  0.97591513  0.42295940  1
  O  O269  1  0.75661627  0.99025626  0.76388794  1
  O  O270  1  0.25223878  0.27405105  0.08163242  1
  O  O271  1  0.25551270  0.26364884  0.40193556  1
  O  O272  1  0.24686573  0.26658919  0.75207428  1
  O  O273  1  0.25326751  0.76224059  0.07874205  1
  O  O274  1  0.24653613  0.76480223  0.42208946  1
  O  O275  1  0.25316707  0.76426635  0.74448094  1
  O  O276  1  0.57766431  0.25966556  0.08927695  1
  O  O277  1  0.57359495  0.26160712  0.42252442  1
  O  O278  1  0.58768842  0.27024551  0.74973726  1
  O  O279  1  0.58077093  0.76545444  0.09260282  1
  O  O280  1  0.58034203  0.77149401  0.41944015  1
  O  O281  1  0.57283318  0.76093936  0.75787403  1
  O  O282  1  0.91757734  0.27196048  0.08373698  1
  O  O283  1  0.91553607  0.27046286  0.41796568  1
  O  O284  1  0.91614383  0.28199761  0.74998513  1
  O  O285  1  0.91781952  0.77521705  0.08469154  1
  O  O286  1  0.91429904  0.77448279  0.41766419  1
  O  O287  1  0.91416373  0.77349668  0.75344422  1
  O  O288  1  0.25090388  0.47286762  0.08141627  1
  O  O289  1  0.25774667  0.48866385  0.40508968  1
  O  O290  1  0.25013513  0.47946928  0.75094381  1
  O  O291  1  0.26041296  0.98993669  0.07200967  1
  O  O292  1  0.24383244  0.98828770  0.41929558  1
  O  O293  1  0.25212091  0.98617942  0.74229455  1
  O  O294  1  0.58321179  0.48510320  0.08575718  1
  O  O295  1  0.57677231  0.48757294  0.42867310  1
  O  O296  1  0.58376666  0.47762352  0.75172651  1
  O  O297  1  0.57761890  0.98984880  0.09396881  1
  O  O298  1  0.58256903  0.98138039  0.41476832  1
  O  O299  1  0.57625455  0.99196310  0.75831108  1
  O  O300  1  0.91630884  0.47564820  0.08738980  1
  O  O301  1  0.91557084  0.47810312  0.41696752  1
  O  O302  1  0.91584056  0.47437652  0.75167760  1
  O  O303  1  0.92124883  0.97473837  0.07948010  1
  O  O304  1  0.91459782  0.97558474  0.41615837  1
  O  O305  1  0.91536098  0.97301005  0.74999666  1
  O  O306  1  0.08747373  0.26498093  0.08163412  1
  O  O307  1  0.07969767  0.26642745  0.40671375  1
  O  O308  1  0.07843032  0.26988850  0.74247173  1
  O  O309  1  0.07800504  0.75894447  0.08020708  1
  O  O310  1  0.07778449  0.76816663  0.41290541  1
  O  O311  1  0.07461163  0.76157933  0.73908671  1
  O  O312  1  0.41560795  0.27735385  0.08251018  1
  O  O313  1  0.41385090  0.27361279  0.41016075  1
  O  O314  1  0.41922083  0.27437465  0.74365977  1
  O  O315  1  0.41803568  0.76865395  0.07777176  1
  O  O316  1  0.42200139  0.77198404  0.42140823  1
  O  O317  1  0.41272651  0.77491689  0.74339808  1
  O  O318  1  0.75442543  0.26442876  0.09564168  1
  O  O319  1  0.75246423  0.26879781  0.43101060  1
  O  O320  1  0.75472810  0.27221814  0.75938280  1
  O  O321  1  0.75832954  0.76474176  0.09913780  1
  O  O322  1  0.74865526  0.76993581  0.41897045  1
  O  O323  1  0.75307845  0.76515695  0.76051129  1
  O  O324  1  0.25155002  0.02430171  0.24204564  1
  O  O325  1  0.24780527  0.01604468  0.57617588  1
  O  O326  1  0.25146252  0.01992543  0.91137689  1
  O  O327  1  0.24275088  0.51622881  0.24138734  1
  O  O328  1  0.26005418  0.50750676  0.58449820  1
  O  O329  1  0.25497536  0.50110246  0.91617305  1
  O  O330  1  0.57972419  0.02767432  0.25253752  1
  O  O331  1  0.58359021  0.02230096  0.58542923  1
  O  O332  1  0.58214664  0.02391797  0.91955473  1
  O  O333  1  0.58462829  0.51674261  0.25821431  1
  O  O334  1  0.58449739  0.52993160  0.58941386  1
  O  O335  1  0.58643900  0.51871405  0.91633903  1
  O  O336  1  0.90254420  0.00810200  0.24364134  1
  O  O337  1  0.92618918  0.01263817  0.58952932  1
  O  O338  1  0.91092312  0.01604163  0.90716475  1
  O  O339  1  0.91652521  0.51573045  0.24897849  1
  O  O340  1  0.91846725  0.50955398  0.59269012  1
  O  O341  1  0.91624153  0.50271012  0.91871462  1
  O  O342  1  0.08934655  0.23563818  0.24018930  1
  O  O343  1  0.08668918  0.22997868  0.57807920  1
  O  O344  1  0.09235131  0.23408532  0.90175493  1
  O  O345  1  0.07870840  0.72488947  0.24608131  1
  O  O346  1  0.08390806  0.73897925  0.57961245  1
  O  O347  1  0.08111444  0.74145430  0.91589849  1
  O  O348  1  0.41460311  0.22447044  0.24698602  1
  O  O349  1  0.42773297  0.23735951  0.57285202  1
  O  O350  1  0.41928912  0.23142458  0.91453371  1
  O  O351  1  0.41283287  0.73636449  0.25442197  1
  O  O352  1  0.42176366  0.73080385  0.57936904  1
  O  O353  1  0.42826337  0.74199210  0.90367562  1
  O  O354  1  0.74286753  0.23370756  0.25736972  1
  O  O355  1  0.74412624  0.23424118  0.60071882  1
  O  O356  1  0.74991860  0.23070922  0.92100954  1
  O  O357  1  0.74690433  0.72519367  0.25683819  1
  O  O358  1  0.74626037  0.73746349  0.59125343  1
  O  O359  1  0.74720732  0.73387918  0.93162099  1
