# generated using pymatgen
data_Ba17Sr5La8Pr42Mn72O216
_symmetry_space_group_name_H-M   'P 1'
_cell_length_a   16.68272347
_cell_length_b   15.70071550
_cell_length_c   16.82360743
_cell_angle_alpha   90.00308965
_cell_angle_beta   89.99658791
_cell_angle_gamma   90.00535150
_symmetry_Int_Tables_number   1
_chemical_formula_structural   Ba17Sr5La8Pr42Mn72O216
_chemical_formula_sum   'Ba17 Sr5 La8 Pr42 Mn72 O216'
_cell_volume   4406.61915142
_cell_formula_units_Z   1
loop_
 _symmetry_equiv_pos_site_id
 _symmetry_equiv_pos_as_xyz
  1  'x, y, z'
loop_
 _atom_site_type_symbol
 _atom_site_label
 _atom_site_symmetry_multiplicity
 _atom_site_fract_x
 _atom_site_fract_y
 _atom_site_fract_z
 _atom_site_occupancy
  Ba  Ba0  1  0.83519806  0.37690818  0.49538020  1
  Ba  Ba1  1  0.83230564  0.87497212  0.82899138  1
  Ba  Ba2  1  0.83426361  0.62402824  0.82999442  1
  Ba  Ba3  1  0.83368014  0.87287230  0.49634994  1
  Ba  Ba4  1  0.49924553  0.12608727  0.50058987  1
  Ba  Ba5  1  0.49650576  0.87578290  0.50221237  1
  Ba  Ba6  1  0.49663202  0.37426295  0.50110859  1
  Ba  Ba7  1  -0.00003506  0.12535767  0.33008165  1
  Ba  Ba8  1  0.83512090  0.87532055  0.16334679  1
  Ba  Ba9  1  0.50307015  0.62473200  0.16643350  1
  Ba  Ba10  1  0.66356152  0.12513108  1.00103895  1
  Ba  Ba11  1  0.66841858  0.87628259  -0.00066194  1
  Ba  Ba12  1  0.16908540  0.62419537  0.17131354  1
  Ba  Ba13  1  0.83517662  0.37374256  0.16233345  1
  Ba  Ba14  1  0.33557978  0.62522719  1.00241098  1
  Ba  Ba15  1  0.33219695  0.87586401  0.00227913  1
  Ba  Ba16  1  0.83374120  0.37409855  0.82850915  1
  Sr  Sr17  1  0.33288813  0.87186830  0.33691051  1
  Sr  Sr18  1  0.66414558  0.12611789  0.33310028  1
  Sr  Sr19  1  0.49693754  0.37464907  0.83313151  1
  Sr  Sr20  1  0.33297992  0.37576331  0.00288492  1
  Sr  Sr21  1  0.66230537  0.87607577  0.66841275  1
  La  La22  1  0.00252545  0.87483918  0.66918098  1
  La  La23  1  0.66622248  0.12539075  0.66307565  1
  La  La24  1  0.16387478  0.12363387  0.50400409  1
  La  La25  1  0.00483065  0.37551746  0.66895836  1
  La  La26  1  0.17092312  0.37612003  0.83566847  1
  La  La27  1  0.49707618  0.12544156  0.83477105  1
  La  La28  1  -0.00635768  0.12657787  0.99801327  1
  La  La29  1  0.16772301  0.87625796  0.16904602  1
  Pr  Pr30  1  0.50160733  0.12118258  0.17140988  1
  Pr  Pr31  1  -0.00200228  0.62421795  0.99718278  1
  Pr  Pr32  1  0.82354753  0.12365325  0.83124365  1
  Pr  Pr33  1  0.66613831  0.37555864  0.33595756  1
  Pr  Pr34  1  0.82149757  0.12361074  0.16877773  1
  Pr  Pr35  1  0.66436850  0.37686690  0.00119835  1
  Pr  Pr36  1  0.16721372  0.87704604  0.50040210  1
  Pr  Pr37  1  0.16736680  0.37227215  0.16557085  1
  Pr  Pr38  1  0.33001254  0.12674628  0.66445819  1
  Pr  Pr39  1  0.00130616  0.37865526  -0.00030327  1
  Pr  Pr40  1  0.82439010  0.12450340  0.49597114  1
  Pr  Pr41  1  -0.00299476  0.62492872  0.66442738  1
  Pr  Pr42  1  0.49901369  0.87673378  0.83182276  1
  Pr  Pr43  1  0.83258071  0.62496126  0.50063404  1
  Pr  Pr44  1  0.16914376  0.87425577  0.83474068  1
  Pr  Pr45  1  0.33945087  0.12483244  0.33551094  1
  Pr  Pr46  1  0.50588650  0.62647487  0.50140075  1
  Pr  Pr47  1  0.67256867  0.62363661  0.33233322  1
  Pr  Pr48  1  0.50687984  0.62528412  0.84204580  1
  Pr  Pr49  1  0.17133308  0.12414123  0.17169453  1
  Pr  Pr50  1  0.16721553  0.62522470  0.84416780  1
  Pr  Pr51  1  0.83338261  0.62578626  0.16130684  1
  Pr  Pr52  1  0.33543207  0.37185332  0.67260130  1
  Pr  Pr53  1  -0.00326724  0.62501021  0.32954087  1
  Pr  Pr54  1  0.00455826  0.37608049  0.33385776  1
  Pr  Pr55  1  0.16923610  0.62672107  0.50516357  1
  Pr  Pr56  1  0.50213029  0.87566246  0.16762276  1
  Pr  Pr57  1  0.50094445  0.37351480  0.16424553  1
  Pr  Pr58  1  0.16353035  0.12497171  0.83817482  1
  Pr  Pr59  1  0.16711109  0.37257655  0.50153431  1
  Pr  Pr60  1  0.67316804  0.62428303  0.66583447  1
  Pr  Pr61  1  0.33103276  0.38027690  0.33613097  1
  Pr  Pr62  1  0.34386433  0.62620282  0.32932842  1
  Pr  Pr63  1  0.67212515  0.62509736  0.99716399  1
  Pr  Pr64  1  0.66133205  0.37373747  0.66974408  1
  Pr  Pr65  1  0.33900846  0.62357925  0.66935084  1
  Pr  Pr66  1  -0.01025140  0.12535273  0.65841123  1
  Pr  Pr67  1  0.32979045  0.12633796  1.00050666  1
  Pr  Pr68  1  0.66432840  0.87442943  0.33826661  1
  Pr  Pr69  1  0.00507662  0.87412137  0.33466914  1
  Pr  Pr70  1  0.00059633  0.87172100  0.00057297  1
  Pr  Pr71  1  0.33435165  0.87858560  0.67185432  1
  Mn  Mn72  1  0.00191604  0.00131971  0.16368374  1
  Mn  Mn73  1  -0.00064022  0.00008133  0.49861236  1
  Mn  Mn74  1  0.00122314  0.00332876  0.83050157  1
  Mn  Mn75  1  0.00160402  0.49982390  0.16632278  1
  Mn  Mn76  1  0.00421689  0.50123847  0.49807073  1
  Mn  Mn77  1  0.00357486  0.49921827  0.83178908  1
  Mn  Mn78  1  0.33408446  0.00008200  0.16988100  1
  Mn  Mn79  1  0.33038838  -0.00011029  0.50193440  1
  Mn  Mn80  1  0.33131616  0.00227707  0.83477374  1
  Mn  Mn81  1  0.33459281  0.49835739  0.16969816  1
  Mn  Mn82  1  0.33149044  0.50219391  0.50220800  1
  Mn  Mn83  1  0.33333770  0.49920787  0.83363939  1
  Mn  Mn84  1  0.66592826  -0.00051705  0.16928043  1
  Mn  Mn85  1  0.66587549  -0.00042578  0.49939731  1
  Mn  Mn86  1  0.66337539  0.00043266  0.83043545  1
  Mn  Mn87  1  0.66783574  0.49971338  0.16654227  1
  Mn  Mn88  1  0.66563033  0.49986719  0.49944674  1
  Mn  Mn89  1  0.66464693  0.49774872  0.83258992  1
  Mn  Mn90  1  0.00202418  0.24916785  0.16341545  1
  Mn  Mn91  1  -0.00015018  0.25012063  0.49816223  1
  Mn  Mn92  1  0.00154320  0.24736767  0.82984611  1
  Mn  Mn93  1  0.00148961  0.74921472  0.16659198  1
  Mn  Mn94  1  0.00325830  0.74887566  0.49837126  1
  Mn  Mn95  1  0.00277813  0.75065315  0.83219027  1
  Mn  Mn96  1  0.33455132  0.24969075  0.16806712  1
  Mn  Mn97  1  0.33025256  0.25196376  0.50102937  1
  Mn  Mn98  1  0.33142079  0.24938610  0.83525878  1
  Mn  Mn99  1  0.33458722  0.75113881  0.17080578  1
  Mn  Mn100  1  0.33195111  0.74661436  0.50241057  1
  Mn  Mn101  1  0.33297920  0.75033198  0.83206479  1
  Mn  Mn102  1  0.66494382  0.25183369  0.16680151  1
  Mn  Mn103  1  0.66624853  0.25127508  0.49864007  1
  Mn  Mn104  1  0.66311124  0.25080755  0.83257357  1
  Mn  Mn105  1  0.66811080  0.74864145  0.16799148  1
  Mn  Mn106  1  0.66563778  0.74941955  0.50000912  1
  Mn  Mn107  1  0.66432940  0.74976888  0.83158620  1
  Mn  Mn108  1  0.16492078  0.24941102  0.00215401  1
  Mn  Mn109  1  0.16977684  0.25035825  0.33431334  1
  Mn  Mn110  1  0.16570906  0.24946816  0.66943010  1
  Mn  Mn111  1  0.16606171  0.75081189  0.00283703  1
  Mn  Mn112  1  0.16741449  0.74929502  0.33851871  1
  Mn  Mn113  1  0.16833862  0.74837434  0.67049181  1
  Mn  Mn114  1  0.49700718  0.25079143  0.00060416  1
  Mn  Mn115  1  0.49941286  0.25085699  0.33106798  1
  Mn  Mn116  1  0.49841805  0.25082253  0.66944913  1
  Mn  Mn117  1  0.50173772  0.75159724  0.00135954  1
  Mn  Mn118  1  0.50101290  0.75007956  0.33557571  1
  Mn  Mn119  1  0.49829647  0.74675537  0.66951814  1
  Mn  Mn120  1  0.83377519  0.24959997  -0.00406220  1
  Mn  Mn121  1  0.83344734  0.25055345  0.32992601  1
  Mn  Mn122  1  0.83310139  0.25099011  0.66220868  1
  Mn  Mn123  1  0.83509844  0.74991545  -0.00275349  1
  Mn  Mn124  1  0.83401047  0.74922508  0.32981975  1
  Mn  Mn125  1  0.83356280  0.74986649  0.66304278  1
  Mn  Mn126  1  0.16341307  0.00142274  0.00263539  1
  Mn  Mn127  1  0.16941713  0.00073947  0.33570811  1
  Mn  Mn128  1  0.16564398  0.00025716  0.66992201  1
  Mn  Mn129  1  0.16728718  0.49870960  0.00245386  1
  Mn  Mn130  1  0.16726957  0.50025701  0.33818242  1
  Mn  Mn131  1  0.16842834  0.50196020  0.66988491  1
  Mn  Mn132  1  0.49727486  0.00100993  0.00184110  1
  Mn  Mn133  1  0.49974178  -0.00003866  0.33422290  1
  Mn  Mn134  1  0.49860090  0.00040669  0.66866558  1
  Mn  Mn135  1  0.50039378  0.49759205  -0.00019704  1
  Mn  Mn136  1  0.50099665  0.49844055  0.33410470  1
  Mn  Mn137  1  0.49893874  0.50139079  0.66928120  1
  Mn  Mn138  1  0.83499065  0.00197691  -0.00243987  1
  Mn  Mn139  1  0.83255638  -0.00017136  0.33093744  1
  Mn  Mn140  1  0.83268861  0.00023109  0.66321641  1
  Mn  Mn141  1  0.83450517  0.49770896  -0.00347763  1
  Mn  Mn142  1  0.83523744  0.50034515  0.32931588  1
  Mn  Mn143  1  0.83417803  0.49923877  0.66206724  1
  O  O144  1  0.16522099  0.12596677  0.02708054  1
  O  O145  1  0.17311034  0.12790788  0.36055317  1
  O  O146  1  0.17170784  0.12581796  0.69545429  1
  O  O147  1  0.15841715  0.62378074  0.01217794  1
  O  O148  1  0.15768803  0.62439288  0.36156842  1
  O  O149  1  0.16548571  0.62747604  0.70088611  1
  O  O150  1  0.49037890  0.12666414  0.02675235  1
  O  O151  1  0.49756119  0.12662745  0.34385528  1
  O  O152  1  0.49758668  0.12662794  0.68759059  1
  O  O153  1  0.50570825  0.62334873  0.00916635  1
  O  O154  1  0.49761995  0.62261225  0.35520111  1
  O  O155  1  0.49392447  0.62260292  0.69666613  1
  O  O156  1  0.83906707  0.12705978  0.02132688  1
  O  O157  1  0.83226867  0.12671230  0.35225895  1
  O  O158  1  0.83727422  0.12795857  0.68678953  1
  O  O159  1  0.83575818  0.62191873  0.01557397  1
  O  O160  1  0.83688695  0.62432645  0.35683985  1
  O  O161  1  0.83447902  0.62409366  0.67377086  1
  O  O162  1  0.17089452  0.37383867  0.30945639  1
  O  O163  1  0.16730956  0.37435567  0.64339481  1
  O  O164  1  0.16395526  0.37224599  0.97830160  1
  O  O165  1  0.16496027  0.87421143  0.31378608  1
  O  O166  1  0.16840091  0.87256801  0.64232657  1
  O  O167  1  0.15993289  0.87890582  0.97724210  1
  O  O168  1  0.49849204  0.37450411  0.31062665  1
  O  O169  1  0.49522782  0.37733625  0.65613583  1
  O  O170  1  0.50577377  0.37401942  0.98051371  1
  O  O171  1  0.50589683  0.87532680  0.31459691  1
  O  O172  1  0.49222000  0.87275852  0.65922591  1
  O  O173  1  0.49920690  0.87756476  0.97630385  1
  O  O174  1  0.83366713  0.37768687  0.31804104  1
  O  O175  1  0.83498844  0.37665220  0.65197543  1
  O  O176  1  0.83681297  0.37363267  0.98483879  1
  O  O177  1  0.82899569  0.87197250  0.31893500  1
  O  O178  1  0.83970112  0.87216875  0.65416664  1
  O  O179  1  0.84351018  0.87725150  0.98697322  1
  O  O180  1  0.00405287  0.37506876  0.19042106  1
  O  O181  1  0.00635164  0.37751434  0.52602788  1
  O  O182  1  0.00426930  0.37147085  0.85526559  1
  O  O183  1  0.00210352  0.87514522  0.19102641  1
  O  O184  1  0.00552067  0.87511191  0.52614700  1
  O  O185  1  0.00384686  0.87932628  0.85593968  1
  O  O186  1  0.33005045  0.37142637  0.19336169  1
  O  O187  1  0.32577476  0.37838724  0.52958940  1
  O  O188  1  0.32928643  0.37185933  0.85262139  1
  O  O189  1  0.32968810  0.87828863  0.18785971  1
  O  O190  1  0.32557826  0.86928500  0.52866477  1
  O  O191  1  0.33708008  0.87830142  0.84571004  1
  O  O192  1  0.66284465  0.37610370  0.19220116  1
  O  O193  1  0.66747489  0.37766031  0.52451081  1
  O  O194  1  0.66369387  0.37357535  0.85561186  1
  O  O195  1  0.66466630  0.87387745  0.19315988  1
  O  O196  1  0.66685577  0.87157116  0.51530125  1
  O  O197  1  0.65715825  0.87494516  0.84000948  1
  O  O198  1  0.01863525  0.12589568  0.14173445  1
  O  O199  1  0.00953349  0.12396202  0.48745348  1
  O  O200  1  0.01476869  0.12539678  0.80074007  1
  O  O201  1  0.00180203  0.62331728  0.14212241  1
  O  O202  1  0.01451989  0.62342963  0.47186943  1
  O  O203  1  0.01456417  0.62433678  0.80968727  1
  O  O204  1  0.33562832  0.12661757  0.14310685  1
  O  O205  1  0.32359605  0.12899728  0.47993956  1
  O  O206  1  0.32485291  0.12503207  0.80825348  1
  O  O207  1  0.33480987  0.62398327  0.16290463  1
  O  O208  1  0.32192566  0.62272589  0.47338446  1
  O  O209  1  0.32278731  0.62492550  0.81282452  1
  O  O210  1  0.66113124  0.12783132  0.15812852  1
  O  O211  1  0.66984724  0.12726047  0.48502458  1
  O  O212  1  0.66349678  0.12695608  0.81039690  1
  O  O213  1  0.66932767  0.62202592  0.14178214  1
  O  O214  1  0.66022303  0.62335004  0.47716118  1
  O  O215  1  0.65634096  0.62263734  0.81184002  1
  O  O216  1  0.09247206  0.01154659  0.24569126  1
  O  O217  1  0.08030149  0.01762993  0.59299764  1
  O  O218  1  0.07849211  0.02459030  0.91809400  1
  O  O219  1  0.07821784  0.51112361  0.26081268  1
  O  O220  1  0.08518975  0.52295648  0.58828494  1
  O  O221  1  0.08246566  0.51509787  0.91788999  1
  O  O222  1  0.41680638  0.01986084  0.25025852  1
  O  O223  1  0.40618915  0.01340894  0.59401170  1
  O  O224  1  0.40808301  0.02633361  0.92001980  1
  O  O225  1  0.41828004  0.50856337  0.25365905  1
  O  O226  1  0.41839048  0.52648979  0.57868262  1
  O  O227  1  0.42175196  0.51326828  0.90687565  1
  O  O228  1  0.74782740  0.01776619  0.25186039  1
  O  O229  1  0.74979545  0.02149925  0.58256088  1
  O  O230  1  0.75065292  0.01409893  0.91006702  1
  O  O231  1  0.75474782  0.52425584  0.24414125  1
  O  O232  1  0.75027128  0.52248785  0.57566586  1
  O  O233  1  0.74636257  0.51294504  0.91690345  1
  O  O234  1  0.25534624  0.22598782  0.25379776  1
  O  O235  1  0.24206310  0.22852403  0.58483822  1
  O  O236  1  0.24459717  0.22736532  0.91737557  1
  O  O237  1  0.25506877  0.73534160  0.26701996  1
  O  O238  1  0.25278196  0.72219427  0.59221005  1
  O  O239  1  0.24536015  0.74085847  0.91268468  1
  O  O240  1  0.57571435  0.23970004  0.24265807  1
  O  O241  1  0.58773580  0.24071708  0.58895246  1
  O  O242  1  0.57177550  0.23283954  0.91211230  1
  O  O243  1  0.59473313  0.73596396  0.26235835  1
  O  O244  1  0.58513280  0.72601289  0.59193273  1
  O  O245  1  0.58883060  0.73052437  0.92190889  1
  O  O246  1  0.91284038  0.23079154  0.23365326  1
  O  O247  1  0.91121553  0.22840732  0.57440616  1
  O  O248  1  0.91492576  0.22347176  0.90100265  1
  O  O249  1  0.91521264  0.72555709  0.24277269  1
  O  O250  1  0.92038859  0.72493513  0.57347922  1
  O  O251  1  0.92359430  0.73491155  0.91645797  1
  O  O252  1  0.08514886  0.47528473  0.08612318  1
  O  O253  1  0.08719715  0.47067834  0.42046750  1
  O  O254  1  0.08836881  0.47567441  0.75301217  1
  O  O255  1  0.08458596  0.97353995  0.08435145  1
  O  O256  1  0.08545019  0.97956150  0.41974151  1
  O  O257  1  0.09031180  0.97575736  0.75583776  1
  O  O258  1  0.41965768  0.48004430  0.08334813  1
  O  O259  1  0.40658624  0.48719550  0.41250089  1
  O  O260  1  0.40663957  0.48606903  0.74178855  1
  O  O261  1  0.42090016  0.98396004  0.09252905  1
  O  O262  1  0.41179048  0.99296093  0.41328611  1
  O  O263  1  0.41811588  0.98720059  0.75591786  1
  O  O264  1  0.74363317  0.48675999  0.07572126  1
  O  O265  1  0.74474273  0.49049377  0.40583699  1
  O  O266  1  0.73921740  0.48861619  0.74094208  1
  O  O267  1  0.75198915  0.99851674  0.08945965  1
  O  O268  1  0.74865018  0.99012693  0.41598846  1
  O  O269  1  0.74924921  0.99692241  0.74341615  1
  O  O270  1  0.24795573  0.26462667  0.09023872  1
  O  O271  1  0.24897930  0.27707464  0.41794879  1
  O  O272  1  0.25189548  0.27082270  0.74793862  1
  O  O273  1  0.24547325  0.76379764  0.09213437  1
  O  O274  1  0.24075594  0.76512677  0.43161315  1
  O  O275  1  0.24785638  0.77575156  0.75187144  1
  O  O276  1  0.58358148  0.27320138  0.08270178  1
  O  O277  1  0.58625765  0.26705983  0.40901661  1
  O  O278  1  0.58366898  0.26793591  0.74819790  1
  O  O279  1  0.58184581  0.76862018  0.09459385  1
  O  O280  1  0.57985229  0.76021057  0.42129549  1
  O  O281  1  0.56758435  0.76094862  0.76191251  1
  O  O282  1  0.92856343  0.26168357  0.06626811  1
  O  O283  1  0.92379435  0.26608098  0.40430937  1
  O  O284  1  0.92903465  0.26180686  0.73549443  1
  O  O285  1  0.92579289  0.75770789  0.07513588  1
  O  O286  1  0.92539201  0.76116500  0.40283302  1
  O  O287  1  0.92821188  0.75735424  0.74133984  1
  O  O288  1  0.24772367  0.48079003  0.09025129  1
  O  O289  1  0.24461106  0.47688035  0.42611408  1
  O  O290  1  0.25020074  0.47675250  0.75008879  1
  O  O291  1  0.24512470  0.99177990  0.09341733  1
  O  O292  1  0.24568153  0.98055872  0.42351396  1
  O  O293  1  0.25101911  0.97890551  0.74963870  1
  O  O294  1  0.58335786  0.47621017  0.08689970  1
  O  O295  1  0.58341329  0.48342698  0.41654853  1
  O  O296  1  0.58028173  0.48048742  0.75225692  1
  O  O297  1  0.57992927  0.98590481  0.08973200  1
  O  O298  1  0.58690895  0.98618696  0.41121488  1
  O  O299  1  0.57818499  0.98826236  0.75096072  1
  O  O300  1  0.92426755  0.48881455  0.07484065  1
  O  O301  1  0.92791166  0.48896573  0.40457112  1
  O  O302  1  0.92855143  0.49130888  0.74016328  1
  O  O303  1  0.93028563  0.99147285  0.06774450  1
  O  O304  1  0.92322742  0.98406348  0.40431684  1
  O  O305  1  0.92832013  0.99068813  0.73632659  1
  O  O306  1  0.08487367  0.27676833  0.08290832  1
  O  O307  1  0.08697627  0.27211082  0.41835691  1
  O  O308  1  0.09087621  0.27399962  0.75548728  1
  O  O309  1  0.08418200  0.77365293  0.08694565  1
  O  O310  1  0.08508745  0.77748857  0.42086160  1
  O  O311  1  0.08777710  0.77670634  0.75328024  1
  O  O312  1  0.41756917  0.27231964  0.08713492  1
  O  O313  1  0.40992875  0.26363398  0.40748942  1
  O  O314  1  0.41397264  0.26196851  0.75379652  1
  O  O315  1  0.42161686  0.76566256  0.08540529  1
  O  O316  1  0.40963278  0.75515384  0.41525955  1
  O  O317  1  0.40425865  0.76177964  0.73885934  1
  O  O318  1  0.74344854  0.26346067  0.08017332  1
  O  O319  1  0.74672540  0.26468211  0.41289036  1
  O  O320  1  0.74501665  0.26155792  0.73893279  1
  O  O321  1  0.75214842  0.75099451  0.08176694  1
  O  O322  1  0.74300724  0.75683859  0.40646197  1
  O  O323  1  0.73767885  0.75369470  0.74170000  1
  O  O324  1  0.25462634  0.02410022  0.25533286  1
  O  O325  1  0.24424047  0.02161987  0.58638792  1
  O  O326  1  0.24426339  0.02161856  0.91773208  1
  O  O327  1  0.25631977  0.51352454  0.26766841  1
  O  O328  1  0.25102914  0.52591988  0.58902975  1
  O  O329  1  0.24555653  0.51103581  0.91333939  1
  O  O330  1  0.57770576  0.01096388  0.24687528  1
  O  O331  1  0.58497296  0.01207754  0.58908067  1
  O  O332  1  0.57107806  0.01502449  0.90986212  1
  O  O333  1  0.59422025  0.51313491  0.25821181  1
  O  O334  1  0.58404033  0.52225582  0.58915805  1
  O  O335  1  0.58835483  0.51649684  0.92131917  1
  O  O336  1  0.91154474  0.02035467  0.23351307  1
  O  O337  1  0.91051118  0.02243386  0.57422419  1
  O  O338  1  0.91463119  0.02816122  0.90180527  1
  O  O339  1  0.91620385  0.52361130  0.24402813  1
  O  O340  1  0.92000565  0.52425203  0.57287477  1
  O  O341  1  0.92453510  0.51296512  0.91607778  1
  O  O342  1  0.09421286  0.23884823  0.24581890  1
  O  O343  1  0.08043241  0.23181641  0.59255869  1
  O  O344  1  0.07933746  0.22805909  0.91780526  1
  O  O345  1  0.07731568  0.73775893  0.25928415  1
  O  O346  1  0.08652981  0.72655402  0.58925076  1
  O  O347  1  0.08180718  0.73359263  0.91815483  1
  O  O348  1  0.41698809  0.22815403  0.24695572  1
  O  O349  1  0.40663530  0.23783266  0.59180840  1
  O  O350  1  0.40802628  0.22652961  0.92036883  1
  O  O351  1  0.42034237  0.74165281  0.25382218  1
  O  O352  1  0.41983570  0.72153487  0.57938177  1
  O  O353  1  0.42383234  0.73782054  0.90197607  1
  O  O354  1  0.74890345  0.23500263  0.24760970  1
  O  O355  1  0.75135070  0.22930598  0.58087036  1
  O  O356  1  0.75098059  0.23394565  0.90871620  1
  O  O357  1  0.75384034  0.72241145  0.24633038  1
  O  O358  1  0.75101346  0.72662896  0.57482109  1
  O  O359  1  0.74852255  0.73604414  0.91644298  1
