# generated using pymatgen
data_Ba17Sr5La8Pr42Mn72O216
_symmetry_space_group_name_H-M   'P 1'
_cell_length_a   16.68426773
_cell_length_b   15.70418820
_cell_length_c   16.82883936
_cell_angle_alpha   89.99986676
_cell_angle_beta   89.99217053
_cell_angle_gamma   90.01206605
_symmetry_Int_Tables_number   1
_chemical_formula_structural   Ba17Sr5La8Pr42Mn72O216
_chemical_formula_sum   'Ba17 Sr5 La8 Pr42 Mn72 O216'
_cell_volume   4409.37253613
_cell_formula_units_Z   1
loop_
 _symmetry_equiv_pos_site_id
 _symmetry_equiv_pos_as_xyz
  1  'x, y, z'
loop_
 _atom_site_type_symbol
 _atom_site_label
 _atom_site_symmetry_multiplicity
 _atom_site_fract_x
 _atom_site_fract_y
 _atom_site_fract_z
 _atom_site_occupancy
  Ba  Ba0  1  0.16903760  0.12867885  0.16972701  1
  Ba  Ba1  1  0.17109465  0.12451836  0.50123555  1
  Ba  Ba2  1  0.83334978  0.87603435  0.83286690  1
  Ba  Ba3  1  0.33265740  0.87502145  0.00230972  1
  Ba  Ba4  1  0.50254239  0.62338961  0.16552818  1
  Ba  Ba5  1  0.66335396  0.37449703  0.66712532  1
  Ba  Ba6  1  0.66707918  0.87386873  -0.00064944  1
  Ba  Ba7  1  0.50078293  0.62396539  0.83438812  1
  Ba  Ba8  1  0.49941000  0.87600283  0.16393302  1
  Ba  Ba9  1  0.83655486  0.12417041  0.83305762  1
  Ba  Ba10  1  -0.00186208  0.87517991  0.33012268  1
  Ba  Ba11  1  0.00020717  0.62424059  0.66507146  1
  Ba  Ba12  1  -0.00183167  0.37510172  0.66498979  1
  Ba  Ba13  1  0.16904416  0.62603908  0.50393174  1
  Ba  Ba14  1  0.49691868  0.87508131  0.83337046  1
  Ba  Ba15  1  0.33473979  0.87609646  0.33331712  1
  Ba  Ba16  1  0.16437468  0.62473815  0.83611422  1
  Sr  Sr17  1  0.34052218  0.12568754  0.33006873  1
  Sr  Sr18  1  0.16375516  0.37166675  0.16847488  1
  Sr  Sr19  1  0.50404837  0.12323522  0.16745939  1
  Sr  Sr20  1  0.66487550  0.62374624  0.99740489  1
  Sr  Sr21  1  0.66315389  0.37465946  -0.00146766  1
  La  La22  1  0.16301418  0.87355168  0.49837060  1
  La  La23  1  0.82925322  0.37483834  0.82874766  1
  La  La24  1  0.66383111  0.87559044  0.67241819  1
  La  La25  1  0.83077997  0.87352469  0.49536599  1
  La  La26  1  -0.00274218  0.37011002  0.33543696  1
  La  La27  1  0.32821061  0.37923743  0.00220628  1
  La  La28  1  0.00113651  0.62542974  0.32928187  1
  La  La29  1  0.83390045  0.62620929  0.49900563  1
  Pr  Pr30  1  0.15750715  0.37688107  0.49802723  1
  Pr  Pr31  1  0.67006211  0.62329238  0.32752339  1
  Pr  Pr32  1  0.49137511  0.37365590  0.49910202  1
  Pr  Pr33  1  0.66110231  0.87395135  0.33088064  1
  Pr  Pr34  1  0.49331627  0.37212713  0.16447400  1
  Pr  Pr35  1  0.83057594  0.62093661  0.83272850  1
  Pr  Pr36  1  0.83021512  0.62502285  0.16360389  1
  Pr  Pr37  1  0.83589509  0.12375068  0.16625677  1
  Pr  Pr38  1  0.83415426  0.87373442  0.15763697  1
  Pr  Pr39  1  0.32506003  0.87634455  0.67237441  1
  Pr  Pr40  1  0.00376942  0.87399481  0.66525984  1
  Pr  Pr41  1  0.66935294  0.12341962  1.00028453  1
  Pr  Pr42  1  0.16332605  0.87587645  0.83583935  1
  Pr  Pr43  1  0.16911437  0.62491439  0.17144303  1
  Pr  Pr44  1  0.82973951  0.37692301  0.16221628  1
  Pr  Pr45  1  0.50286270  0.62452247  0.50176727  1
  Pr  Pr46  1  0.32515707  0.37520076  0.66987515  1
  Pr  Pr47  1  0.17125118  0.12753778  0.83818230  1
  Pr  Pr48  1  -0.00349443  0.62533865  0.99363629  1
  Pr  Pr49  1  0.32487177  0.37375021  0.33592255  1
  Pr  Pr50  1  0.00697960  0.12489233  0.99896654  1
  Pr  Pr51  1  0.67679790  0.12308902  0.66424208  1
  Pr  Pr52  1  0.00385064  0.12236666  0.66579600  1
  Pr  Pr53  1  0.82861632  0.37728409  0.49499656  1
  Pr  Pr54  1  0.15793966  0.37572848  0.83355516  1
  Pr  Pr55  1  0.00669747  0.12289914  0.32729437  1
  Pr  Pr56  1  0.50687144  0.12516166  0.49792393  1
  Pr  Pr57  1  0.66821107  0.62783439  0.66653328  1
  Pr  Pr58  1  0.49110130  0.37774011  0.83039326  1
  Pr  Pr59  1  0.49769539  0.87596155  0.49620758  1
  Pr  Pr60  1  0.33907770  0.62664119  0.66601534  1
  Pr  Pr61  1  0.16936516  0.88022298  0.16491473  1
  Pr  Pr62  1  0.50863001  0.12729089  0.83663326  1
  Pr  Pr63  1  0.34599221  0.12583703  0.66295146  1
  Pr  Pr64  1  0.67058590  0.12646087  0.32799714  1
  Pr  Pr65  1  -0.00309543  0.37395282  0.00109659  1
  Pr  Pr66  1  -0.00011385  0.87526753  0.00315391  1
  Pr  Pr67  1  0.65676598  0.37647688  0.33727965  1
  Pr  Pr68  1  0.34298215  0.12707999  1.00156809  1
  Pr  Pr69  1  0.84151650  0.12519619  0.50070507  1
  Pr  Pr70  1  0.33651695  0.62404957  0.33208028  1
  Pr  Pr71  1  0.33938712  0.62590627  0.99832577  1
  Mn  Mn72  1  -0.00137220  0.00029787  0.16560378  1
  Mn  Mn73  1  -0.00013490  0.00032432  0.49816248  1
  Mn  Mn74  1  0.00301504  -0.00054252  0.83248682  1
  Mn  Mn75  1  -0.00008615  0.49977034  0.16524300  1
  Mn  Mn76  1  -0.00272556  0.49880434  0.49672861  1
  Mn  Mn77  1  -0.00259541  0.49978039  0.83449304  1
  Mn  Mn78  1  0.33426711  0.00304584  0.16788776  1
  Mn  Mn79  1  0.33691180  0.00166963  0.50287819  1
  Mn  Mn80  1  0.33241985  0.00324731  0.83254498  1
  Mn  Mn81  1  0.33150951  0.49852708  0.16826416  1
  Mn  Mn82  1  0.33422435  0.49828231  0.50168205  1
  Mn  Mn83  1  0.32944196  0.49922926  0.83531810  1
  Mn  Mn84  1  0.66941328  0.00235336  0.16678673  1
  Mn  Mn85  1  0.66756066  0.00039315  0.49795219  1
  Mn  Mn86  1  0.66667781  0.00134758  0.83151567  1
  Mn  Mn87  1  0.66705593  0.49698873  0.16615866  1
  Mn  Mn88  1  0.66532358  0.50064389  0.49889246  1
  Mn  Mn89  1  0.66552480  0.49760613  0.83374657  1
  Mn  Mn90  1  -0.00295365  0.25246996  0.16739324  1
  Mn  Mn91  1  -0.00043399  0.24856154  0.49946879  1
  Mn  Mn92  1  0.00034281  0.24943592  0.83411835  1
  Mn  Mn93  1  0.00055034  0.74729020  0.16315903  1
  Mn  Mn94  1  -0.00182509  0.75082116  0.49802466  1
  Mn  Mn95  1  -0.00179047  0.75122647  0.83320341  1
  Mn  Mn96  1  0.33451473  0.25142119  0.16808587  1
  Mn  Mn97  1  0.33458741  0.24971905  0.50139505  1
  Mn  Mn98  1  0.33211184  0.24912198  0.83309412  1
  Mn  Mn99  1  0.33190757  0.74742587  0.16747049  1
  Mn  Mn100  1  0.33605334  0.75072408  0.50247911  1
  Mn  Mn101  1  0.33052320  0.75048373  0.83478395  1
  Mn  Mn102  1  0.66810403  0.25299521  0.16679905  1
  Mn  Mn103  1  0.66701254  0.24983953  0.49781506  1
  Mn  Mn104  1  0.66702191  0.25010181  0.83412426  1
  Mn  Mn105  1  0.66877439  0.74719579  0.16600200  1
  Mn  Mn106  1  0.66561264  0.75086715  0.49932924  1
  Mn  Mn107  1  0.66623976  0.74936011  0.83244825  1
  Mn  Mn108  1  0.16719965  0.25085955  0.00142868  1
  Mn  Mn109  1  0.16752868  0.25084323  0.33498606  1
  Mn  Mn110  1  0.16751654  0.24938846  0.66950386  1
  Mn  Mn111  1  0.16418243  0.74883645  0.00514756  1
  Mn  Mn112  1  0.16717057  0.74919463  0.33440560  1
  Mn  Mn113  1  0.16828821  0.75113324  0.66858456  1
  Mn  Mn114  1  0.50093666  0.25137987  0.00010050  1
  Mn  Mn115  1  0.50034812  0.25092137  0.33184329  1
  Mn  Mn116  1  0.50081063  0.25049241  0.66729018  1
  Mn  Mn117  1  0.50069325  0.74890726  -0.00000269  1
  Mn  Mn118  1  0.50106041  0.74918761  0.33557629  1
  Mn  Mn119  1  0.49967379  0.74942594  0.66338750  1
  Mn  Mn120  1  0.83319841  0.25117204  -0.00007386  1
  Mn  Mn121  1  0.83165429  0.24923969  0.33144786  1
  Mn  Mn122  1  0.83378405  0.24935816  0.66408528  1
  Mn  Mn123  1  0.83383680  0.74712023  -0.00241879  1
  Mn  Mn124  1  0.83151752  0.75017137  0.33013136  1
  Mn  Mn125  1  0.83287431  0.75065964  0.66376722  1
  Mn  Mn126  1  0.16828507  0.00252034  0.00030847  1
  Mn  Mn127  1  0.16919224  -0.00079409  0.33423524  1
  Mn  Mn128  1  0.16802030  0.00147108  0.66987774  1
  Mn  Mn129  1  0.16306787  0.49859950  0.00526979  1
  Mn  Mn130  1  0.16523238  0.50022039  0.33411994  1
  Mn  Mn131  1  0.16782143  0.49897313  0.66719113  1
  Mn  Mn132  1  0.50117631  0.00342069  0.00109044  1
  Mn  Mn133  1  0.50167334  0.00112968  0.33355828  1
  Mn  Mn134  1  0.50154882  0.00208847  0.66462780  1
  Mn  Mn135  1  0.50046802  0.49661695  -0.00049316  1
  Mn  Mn136  1  0.49903055  0.49880642  0.33489111  1
  Mn  Mn137  1  0.49905621  0.49909521  0.66578258  1
  Mn  Mn138  1  0.83583530  0.00207410  0.00120535  1
  Mn  Mn139  1  0.83055976  -0.00002634  0.33222675  1
  Mn  Mn140  1  0.83517391  0.00014451  0.66215694  1
  Mn  Mn141  1  0.83184784  0.49798139  -0.00195250  1
  Mn  Mn142  1  0.83328600  0.49967757  0.32960098  1
  Mn  Mn143  1  0.83084311  0.50007825  0.66411166  1
  O  O144  1  0.15689983  0.12776471  0.01447748  1
  O  O145  1  0.15830147  0.12646471  0.34366139  1
  O  O146  1  0.15808131  0.12436698  0.69355520  1
  O  O147  1  0.15339988  0.62059614  0.02850442  1
  O  O148  1  0.16553359  0.62364407  0.34821236  1
  O  O149  1  0.17344307  0.62698571  0.67779131  1
  O  O150  1  0.49848376  0.13078987  0.01724772  1
  O  O151  1  0.50782136  0.12712861  0.35453099  1
  O  O152  1  0.49438811  0.12915637  0.69264623  1
  O  O153  1  0.49600793  0.61817742  0.00800748  1
  O  O154  1  0.50111643  0.62132252  0.35783163  1
  O  O155  1  0.49599440  0.62146279  0.67899669  1
  O  O156  1  0.83333048  0.12864355  0.02302358  1
  O  O157  1  0.82326402  0.12488783  0.36010411  1
  O  O158  1  0.83263684  0.12415468  0.67538466  1
  O  O159  1  0.83805296  0.62032223  0.02081463  1
  O  O160  1  0.82707917  0.62242746  0.35645703  1
  O  O161  1  0.82859618  0.62669776  0.68568240  1
  O  O162  1  0.16909196  0.37731423  0.31872406  1
  O  O163  1  0.17473160  0.37207541  0.64241542  1
  O  O164  1  0.16827155  0.37263122  0.97607993  1
  O  O165  1  0.16719343  0.87086072  0.31005029  1
  O  O166  1  0.17473496  0.87842363  0.64440878  1
  O  O167  1  0.16410680  0.87827904  0.97939199  1
  O  O168  1  0.50625849  0.37625458  0.30863173  1
  O  O169  1  0.49445749  0.37392446  0.64230894  1
  O  O170  1  0.49553105  0.37158398  0.97490484  1
  O  O171  1  0.50737698  0.87576906  0.32195047  1
  O  O172  1  0.50799744  0.87600640  0.63968818  1
  O  O173  1  0.50020885  0.88051594  0.99310160  1
  O  O174  1  0.84074101  0.37547267  0.30501652  1
  O  O175  1  0.83060246  0.37251059  0.64058047  1
  O  O176  1  0.84137771  0.37469459  0.97267979  1
  O  O177  1  0.82616235  0.87687449  0.30248613  1
  O  O178  1  0.82848009  0.87671705  0.63969647  1
  O  O179  1  0.84264108  0.87448894  0.99254351  1
  O  O180  1  -0.01207580  0.37761291  0.19378395  1
  O  O181  1  -0.00266825  0.37352071  0.50757104  1
  O  O182  1  0.00029195  0.37402024  0.85659790  1
  O  O183  1  -0.01282150  0.87278395  0.17555722  1
  O  O184  1  -0.00532378  0.87872485  0.51941326  1
  O  O185  1  0.00457391  0.87697238  0.85832339  1
  O  O186  1  0.33979839  0.37628624  0.19100532  1
  O  O187  1  0.34266230  0.37337217  0.52722047  1
  O  O188  1  0.33835915  0.37242861  0.85804592  1
  O  O189  1  0.32591396  0.87278470  0.17527730  1
  O  O190  1  0.34779633  0.87818772  0.52841246  1
  O  O191  1  0.32641591  0.87926814  0.84534051  1
  O  O192  1  0.67629501  0.37508966  0.19508774  1
  O  O193  1  0.67403696  0.37549635  0.51248443  1
  O  O194  1  0.67647506  0.37250136  0.84830064  1
  O  O195  1  0.67740805  0.87465743  0.18622053  1
  O  O196  1  0.66671568  0.87484285  0.52857942  1
  O  O197  1  0.66699947  0.87837391  0.83731704  1
  O  O198  1  -0.00637553  0.12785726  0.14327955  1
  O  O199  1  -0.00562442  0.12477161  0.47164262  1
  O  O200  1  0.00939836  0.12312497  0.80921409  1
  O  O201  1  0.00769627  0.62153812  0.13634657  1
  O  O202  1  -0.00701069  0.62211280  0.47663946  1
  O  O203  1  -0.00571473  0.62537722  0.82166252  1
  O  O204  1  0.33571634  0.13154017  0.14809784  1
  O  O205  1  0.33880929  0.12756449  0.48136212  1
  O  O206  1  0.32340501  0.12715629  0.80397473  1
  O  O207  1  0.32331054  0.61940302  0.14414926  1
  O  O208  1  0.33829885  0.62066314  0.47594779  1
  O  O209  1  0.33010505  0.62230170  0.81029056  1
  O  O210  1  0.67199683  0.13138921  0.14447247  1
  O  O211  1  0.66154958  0.12643048  0.46956893  1
  O  O212  1  0.65981466  0.12662682  0.81020560  1
  O  O213  1  0.67369463  0.61907269  0.14956322  1
  O  O214  1  0.66265582  0.62458731  0.46957536  1
  O  O215  1  0.67182150  0.62254595  0.81235868  1
  O  O216  1  0.07810638  0.00973304  0.24621867  1
  O  O217  1  0.08219651  0.01154508  0.59059299  1
  O  O218  1  0.09237369  0.01880320  0.90955782  1
  O  O219  1  0.08200800  0.51945493  0.24690662  1
  O  O220  1  0.08599512  0.50164466  0.57723554  1
  O  O221  1  0.07508308  0.50835180  0.92621725  1
  O  O222  1  0.42317266  0.01430220  0.25091321  1
  O  O223  1  0.42714089  0.02581705  0.57838033  1
  O  O224  1  0.41884388  0.02587279  0.90856816  1
  O  O225  1  0.41386883  0.51499852  0.25590394  1
  O  O226  1  0.42360564  0.51892717  0.57539454  1
  O  O227  1  0.40978373  0.50965633  0.91874357  1
  O  O228  1  0.75304521  0.02666800  0.24859999  1
  O  O229  1  0.75488669  0.02235148  0.57117409  1
  O  O230  1  0.75014814  0.01576081  0.92431515  1
  O  O231  1  0.75593658  0.51901271  0.24573207  1
  O  O232  1  0.74796797  0.52422533  0.57703688  1
  O  O233  1  0.75470186  0.51562883  0.91239292  1
  O  O234  1  0.25951200  0.24517678  0.26081374  1
  O  O235  1  0.26389009  0.23452494  0.59927095  1
  O  O236  1  0.25663147  0.22849408  0.92187684  1
  O  O237  1  0.25334991  0.72555386  0.25494166  1
  O  O238  1  0.26364781  0.74037706  0.59583435  1
  O  O239  1  0.24964472  0.72994539  0.93127568  1
  O  O240  1  0.59652060  0.23852187  0.26177682  1
  O  O241  1  0.59057373  0.22665116  0.58985077  1
  O  O242  1  0.59032826  0.22972899  0.92347118  1
  O  O243  1  0.59272596  0.73674654  0.26077071  1
  O  O244  1  0.58560080  0.72526719  0.58203163  1
  O  O245  1  0.58592729  0.74163841  0.91657283  1
  O  O246  1  0.91818033  0.22337596  0.25616940  1
  O  O247  1  0.92274517  0.22657485  0.58490540  1
  O  O248  1  0.92918656  0.23325243  0.92848169  1
  O  O249  1  0.91689257  0.72376367  0.24161110  1
  O  O250  1  0.90884520  0.73826331  0.57478738  1
  O  O251  1  0.91116474  0.72890733  0.91157753  1
  O  O252  1  0.07916088  0.47011806  0.08475902  1
  O  O253  1  0.07767714  0.48064514  0.41156260  1
  O  O254  1  0.08356971  0.48536957  0.75687271  1
  O  O255  1  0.07825150  0.98261421  0.07722660  1
  O  O256  1  0.08475376  0.98507275  0.41982068  1
  O  O257  1  0.08239609  0.97240046  0.74805684  1
  O  O258  1  0.41399864  0.47903997  0.08297239  1
  O  O259  1  0.41184233  0.47471768  0.41412273  1
  O  O260  1  0.40963491  0.47945401  0.74574863  1
  O  O261  1  0.41344876  1.00225438  0.07848953  1
  O  O262  1  0.42265900  0.99037562  0.42206051  1
  O  O263  1  0.40561289  0.98832539  0.73767163  1
  O  O264  1  0.75227949  0.47948923  0.08135340  1
  O  O265  1  0.74635445  0.47972859  0.41000964  1
  O  O266  1  0.74971644  0.48910566  0.75040834  1
  O  O267  1  0.75839547  0.99084114  0.09134263  1
  O  O268  1  0.74279345  0.97535661  0.40959945  1
  O  O269  1  0.74509659  0.99269282  0.73653668  1
  O  O270  1  0.24835676  0.26874998  0.08400929  1
  O  O271  1  0.24699192  0.27386678  0.42873345  1
  O  O272  1  0.24260620  0.27443333  0.76045208  1
  O  O273  1  0.23729849  0.75875479  0.09715563  1
  O  O274  1  0.24856297  0.76816954  0.43005014  1
  O  O275  1  0.24396013  0.77202935  0.75648121  1
  O  O276  1  0.57863195  0.27092188  0.09538918  1
  O  O277  1  0.57447537  0.27168894  0.42572161  1
  O  O278  1  0.56804020  0.26662478  0.76331351  1
  O  O279  1  0.58845476  0.75367606  0.08635345  1
  O  O280  1  0.58222131  0.77212892  0.42262994  1
  O  O281  1  0.58557963  0.75823252  0.74015617  1
  O  O282  1  0.91046287  0.27340151  0.08974683  1
  O  O283  1  0.90638783  0.26811970  0.42000204  1
  O  O284  1  0.91229935  0.26440164  0.75962880  1
  O  O285  1  0.92443054  0.75830111  0.07446742  1
  O  O286  1  0.90799134  0.76251720  0.41447603  1
  O  O287  1  0.92011773  0.76904260  0.73864679  1
  O  O288  1  0.24605462  0.47947681  0.08769487  1
  O  O289  1  0.24743374  0.47634725  0.42622532  1
  O  O290  1  0.24578204  0.47381337  0.75827641  1
  O  O291  1  0.24104122  0.99040053  0.08952887  1
  O  O292  1  0.24850931  0.98153845  0.43314910  1
  O  O293  1  0.23944184  0.98327726  0.76089563  1
  O  O294  1  0.57915339  0.47630147  0.09215714  1
  O  O295  1  0.57599386  0.47684108  0.42435547  1
  O  O296  1  0.57389474  0.48233881  0.75612558  1
  O  O297  1  0.58977428  1.00059852  0.08449607  1
  O  O298  1  0.58208734  0.97876711  0.42274203  1
  O  O299  1  0.58051823  0.99127311  0.74429015  1
  O  O300  1  0.91537387  0.47811500  0.08246137  1
  O  O301  1  0.91246640  0.47982299  0.41184222  1
  O  O302  1  0.90937870  0.48670252  0.75698261  1
  O  O303  1  0.91550609  0.98777887  0.08634806  1
  O  O304  1  0.90402603  0.98589216  0.42091169  1
  O  O305  1  0.92350599  0.98742133  0.74224627  1
  O  O306  1  0.07381501  0.26802538  0.07806732  1
  O  O307  1  0.08035117  0.26769172  0.41608940  1
  O  O308  1  0.08429464  0.26772606  0.75405223  1
  O  O309  1  0.08416128  0.77869525  0.08720260  1
  O  O310  1  0.08284634  0.76316075  0.41916283  1
  O  O311  1  0.08394392  0.77352414  0.75191471  1
  O  O312  1  0.41031366  0.27143591  0.07673747  1
  O  O313  1  0.41178650  0.27286176  0.40891237  1
  O  O314  1  0.40678281  0.26981102  0.74175091  1
  O  O315  1  0.41085714  0.74801670  0.08240840  1
  O  O316  1  0.42132232  0.76066362  0.42197350  1
  O  O317  1  0.40942516  0.76364358  0.73496154  1
  O  O318  1  0.74875552  0.27184135  0.08255956  1
  O  O319  1  0.74329006  0.27271920  0.40526972  1
  O  O320  1  0.74649164  0.25654196  0.74581715  1
  O  O321  1  0.76214204  0.75796415  0.09056005  1
  O  O322  1  0.74378967  0.77354761  0.41581011  1
  O  O323  1  0.74677399  0.76136833  0.74106938  1
  O  O324  1  0.25352295  0.01076833  0.25646489  1
  O  O325  1  0.26347831  0.01586667  0.59981300  1
  O  O326  1  0.25613347  0.02755799  0.92301634  1
  O  O327  1  0.25243326  0.51822781  0.25642563  1
  O  O328  1  0.26489035  0.51180667  0.59417759  1
  O  O329  1  0.25136586  0.51385590  0.92815258  1
  O  O330  1  0.59407050  0.01401381  0.25801903  1
  O  O331  1  0.59036532  0.02673196  0.58471564  1
  O  O332  1  0.58440668  0.02340299  0.91873702  1
  O  O333  1  0.59285734  0.51201655  0.26281606  1
  O  O334  1  0.58723289  0.52121513  0.58524418  1
  O  O335  1  0.58712868  0.50239386  0.91984334  1
  O  O336  1  0.91577338  0.02474392  0.25362746  1
  O  O337  1  0.92082156  0.02168938  0.58266106  1
  O  O338  1  0.92895525  0.01539291  0.92506464  1
  O  O339  1  0.91845192  0.52862616  0.24678409  1
  O  O340  1  0.90927428  0.51097221  0.57259942  1
  O  O341  1  0.91442778  0.51945303  0.91722392  1
  O  O342  1  0.07545169  0.24360051  0.25256361  1
  O  O343  1  0.08520965  0.23581966  0.58724532  1
  O  O344  1  0.08894534  0.23343204  0.91227787  1
  O  O345  1  0.08145675  0.72778904  0.24578963  1
  O  O346  1  0.08451942  0.75203310  0.58689765  1
  O  O347  1  0.07538038  0.73951246  0.92825807  1
  O  O348  1  0.42878430  0.23977119  0.24289450  1
  O  O349  1  0.42876677  0.23035105  0.57346606  1
  O  O350  1  0.42047365  0.22700297  0.90607884  1
  O  O351  1  0.41347607  0.73181434  0.25566373  1
  O  O352  1  0.42282103  0.72612129  0.57784982  1
  O  O353  1  0.41084879  0.73691579  0.91649848  1
  O  O354  1  0.75737242  0.22841968  0.24304245  1
  O  O355  1  0.75457143  0.22853426  0.56955401  1
  O  O356  1  0.75119371  0.23476567  0.91979922  1
  O  O357  1  0.75164471  0.72509010  0.24941203  1
  O  O358  1  0.74817325  0.72685076  0.57908318  1
  O  O359  1  0.75274177  0.73111419  0.91536669  1
