# generated using pymatgen
data_Ba17Sr5La8Pr42Mn72O216
_symmetry_space_group_name_H-M   'P 1'
_cell_length_a   16.67488715
_cell_length_b   15.70520682
_cell_length_c   16.82288075
_cell_angle_alpha   90.01414421
_cell_angle_beta   90.02124253
_cell_angle_gamma   89.99900853
_symmetry_Int_Tables_number   1
_chemical_formula_structural   Ba17Sr5La8Pr42Mn72O216
_chemical_formula_sum   'Ba17 Sr5 La8 Pr42 Mn72 O216'
_cell_volume   4405.61849348
_cell_formula_units_Z   1
loop_
 _symmetry_equiv_pos_site_id
 _symmetry_equiv_pos_as_xyz
  1  'x, y, z'
loop_
 _atom_site_type_symbol
 _atom_site_label
 _atom_site_symmetry_multiplicity
 _atom_site_fract_x
 _atom_site_fract_y
 _atom_site_fract_z
 _atom_site_occupancy
  Ba  Ba0  1  -0.00074366  0.87788203  0.66538028  1
  Ba  Ba1  1  0.33413488  0.87801235  0.33652868  1
  Ba  Ba2  1  -0.00083329  0.12677778  0.66431858  1
  Ba  Ba3  1  0.50160710  0.62290256  0.17055925  1
  Ba  Ba4  1  0.16483218  0.62441821  0.83477539  1
  Ba  Ba5  1  0.33475185  0.37487496  0.67075360  1
  Ba  Ba6  1  0.16973646  0.87594708  0.16745509  1
  Ba  Ba7  1  0.50009894  0.62563751  0.50361839  1
  Ba  Ba8  1  0.16551477  0.62272643  0.49939137  1
  Ba  Ba9  1  0.00026861  0.62405124  0.33015721  1
  Ba  Ba10  1  0.83398873  0.87694570  0.49614211  1
  Ba  Ba11  1  0.16787236  0.87530121  0.83296631  1
  Ba  Ba12  1  -0.00133184  0.12703354  0.99600787  1
  Ba  Ba13  1  0.66621024  0.62197862  0.99760679  1
  Ba  Ba14  1  0.66270659  0.12642694  0.66518109  1
  Ba  Ba15  1  0.66491168  0.62462393  0.33192955  1
  Ba  Ba16  1  0.83287844  0.87445572  0.82877053  1
  Sr  Sr17  1  0.00130159  0.62593794  0.99880355  1
  Sr  Sr18  1  0.67129195  0.37700960  -0.00103242  1
  Sr  Sr19  1  0.66610304  0.37416633  0.66609843  1
  Sr  Sr20  1  0.33797663  0.37311212  0.34108566  1
  Sr  Sr21  1  0.49798563  0.62137592  0.83816194  1
  La  La22  1  0.50643376  0.37757861  0.83501973  1
  La  La23  1  0.50699644  0.37614700  0.16833196  1
  La  La24  1  0.33360765  0.62604329  1.00254370  1
  La  La25  1  0.66258097  0.12574109  0.99193296  1
  La  La26  1  0.00128762  0.37717222  0.33301410  1
  La  La27  1  0.50258905  0.87387543  0.83800034  1
  La  La28  1  0.00308118  0.37684903  -0.00162575  1
  La  La29  1  0.49168320  0.12414138  0.50584865  1
  Pr  Pr30  1  -0.00753792  0.12367995  0.32708395  1
  Pr  Pr31  1  0.82814366  0.12551892  0.50158423  1
  Pr  Pr32  1  0.32362692  0.12351858  1.00229024  1
  Pr  Pr33  1  0.33240967  0.62305855  0.33227394  1
  Pr  Pr34  1  0.33587110  0.87074785  0.67119286  1
  Pr  Pr35  1  0.83543540  0.62567759  0.83246135  1
  Pr  Pr36  1  0.83373249  0.36989664  0.49604616  1
  Pr  Pr37  1  0.16039662  0.12698694  0.83324480  1
  Pr  Pr38  1  0.16667860  0.62566903  0.17340139  1
  Pr  Pr39  1  0.17180037  0.37312840  0.49677061  1
  Pr  Pr40  1  0.15797931  0.12464441  0.17086534  1
  Pr  Pr41  1  0.33667792  0.37716763  0.00575211  1
  Pr  Pr42  1  0.00388315  0.87412179  0.33631276  1
  Pr  Pr43  1  0.32669658  0.62354027  0.66808818  1
  Pr  Pr44  1  0.67538267  0.87168003  -0.00004040  1
  Pr  Pr45  1  0.00070065  0.63214965  0.66233847  1
  Pr  Pr46  1  0.83650686  0.37895134  0.16081538  1
  Pr  Pr47  1  0.33530574  0.86898823  0.00662361  1
  Pr  Pr48  1  0.16724446  0.37373798  0.83369534  1
  Pr  Pr49  1  0.00693353  0.87426962  -0.00219426  1
  Pr  Pr50  1  0.83195273  0.37451744  0.82883164  1
  Pr  Pr51  1  0.66731339  0.62439274  0.66275993  1
  Pr  Pr52  1  0.66788953  0.37856406  0.33391486  1
  Pr  Pr53  1  0.17210810  0.37509483  0.16560457  1
  Pr  Pr54  1  0.83838415  0.87065429  0.15993561  1
  Pr  Pr55  1  0.50655403  0.87682991  0.50015703  1
  Pr  Pr56  1  0.49228513  0.13010310  0.83876785  1
  Pr  Pr57  1  0.00077513  0.37942173  0.66699971  1
  Pr  Pr58  1  0.66630791  0.87100497  0.33221014  1
  Pr  Pr59  1  0.32780992  0.12561762  0.67020926  1
  Pr  Pr60  1  0.66767401  0.87289517  0.66759572  1
  Pr  Pr61  1  0.32283043  0.12582141  0.33397561  1
  Pr  Pr62  1  0.16478349  0.87652309  0.49698268  1
  Pr  Pr63  1  0.82529249  0.12174147  0.82964393  1
  Pr  Pr64  1  0.50631394  0.87417337  0.16382945  1
  Pr  Pr65  1  0.66381227  0.12275352  0.33030129  1
  Pr  Pr66  1  0.82839176  0.62190693  0.16792579  1
  Pr  Pr67  1  0.49199474  0.12675985  0.17135412  1
  Pr  Pr68  1  0.83328358  0.62341935  0.50033657  1
  Pr  Pr69  1  0.50738817  0.37297515  0.50084723  1
  Pr  Pr70  1  0.16596202  0.12594707  0.50119829  1
  Pr  Pr71  1  0.82659583  0.12935321  0.16274925  1
  Mn  Mn72  1  -0.00253172  0.00066780  0.16456808  1
  Mn  Mn73  1  -0.00027545  0.00254344  0.49488726  1
  Mn  Mn74  1  -0.00104973  0.00227829  0.83237474  1
  Mn  Mn75  1  0.00255228  0.49832455  0.16384093  1
  Mn  Mn76  1  -0.00173412  0.49844053  0.50132146  1
  Mn  Mn77  1  -0.00126987  0.49856060  0.83298466  1
  Mn  Mn78  1  0.33591944  0.00221891  0.16783932  1
  Mn  Mn79  1  0.33194774  0.00094194  0.50528985  1
  Mn  Mn80  1  0.33395814  0.00083832  0.83648318  1
  Mn  Mn81  1  0.33411714  0.49621371  0.17113749  1
  Mn  Mn82  1  0.33491177  0.49894125  0.50222929  1
  Mn  Mn83  1  0.33366470  0.49958722  0.83816177  1
  Mn  Mn84  1  0.66804654  0.00253332  0.16242648  1
  Mn  Mn85  1  0.66567771  0.00046108  0.49660501  1
  Mn  Mn86  1  0.66265837  0.00012820  0.83190561  1
  Mn  Mn87  1  0.66857781  0.49687954  0.16596341  1
  Mn  Mn88  1  0.66798980  0.49821975  0.50100728  1
  Mn  Mn89  1  0.66741080  0.49839142  0.83013171  1
  Mn  Mn90  1  -0.00097523  0.25075289  0.16493019  1
  Mn  Mn91  1  -0.00026148  0.25170168  0.49604894  1
  Mn  Mn92  1  -0.00333131  0.25240111  0.83101910  1
  Mn  Mn93  1  0.00110547  0.74942654  0.16375316  1
  Mn  Mn94  1  -0.00086912  0.74982946  0.49729114  1
  Mn  Mn95  1  -0.00029856  0.74885435  0.83214551  1
  Mn  Mn96  1  0.33310077  0.25008537  0.17117027  1
  Mn  Mn97  1  0.33441969  0.24978158  0.50251070  1
  Mn  Mn98  1  0.33226654  0.24988819  0.83957505  1
  Mn  Mn99  1  0.33625759  0.74917760  0.16950513  1
  Mn  Mn100  1  0.33319081  0.75037922  0.50382596  1
  Mn  Mn101  1  0.33515658  0.74962719  0.83686068  1
  Mn  Mn102  1  0.66716206  0.24909636  0.16399885  1
  Mn  Mn103  1  0.66567693  0.25043054  0.49678956  1
  Mn  Mn104  1  0.66531924  0.25147517  0.83254502  1
  Mn  Mn105  1  0.66862811  0.75185968  0.16605808  1
  Mn  Mn106  1  0.66795326  0.75009853  0.49950561  1
  Mn  Mn107  1  0.66483692  0.74861498  0.83149547  1
  Mn  Mn108  1  0.16878658  0.25188568  0.00078769  1
  Mn  Mn109  1  0.16427728  0.25064779  0.33346824  1
  Mn  Mn110  1  0.16576335  0.25180093  0.66648387  1
  Mn  Mn111  1  0.16712894  0.74897124  0.00211463  1
  Mn  Mn112  1  0.16791366  0.74999145  0.33408740  1
  Mn  Mn113  1  0.16700306  0.75020953  0.66547175  1
  Mn  Mn114  1  0.49989866  0.25049724  0.00476556  1
  Mn  Mn115  1  0.50069561  0.24730133  0.33636615  1
  Mn  Mn116  1  0.49883506  0.25023520  0.67022617  1
  Mn  Mn117  1  0.50121415  0.74997592  0.00071934  1
  Mn  Mn118  1  0.49806690  0.75190294  0.33533516  1
  Mn  Mn119  1  0.50015145  0.74929492  0.67121381  1
  Mn  Mn120  1  0.83214607  0.25125680  -0.00355650  1
  Mn  Mn121  1  0.83148530  0.24941720  0.32987395  1
  Mn  Mn122  1  0.83284566  0.25221390  0.66304395  1
  Mn  Mn123  1  0.83635096  0.74822602  -0.00310178  1
  Mn  Mn124  1  0.83398289  0.75062950  0.32853555  1
  Mn  Mn125  1  0.83134991  0.74822958  0.66482012  1
  Mn  Mn126  1  0.16796299  0.00040180  0.00000909  1
  Mn  Mn127  1  0.16386571  0.00203780  0.33460569  1
  Mn  Mn128  1  0.16853320  0.00175274  0.66556623  1
  Mn  Mn129  1  0.16856944  0.49857759  0.00204947  1
  Mn  Mn130  1  0.16907271  0.49684960  0.33306075  1
  Mn  Mn131  1  0.16537754  0.49794707  0.66777436  1
  Mn  Mn132  1  0.50043390  0.00226410  0.00278928  1
  Mn  Mn133  1  0.50046704  0.00201844  0.33542172  1
  Mn  Mn134  1  0.49687651  -0.00084838  0.66971438  1
  Mn  Mn135  1  0.50055273  0.49774197  0.00123012  1
  Mn  Mn136  1  0.49842440  0.49659711  0.33639860  1
  Mn  Mn137  1  0.50139427  0.49979688  0.67033247  1
  Mn  Mn138  1  0.83318263  0.00021218  -0.00215259  1
  Mn  Mn139  1  0.83192766  0.00230361  0.32638418  1
  Mn  Mn140  1  0.83109493  0.00273447  0.66418276  1
  Mn  Mn141  1  0.83597233  0.50037762  -0.00370076  1
  Mn  Mn142  1  0.83381720  0.49763265  0.33152431  1
  Mn  Mn143  1  0.83250504  0.49860071  0.66488620  1
  O  O144  1  0.16985117  0.12700311  0.02740998  1
  O  O145  1  0.16097713  0.12769730  0.35713065  1
  O  O146  1  0.17137539  0.12902159  0.68971883  1
  O  O147  1  0.16699937  0.62050224  0.02735871  1
  O  O148  1  0.17206604  0.62303366  0.34162485  1
  O  O149  1  0.16511949  0.62050649  0.67747441  1
  O  O150  1  0.51121196  0.12692153  0.02817606  1
  O  O151  1  0.51315456  0.12463037  0.36263338  1
  O  O152  1  0.49452468  0.12278150  0.69510214  1
  O  O153  1  0.49570358  0.62168100  0.01336327  1
  O  O154  1  0.49402757  0.62297225  0.34555609  1
  O  O155  1  0.51284838  0.62612535  0.68908790  1
  O  O156  1  0.82647940  0.12552692  0.02059740  1
  O  O157  1  0.83546768  0.12791074  0.35852554  1
  O  O158  1  0.83123333  0.13026822  0.68256948  1
  O  O159  1  0.83768433  0.62494944  0.02481578  1
  O  O160  1  0.83311291  0.61844381  0.35444193  1
  O  O161  1  0.82809612  0.61815637  0.68826060  1
  O  O162  1  0.16765701  0.37079264  0.30868760  1
  O  O163  1  0.16254178  0.37372133  0.64188057  1
  O  O164  1  0.18012283  0.37424110  0.97738611  1
  O  O165  1  0.16143300  0.87758454  0.32382851  1
  O  O166  1  0.17664388  0.87886694  0.64322941  1
  O  O167  1  0.17227615  0.87749246  0.99114605  1
  O  O168  1  0.49808449  0.36796054  0.31277418  1
  O  O169  1  0.49952849  0.37460648  0.64450145  1
  O  O170  1  0.48928118  0.37139935  0.98068520  1
  O  O171  1  0.50255482  0.88173190  0.30852842  1
  O  O172  1  0.48935768  0.87621102  0.64250238  1
  O  O173  1  0.48749582  0.88040828  0.98277456  1
  O  O174  1  0.83043024  0.37116566  0.30487040  1
  O  O175  1  0.83788663  0.37756769  0.63827633  1
  O  O176  1  0.83772324  0.37540090  0.97353551  1
  O  O177  1  0.83278511  0.88208436  0.30327025  1
  O  O178  1  0.82328984  0.87493908  0.65493864  1
  O  O179  1  0.82933490  0.87415996  0.98445324  1
  O  O180  1  -0.00732827  0.37214678  0.18905589  1
  O  O181  1  -0.00857440  0.37449104  0.52311716  1
  O  O182  1  -0.01315387  0.37482889  0.85506424  1
  O  O183  1  -0.01013931  0.88017669  0.19233647  1
  O  O184  1  0.00385410  0.87663764  0.50622724  1
  O  O185  1  -0.00300941  0.87838986  0.85145814  1
  O  O186  1  0.32563570  0.37056705  0.19221737  1
  O  O187  1  0.32855744  0.37150947  0.51353681  1
  O  O188  1  0.32374858  0.37196312  0.86253399  1
  O  O189  1  0.34276352  0.88109206  0.17753431  1
  O  O190  1  0.32354039  0.88084408  0.52790229  1
  O  O191  1  0.33718951  0.88027065  0.86294963  1
  O  O192  1  0.67252127  0.36935096  0.18974473  1
  O  O193  1  0.66668480  0.37342857  0.51719737  1
  O  O194  1  0.67165284  0.37320525  0.85053752  1
  O  O195  1  0.67142743  0.88237205  0.18913146  1
  O  O196  1  0.66193300  0.87567274  0.52277711  1
  O  O197  1  0.66301725  0.87874973  0.85629004  1
  O  O198  1  0.00601647  0.12758383  0.15079408  1
  O  O199  1  0.00468084  0.12921833  0.47067595  1
  O  O200  1  0.01031348  0.13086426  0.82244736  1
  O  O201  1  0.01135508  0.61892462  0.14747123  1
  O  O202  1  -0.00720288  0.62212480  0.48693793  1
  O  O203  1  -0.00397422  0.61738293  0.80718360  1
  O  O204  1  0.33821483  0.12727865  0.14610687  1
  O  O205  1  0.33711764  0.12609033  0.47736597  1
  O  O206  1  0.34137018  0.12483723  0.81288280  1
  O  O207  1  0.33136270  0.61881410  0.14789557  1
  O  O208  1  0.33463465  0.62114810  0.47642313  1
  O  O209  1  0.33893205  0.62323819  0.81365902  1
  O  O210  1  0.67030545  0.12593477  0.13474424  1
  O  O211  1  0.66971359  0.12685386  0.47358085  1
  O  O212  1  0.66312175  0.12615339  0.82301422  1
  O  O213  1  0.67381704  0.62330435  0.15572955  1
  O  O214  1  0.67226008  0.62404922  0.48791700  1
  O  O215  1  0.66696169  0.62018254  0.80850476  1
  O  O216  1  0.07657750  0.02032036  0.25273134  1
  O  O217  1  0.09016071  0.01416240  0.57451295  1
  O  O218  1  0.08434872  0.01014888  0.91758626  1
  O  O219  1  0.08933595  0.50449944  0.24345932  1
  O  O220  1  0.07292547  0.50924081  0.59296298  1
  O  O221  1  0.08115985  0.49978338  0.92058245  1
  O  O222  1  0.41258290  0.02934512  0.26299129  1
  O  O223  1  0.40669633  0.02179397  0.59662942  1
  O  O224  1  0.41200655  0.02757650  0.92896725  1
  O  O225  1  0.40789822  0.50908778  0.26077407  1
  O  O226  1  0.41280214  0.51870786  0.59711721  1
  O  O227  1  0.41031775  0.51051065  0.92751122  1
  O  O228  1  0.74718607  0.03093514  0.24598286  1
  O  O229  1  0.74900736  0.01682095  0.57444238  1
  O  O230  1  0.74251830  0.01796644  0.91979231  1
  O  O231  1  0.75475429  0.50939813  0.24538946  1
  O  O232  1  0.75447047  0.51931361  0.58180240  1
  O  O233  1  0.75657922  0.51360662  0.90603833  1
  O  O234  1  0.24275131  0.22380059  0.24770516  1
  O  O235  1  0.24927598  0.22938230  0.58285160  1
  O  O236  1  0.24733420  0.22185257  0.91744548  1
  O  O237  1  0.25074203  0.73133630  0.24954007  1
  O  O238  1  0.25361416  0.73292802  0.58796827  1
  O  O239  1  0.25368852  0.73639385  0.92342463  1
  O  O240  1  0.57762011  0.22821506  0.24634284  1
  O  O241  1  0.57532985  0.23690345  0.56870238  1
  O  O242  1  0.57336747  0.23554702  0.91434588  1
  O  O243  1  0.58436407  0.75199893  0.24738703  1
  O  O244  1  0.58998809  0.74277383  0.59244812  1
  O  O245  1  0.57975162  0.74604882  0.91595231  1
  O  O246  1  0.90852336  0.22747872  0.24519820  1
  O  O247  1  0.90975570  0.23472137  0.56826731  1
  O  O248  1  0.90213345  0.23340108  0.90146190  1
  O  O249  1  0.91085509  0.73201005  0.23494246  1
  O  O250  1  0.91314950  0.73014139  0.58053700  1
  O  O251  1  0.91445523  0.72952982  0.91299247  1
  O  O252  1  0.08789139  0.47001295  0.08383229  1
  O  O253  1  0.08537122  0.47598960  0.41801077  1
  O  O254  1  0.08266482  0.47267603  0.75391506  1
  O  O255  1  0.08171842  0.98601355  0.08382315  1
  O  O256  1  0.08393214  0.98290431  0.41554334  1
  O  O257  1  0.08952690  0.99591929  0.74953112  1
  O  O258  1  0.41770128  0.47444290  0.09302817  1
  O  O259  1  0.42338204  0.47810880  0.42594221  1
  O  O260  1  0.42234573  0.48321151  0.76453836  1
  O  O261  1  0.43392099  0.99206967  0.09652008  1
  O  O262  1  0.42386399  0.98669033  0.43587819  1
  O  O263  1  0.42235414  0.97835312  0.76090221  1
  O  O264  1  0.75764469  0.48286479  0.08372949  1
  O  O265  1  0.75149127  0.47591939  0.41673627  1
  O  O266  1  0.75292534  0.47825565  0.74487759  1
  O  O267  1  0.75547129  0.97942887  0.08600435  1
  O  O268  1  0.74660471  0.98765292  0.40233001  1
  O  O269  1  0.74360292  0.99317436  0.74895264  1
  O  O270  1  0.25595608  0.26806544  0.07988737  1
  O  O271  1  0.24727009  0.25993709  0.41673976  1
  O  O272  1  0.24429897  0.26125891  0.75938712  1
  O  O273  1  0.25978228  0.75785290  0.08107920  1
  O  O274  1  0.24624147  0.76510902  0.42118310  1
  O  O275  1  0.25972995  0.76138827  0.74630683  1
  O  O276  1  0.58700754  0.27293126  0.08148968  1
  O  O277  1  0.59021639  0.27378775  0.40820153  1
  O  O278  1  0.58329566  0.26785430  0.74970984  1
  O  O279  1  0.58844510  0.77473741  0.08064882  1
  O  O280  1  0.58323929  0.77164438  0.41747661  1
  O  O281  1  0.58182398  0.77745637  0.75037293  1
  O  O282  1  0.91952691  0.27018850  0.07522367  1
  O  O283  1  0.91902829  0.27238191  0.40747477  1
  O  O284  1  0.91832712  0.27282668  0.74010361  1
  O  O285  1  0.92153398  0.77211264  0.07585536  1
  O  O286  1  0.92034308  0.76554242  0.40448669  1
  O  O287  1  0.91381453  0.74905565  0.74541985  1
  O  O288  1  0.25328110  0.47695566  0.08735337  1
  O  O289  1  0.24968745  0.48074973  0.41614737  1
  O  O290  1  0.24642623  0.48536287  0.75838231  1
  O  O291  1  0.26413603  0.99087468  0.07091547  1
  O  O292  1  0.24632193  0.99385523  0.42388423  1
  O  O293  1  0.26241748  0.98892980  0.74080550  1
  O  O294  1  0.58449929  0.47956531  0.08480735  1
  O  O295  1  0.58456811  0.47711544  0.41721220  1
  O  O296  1  0.58423838  0.47763823  0.75035840  1
  O  O297  1  0.59326769  0.97435466  0.07367373  1
  O  O298  1  0.58782607  0.97561403  0.41088756  1
  O  O299  1  0.58369229  0.97409387  0.74397002  1
  O  O300  1  0.92236574  0.47851105  0.07853315  1
  O  O301  1  0.91529908  0.47493653  0.41439098  1
  O  O302  1  0.91376156  0.47734409  0.74551142  1
  O  O303  1  0.91988720  0.97844719  0.07791243  1
  O  O304  1  0.92426954  0.98981731  0.39778312  1
  O  O305  1  0.91414218  1.00153922  0.74926405  1
  O  O306  1  0.09128813  0.27421272  0.08513492  1
  O  O307  1  0.08367070  0.27903419  0.41605767  1
  O  O308  1  0.08166738  0.27537630  0.74924405  1
  O  O309  1  0.08112913  0.76731682  0.08091407  1
  O  O310  1  0.08401285  0.76630518  0.41571170  1
  O  O311  1  0.08310018  0.75539094  0.74613063  1
  O  O312  1  0.42507309  0.26723946  0.09662523  1
  O  O313  1  0.42780031  0.26285411  0.42973854  1
  O  O314  1  0.42180761  0.26567185  0.77011238  1
  O  O315  1  0.42369175  0.76741152  0.08959668  1
  O  O316  1  0.42093625  0.77123555  0.43102399  1
  O  O317  1  0.42091802  0.77156073  0.75854869  1
  O  O318  1  0.75988188  0.26891266  0.08749248  1
  O  O319  1  0.75297573  0.27091889  0.41445902  1
  O  O320  1  0.75744014  0.26392260  0.75414284  1
  O  O321  1  0.75329607  0.76802702  0.08235320  1
  O  O322  1  0.74619741  0.76684963  0.40849180  1
  O  O323  1  0.73949999  0.75753744  0.73817764  1
  O  O324  1  0.24351659  0.02428107  0.24980875  1
  O  O325  1  0.24813493  0.03092818  0.58200695  1
  O  O326  1  0.24559285  0.02757134  0.90938607  1
  O  O327  1  0.24956482  0.51913768  0.24762032  1
  O  O328  1  0.25184546  0.51130436  0.58746275  1
  O  O329  1  0.25469007  0.51859456  0.92693558  1
  O  O330  1  0.58187324  0.02415163  0.23887371  1
  O  O331  1  0.56926725  0.01278566  0.57589789  1
  O  O332  1  0.57269534  0.01814067  0.91045506  1
  O  O333  1  0.58280474  0.49547001  0.25210106  1
  O  O334  1  0.59022461  0.51004088  0.58716927  1
  O  O335  1  0.58054576  0.50199639  0.91224451  1
  O  O336  1  0.90903278  0.02882831  0.23995109  1
  O  O337  1  0.91250787  0.01810167  0.56924718  1
  O  O338  1  0.90628898  0.01904130  0.91000237  1
  O  O339  1  0.91326720  0.51179374  0.24026856  1
  O  O340  1  0.91234268  0.52296920  0.58553568  1
  O  O341  1  0.91528857  0.52164163  0.91171434  1
  O  O342  1  0.07926684  0.23136161  0.25440771  1
  O  O343  1  0.08775449  0.23817983  0.57331389  1
  O  O344  1  0.08771994  0.24900768  0.91439735  1
  O  O345  1  0.08745302  0.73967204  0.24624206  1
  O  O346  1  0.07935107  0.74066168  0.58456682  1
  O  O347  1  0.07937774  0.74397667  0.92190952  1
  O  O348  1  0.41179076  0.22360890  0.26372323  1
  O  O349  1  0.41256247  0.22748155  0.59390993  1
  O  O350  1  0.41005994  0.22740350  0.93217172  1
  O  O351  1  0.40942276  0.73499303  0.25981956  1
  O  O352  1  0.40993333  0.73229275  0.60004773  1
  O  O353  1  0.41199794  0.73644545  0.92556727  1
  O  O354  1  0.74440403  0.22344618  0.25208890  1
  O  O355  1  0.75141534  0.23815405  0.57540029  1
  O  O356  1  0.74305956  0.23135505  0.92066137  1
  O  O357  1  0.75509305  0.73889070  0.24307754  1
  O  O358  1  0.75323082  0.72796674  0.57918368  1
  O  O359  1  0.75321742  0.73311056  0.90971295  1
