# generated using pymatgen
data_Ba17Sr5La8Pr42Mn72O216
_symmetry_space_group_name_H-M   'P 1'
_cell_length_a   16.68112837
_cell_length_b   15.70331928
_cell_length_c   16.82913277
_cell_angle_alpha   90.00942117
_cell_angle_beta   90.02479022
_cell_angle_gamma   90.00358469
_symmetry_Int_Tables_number   1
_chemical_formula_structural   Ba17Sr5La8Pr42Mn72O216
_chemical_formula_sum   'Ba17 Sr5 La8 Pr42 Mn72 O216'
_cell_volume   4408.37544715
_cell_formula_units_Z   1
loop_
 _symmetry_equiv_pos_site_id
 _symmetry_equiv_pos_as_xyz
  1  'x, y, z'
loop_
 _atom_site_type_symbol
 _atom_site_label
 _atom_site_symmetry_multiplicity
 _atom_site_fract_x
 _atom_site_fract_y
 _atom_site_fract_z
 _atom_site_occupancy
  Ba  Ba0  1  0.66712101  0.87471117  0.00096073  1
  Ba  Ba1  1  0.49863337  0.87593490  0.16779763  1
  Ba  Ba2  1  0.16575488  0.62319135  0.16863898  1
  Ba  Ba3  1  0.83604154  0.37684783  0.49790371  1
  Ba  Ba4  1  0.16723008  0.37437648  0.83244062  1
  Ba  Ba5  1  0.66547509  0.62597342  0.99694073  1
  Ba  Ba6  1  0.00001692  0.12342386  0.33455947  1
  Ba  Ba7  1  0.33284175  0.87412675  0.33651567  1
  Ba  Ba8  1  0.83235596  0.12634494  0.50136389  1
  Ba  Ba9  1  0.00021701  0.87516469  0.00139062  1
  Ba  Ba10  1  0.16888053  0.62581056  0.83579415  1
  Ba  Ba11  1  0.66738185  0.87394705  0.33429144  1
  Ba  Ba12  1  0.16714330  0.37340490  0.16455640  1
  Ba  Ba13  1  0.49819347  0.37564360  0.50011170  1
  Ba  Ba14  1  0.49878718  0.12497605  0.16633690  1
  Ba  Ba15  1  0.33530445  0.87648651  0.66868041  1
  Ba  Ba16  1  0.50187048  0.62471673  0.16348840  1
  Sr  Sr17  1  0.16504567  0.12542632  0.17135810  1
  Sr  Sr18  1  0.00177841  0.87537474  0.33215197  1
  Sr  Sr19  1  0.33352313  0.37477147  -0.00118224  1
  Sr  Sr20  1  0.32804523  0.12632359  0.66353368  1
  Sr  Sr21  1  0.16681451  0.12178805  0.50119537  1
  La  La22  1  0.83156918  0.12072319  0.17064145  1
  La  La23  1  0.49915219  0.62682857  0.49806226  1
  La  La24  1  0.00193623  0.62382038  0.66511947  1
  La  La25  1  0.66658217  0.61936547  0.32801890  1
  La  La26  1  0.50330582  0.37588375  0.82649210  1
  La  La27  1  0.49869886  0.37496475  0.16220456  1
  La  La28  1  0.66706966  0.37496705  0.33177543  1
  La  La29  1  0.66477483  0.62180845  0.66662599  1
  Pr  Pr30  1  0.00287071  0.12651222  0.65836197  1
  Pr  Pr31  1  0.49030005  0.12404003  0.83446333  1
  Pr  Pr32  1  0.32891193  0.12719966  0.33201652  1
  Pr  Pr33  1  0.83487164  0.87761010  0.16472762  1
  Pr  Pr34  1  0.83395586  0.37958573  0.82900697  1
  Pr  Pr35  1  0.83161720  0.12462088  0.83500477  1
  Pr  Pr36  1  0.00364560  0.62295201  0.99678308  1
  Pr  Pr37  1  0.16945796  0.63148019  0.50379437  1
  Pr  Pr38  1  0.49989396  0.87623436  0.49195009  1
  Pr  Pr39  1  0.16406670  0.87914990  0.49893358  1
  Pr  Pr40  1  -0.00049669  0.37154258  0.66871376  1
  Pr  Pr41  1  0.67422579  0.37328526  0.66613844  1
  Pr  Pr42  1  0.00063012  0.87883236  0.67013412  1
  Pr  Pr43  1  0.83544189  0.62568156  0.83906883  1
  Pr  Pr44  1  0.32893392  0.87391905  0.00749800  1
  Pr  Pr45  1  0.33246438  0.62232588  0.66704468  1
  Pr  Pr46  1  0.49537697  0.62737887  0.83840505  1
  Pr  Pr47  1  0.66483581  0.13003263  0.33155522  1
  Pr  Pr48  1  0.49509628  0.12321604  0.49993840  1
  Pr  Pr49  1  0.32823194  0.12703567  1.00307367  1
  Pr  Pr50  1  0.50738453  0.87503381  0.83137612  1
  Pr  Pr51  1  0.16274721  0.87433391  0.83269630  1
  Pr  Pr52  1  0.83636058  0.37346431  0.16407739  1
  Pr  Pr53  1  0.16961805  0.12094330  0.83489248  1
  Pr  Pr54  1  -0.00236177  0.62316864  0.33045003  1
  Pr  Pr55  1  0.83260755  0.63076202  0.16541304  1
  Pr  Pr56  1  0.00670397  0.37354640  0.33352977  1
  Pr  Pr57  1  0.16283599  0.87949592  0.16783446  1
  Pr  Pr58  1  0.83357559  0.87232767  0.83340291  1
  Pr  Pr59  1  0.66032887  0.12688809  0.66029667  1
  Pr  Pr60  1  0.00380415  0.37702031  0.00140012  1
  Pr  Pr61  1  0.67028909  0.37364585  0.00090875  1
  Pr  Pr62  1  0.83143034  0.62753036  0.50120054  1
  Pr  Pr63  1  0.16851583  0.37055010  0.49954620  1
  Pr  Pr64  1  0.65816894  0.12195984  0.99648200  1
  Pr  Pr65  1  0.00119536  0.12632489  1.00080275  1
  Pr  Pr66  1  0.33482295  0.62199611  1.00013100  1
  Pr  Pr67  1  0.67157919  0.87698469  0.66722136  1
  Pr  Pr68  1  0.83954836  0.87558895  0.49566793  1
  Pr  Pr69  1  0.33105856  0.37522874  0.33310536  1
  Pr  Pr70  1  0.33893930  0.62214921  0.33001565  1
  Pr  Pr71  1  0.33589979  0.37165711  0.67272173  1
  Mn  Mn72  1  -0.00046947  -0.00007746  0.16732572  1
  Mn  Mn73  1  0.00007179  -0.00078327  0.50151949  1
  Mn  Mn74  1  -0.00204522  0.00189857  0.83208161  1
  Mn  Mn75  1  -0.00256229  0.50077473  0.16589608  1
  Mn  Mn76  1  0.00253336  0.50182012  0.49865806  1
  Mn  Mn77  1  0.00010652  0.49876012  0.83229432  1
  Mn  Mn78  1  0.33051129  0.00113701  0.16883203  1
  Mn  Mn79  1  0.33280362  0.00105312  0.50245574  1
  Mn  Mn80  1  0.33363637  -0.00040021  0.83651590  1
  Mn  Mn81  1  0.33427395  0.49925473  0.16550329  1
  Mn  Mn82  1  0.33116369  0.50038297  0.50094426  1
  Mn  Mn83  1  0.33477570  0.49883008  0.83286114  1
  Mn  Mn84  1  0.66692629  0.00129800  0.16631859  1
  Mn  Mn85  1  0.66574006  0.00045901  0.50128549  1
  Mn  Mn86  1  0.66788109  0.00179169  0.82973104  1
  Mn  Mn87  1  0.66985236  0.49837254  0.16469219  1
  Mn  Mn88  1  0.66711182  0.50079780  0.49766312  1
  Mn  Mn89  1  0.66666122  0.49888094  0.83106289  1
  Mn  Mn90  1  -0.00202625  0.25032272  0.16540081  1
  Mn  Mn91  1  0.00159747  0.25123035  0.50084102  1
  Mn  Mn92  1  -0.00171641  0.24658706  0.83227682  1
  Mn  Mn93  1  -0.00054698  0.74966133  0.16811388  1
  Mn  Mn94  1  0.00046882  0.74914644  0.49936814  1
  Mn  Mn95  1  -0.00072200  0.75123645  0.83271572  1
  Mn  Mn96  1  0.33332637  0.25027757  0.16637682  1
  Mn  Mn97  1  0.33175593  0.25019845  0.50145380  1
  Mn  Mn98  1  0.33332931  0.24780936  0.83322124  1
  Mn  Mn99  1  0.33081467  0.74975092  0.16882297  1
  Mn  Mn100  1  0.33384883  0.74895243  0.50230839  1
  Mn  Mn101  1  0.33490044  0.75316082  0.83677732  1
  Mn  Mn102  1  0.66851620  0.25103941  0.16389462  1
  Mn  Mn103  1  0.66526006  0.25186124  0.49784898  1
  Mn  Mn104  1  0.66772873  0.24805818  0.83169761  1
  Mn  Mn105  1  0.66778805  0.74953596  0.16720399  1
  Mn  Mn106  1  0.66691523  0.74762705  0.50204666  1
  Mn  Mn107  1  0.66768477  0.75148664  0.82937649  1
  Mn  Mn108  1  0.16584679  0.24773758  -0.00014731  1
  Mn  Mn109  1  0.16698418  0.25015946  0.33411835  1
  Mn  Mn110  1  0.16673640  0.24976580  0.66558728  1
  Mn  Mn111  1  0.16686232  0.75040694  0.00261900  1
  Mn  Mn112  1  0.16496988  0.74932132  0.33662427  1
  Mn  Mn113  1  0.16690532  0.75075124  0.66838629  1
  Mn  Mn114  1  0.49977126  0.25046824  -0.00352120  1
  Mn  Mn115  1  0.49863098  0.25144252  0.33236211  1
  Mn  Mn116  1  0.50004284  0.24867867  0.66611244  1
  Mn  Mn117  1  0.49722350  0.75060739  -0.00153510  1
  Mn  Mn118  1  0.50095200  0.74872665  0.33430453  1
  Mn  Mn119  1  0.50210900  0.74939933  0.66618039  1
  Mn  Mn120  1  0.83374141  0.24886417  -0.00152019  1
  Mn  Mn121  1  0.83349884  0.25062594  0.33074474  1
  Mn  Mn122  1  0.83355897  0.25029155  0.66962981  1
  Mn  Mn123  1  0.83469085  0.75027309  0.00084547  1
  Mn  Mn124  1  0.83492648  0.74918858  0.33483608  1
  Mn  Mn125  1  0.83362411  0.74876020  0.66632369  1
  Mn  Mn126  1  0.16589003  0.00199979  0.00177175  1
  Mn  Mn127  1  0.16641941  -0.00053457  0.33495593  1
  Mn  Mn128  1  0.16625035  -0.00113072  0.66841627  1
  Mn  Mn129  1  0.16769359  0.49907193  -0.00010336  1
  Mn  Mn130  1  0.16643454  0.49969845  0.33799018  1
  Mn  Mn131  1  0.16674018  0.50177869  0.66395200  1
  Mn  Mn132  1  0.49648224  0.00162894  -0.00193698  1
  Mn  Mn133  1  0.50019035  0.00240221  0.33520325  1
  Mn  Mn134  1  0.50079967  -0.00027242  0.66562383  1
  Mn  Mn135  1  0.50044417  0.49665819  -0.00423730  1
  Mn  Mn136  1  0.49953111  0.49745387  0.33147249  1
  Mn  Mn137  1  0.50047620  0.50122699  0.66627770  1
  Mn  Mn138  1  0.83358475  0.00362944  0.00100162  1
  Mn  Mn139  1  0.83254761  -0.00098386  0.33428810  1
  Mn  Mn140  1  0.83324280  -0.00053565  0.66799670  1
  Mn  Mn141  1  0.83451515  0.49825231  -0.00180423  1
  Mn  Mn142  1  0.83563995  0.50029547  0.33067315  1
  Mn  Mn143  1  0.83460897  0.50251980  0.66656692  1
  O  O144  1  0.16594659  0.12438950  0.02082241  1
  O  O145  1  0.17402006  0.12802591  0.35170214  1
  O  O146  1  0.15989491  0.12132301  0.69051461  1
  O  O147  1  0.16405771  0.62589093  0.01038612  1
  O  O148  1  0.15868792  0.62339964  0.36158742  1
  O  O149  1  0.16814080  0.62680408  0.68153834  1
  O  O150  1  0.50602599  0.12778897  0.00971393  1
  O  O151  1  0.50721219  0.12916466  0.35507220  1
  O  O152  1  0.51051697  0.12623161  0.69220325  1
  O  O153  1  0.49501020  0.62105807  0.00622618  1
  O  O154  1  0.50074101  0.62179313  0.35081190  1
  O  O155  1  0.50359536  0.62533581  0.69528173  1
  O  O156  1  0.83960316  0.12859863  0.02693679  1
  O  O157  1  0.82784396  0.12634679  0.34411680  1
  O  O158  1  0.83610390  0.12848519  0.69070761  1
  O  O159  1  0.84109890  0.62024720  0.02040060  1
  O  O160  1  0.83911964  0.62504983  0.35945460  1
  O  O161  1  0.83566325  0.62694037  0.69615062  1
  O  O162  1  0.16589608  0.37615811  0.32064699  1
  O  O163  1  0.16561155  0.37977049  0.64422475  1
  O  O164  1  0.15853849  0.37088762  0.98872335  1
  O  O165  1  0.16543789  0.87170740  0.31234944  1
  O  O166  1  0.15938610  0.87267679  0.64460073  1
  O  O167  1  0.17282489  0.87867483  0.97592404  1
  O  O168  1  0.49280772  0.37426677  0.30976770  1
  O  O169  1  0.48963474  0.37428972  0.65538795  1
  O  O170  1  0.50519596  0.37168664  0.97026658  1
  O  O171  1  0.49880417  0.87464749  0.33045798  1
  O  O172  1  0.50690460  0.87234258  0.63722802  1
  O  O173  1  0.48932540  0.87852955  0.97552253  1
  O  O174  1  0.83450153  0.37666648  0.30801334  1
  O  O175  1  0.83217937  0.37698199  0.65401238  1
  O  O176  1  0.83015222  0.37115704  0.96962609  1
  O  O177  1  0.83488646  0.87101413  0.31028902  1
  O  O178  1  0.82983084  0.86854857  0.63792008  1
  O  O179  1  0.83339855  0.88050646  0.97661904  1
  O  O180  1  -0.00845272  0.37727031  0.18860882  1
  O  O181  1  0.00679915  0.37988335  0.52637830  1
  O  O182  1  -0.00789707  0.36830273  0.85836600  1
  O  O183  1  -0.00076708  0.87262250  0.18298097  1
  O  O184  1  -0.00267694  0.87127771  0.52694899  1
  O  O185  1  -0.00136691  0.87646910  0.84701209  1
  O  O186  1  0.33962365  0.37423847  0.18791356  1
  O  O187  1  0.32787793  0.37825881  0.53025582  1
  O  O188  1  0.34247254  0.37171167  0.84654604  1
  O  O189  1  0.32676802  0.87555734  0.17873406  1
  O  O190  1  0.34569292  0.87287156  0.51230004  1
  O  O191  1  0.33798458  0.87816460  0.86166737  1
  O  O192  1  0.67481442  0.37429705  0.18682374  1
  O  O193  1  0.66711239  0.37796942  0.52281040  1
  O  O194  1  0.66840782  0.36875404  0.85835609  1
  O  O195  1  0.67621776  0.87418172  0.17638669  1
  O  O196  1  0.66006063  0.87124541  0.52518301  1
  O  O197  1  0.66625869  0.87699394  0.84499174  1
  O  O198  1  -0.00648741  0.12703658  0.14609062  1
  O  O199  1  0.00200453  0.12458814  0.49411775  1
  O  O200  1  -0.00717424  0.12384173  0.80211269  1
  O  O201  1  -0.00863929  0.62399908  0.14013919  1
  O  O202  1  0.00042019  0.62576349  0.47271275  1
  O  O203  1  -0.00819575  0.62938611  0.80976008  1
  O  O204  1  0.32861059  0.12581214  0.14728691  1
  O  O205  1  0.33290108  0.12705004  0.47824312  1
  O  O206  1  0.33140839  0.12296907  0.81187666  1
  O  O207  1  0.33298579  0.62481558  0.14555778  1
  O  O208  1  0.32552987  0.62274417  0.47455465  1
  O  O209  1  0.34040959  0.62712665  0.81044819  1
  O  O210  1  0.67359681  0.13020792  0.14034945  1
  O  O211  1  0.66249481  0.12745790  0.47753318  1
  O  O212  1  0.67548176  0.12544823  0.80190557  1
  O  O213  1  0.67320501  0.62153484  0.15443352  1
  O  O214  1  0.67203027  0.62413983  0.47417985  1
  O  O215  1  0.66865611  0.62912487  0.80997947  1
  O  O216  1  0.08468416  0.00692323  0.24778441  1
  O  O217  1  0.07930663  0.01110660  0.58990737  1
  O  O218  1  0.08287419  0.02313415  0.91393494  1
  O  O219  1  0.07457490  0.51186315  0.25985796  1
  O  O220  1  0.08411574  0.52640388  0.57977877  1
  O  O221  1  0.07663539  0.51029894  0.91868769  1
  O  O222  1  0.41184869  0.01714563  0.25852439  1
  O  O223  1  0.41692827  0.02160687  0.58637244  1
  O  O224  1  0.41305288  0.02665245  0.91848411  1
  O  O225  1  0.41505208  0.51363867  0.25168611  1
  O  O226  1  0.41415386  0.52517552  0.58445597  1
  O  O227  1  0.41531086  0.51778011  0.91516244  1
  O  O228  1  0.74500536  0.01999996  0.25308199  1
  O  O229  1  0.73877987  0.01351050  0.59494134  1
  O  O230  1  0.74762669  0.02651945  0.91978308  1
  O  O231  1  0.75525328  0.51949562  0.24784265  1
  O  O232  1  0.75129149  0.52285021  0.58382015  1
  O  O233  1  0.75760468  0.51355063  0.90990750  1
  O  O234  1  0.25232081  0.23785526  0.25449235  1
  O  O235  1  0.24601626  0.23764723  0.57991812  1
  O  O236  1  0.24672554  0.22797209  0.91246209  1
  O  O237  1  0.25284970  0.72922754  0.26272926  1
  O  O238  1  0.25524057  0.73097098  0.58920760  1
  O  O239  1  0.25920617  0.73797178  0.93089111  1
  O  O240  1  0.58707336  0.24178163  0.24778398  1
  O  O241  1  0.57847557  0.23056731  0.58024703  1
  O  O242  1  0.58155563  0.22520528  0.90540876  1
  O  O243  1  0.58806557  0.73605665  0.25710245  1
  O  O244  1  0.58363978  0.72031194  0.58326321  1
  O  O245  1  0.57580964  0.74186943  0.90354613  1
  O  O246  1  0.90697820  0.23857683  0.23846403  1
  O  O247  1  0.92192136  0.24162785  0.59204528  1
  O  O248  1  0.91533941  0.22204373  0.91585104  1
  O  O249  1  0.91554680  0.72647084  0.25043139  1
  O  O250  1  0.91445252  0.72508137  0.58224772  1
  O  O251  1  0.91783444  0.73015844  0.91657207  1
  O  O252  1  0.07515001  0.48972345  0.08002101  1
  O  O253  1  0.08562000  0.47530625  0.42114196  1
  O  O254  1  0.07755230  0.48707660  0.74046638  1
  O  O255  1  0.08565196  0.98831864  0.08648678  1
  O  O256  1  0.08491084  0.98185505  0.42315803  1
  O  O257  1  0.08276203  0.97877221  0.75148489  1
  O  O258  1  0.42375614  0.47892689  0.08071493  1
  O  O259  1  0.40777623  0.48774279  0.41291454  1
  O  O260  1  0.42035922  0.48476972  0.75150415  1
  O  O261  1  0.40646967  0.99161062  0.07846815  1
  O  O262  1  0.42350449  0.99618549  0.42545494  1
  O  O263  1  0.42887190  0.98592456  0.75867929  1
  O  O264  1  0.75214782  0.47676443  0.07896052  1
  O  O265  1  0.74915784  0.48686241  0.40646356  1
  O  O266  1  0.74808430  0.48087169  0.74887344  1
  O  O267  1  0.75819501  0.98995233  0.08983603  1
  O  O268  1  0.75486055  0.98231562  0.42864601  1
  O  O269  1  0.75717306  0.97758589  0.75608928  1
  O  O270  1  0.25778872  0.25845240  0.07808610  1
  O  O271  1  0.25233420  0.27337335  0.41727890  1
  O  O272  1  0.25631962  0.26330617  0.74307128  1
  O  O273  1  0.24353055  0.77158070  0.08970925  1
  O  O274  1  0.24118920  0.76472750  0.43211109  1
  O  O275  1  0.24677446  0.76999814  0.76334724  1
  O  O276  1  0.58997430  0.27106376  0.07580888  1
  O  O277  1  0.58719065  0.26860340  0.40704261  1
  O  O278  1  0.59173055  0.27263887  0.74266417  1
  O  O279  1  0.57815185  0.75771616  0.07855175  1
  O  O280  1  0.57961819  0.75828639  0.42602478  1
  O  O281  1  0.58940297  0.77216434  0.74177848  1
  O  O282  1  0.91671728  0.27592097  0.07663898  1
  O  O283  1  0.92409452  0.26690536  0.40964629  1
  O  O284  1  0.91475857  0.27287617  0.75329413  1
  O  O285  1  0.91116177  0.76504442  0.09096999  1
  O  O286  1  0.91757640  0.76866869  0.41867999  1
  O  O287  1  0.91473694  0.77419028  0.74773594  1
  O  O288  1  0.25583859  0.49105755  0.08059319  1
  O  O289  1  0.24805688  0.47552999  0.42301942  1
  O  O290  1  0.25967619  0.48703860  0.74083655  1
  O  O291  1  0.24569976  0.98094184  0.08558744  1
  O  O292  1  0.24617648  0.98526928  0.42480654  1
  O  O293  1  0.24224255  0.98337890  0.76203655  1
  O  O294  1  0.58669327  0.47583582  0.07729204  1
  O  O295  1  0.58522180  0.48720755  0.41028116  1
  O  O296  1  0.58796116  0.47706487  0.74243467  1
  O  O297  1  0.58518133  0.99601714  0.07721321  1
  O  O298  1  0.58189377  0.98818029  0.42308934  1
  O  O299  1  0.59043992  0.97970300  0.73980506  1
  O  O300  1  0.91411139  0.47329432  0.07905742  1
  O  O301  1  0.92697365  0.48490687  0.40564495  1
  O  O302  1  0.91725352  0.48025501  0.75030048  1
  O  O303  1  0.91448806  0.98775294  0.08494143  1
  O  O304  1  0.91732017  0.98165974  0.42022614  1
  O  O305  1  0.91542889  0.97640646  0.75046160  1
  O  O306  1  0.07353155  0.25950962  0.07544994  1
  O  O307  1  0.08615107  0.27016002  0.41957324  1
  O  O308  1  0.07624236  0.26464588  0.74461675  1
  O  O309  1  0.08609467  0.76412733  0.08976079  1
  O  O310  1  0.08463000  0.77214719  0.42288610  1
  O  O311  1  0.07981248  0.77050314  0.74933029  1
  O  O312  1  0.42288813  0.26786302  0.08713792  1
  O  O313  1  0.41079588  0.26348624  0.41505742  1
  O  O314  1  0.42383187  0.26078951  0.75596769  1
  O  O315  1  0.40654165  0.76123859  0.07423409  1
  O  O316  1  0.42080541  0.75161441  0.42369267  1
  O  O317  1  0.42798796  0.76793512  0.75680673  1
  O  O318  1  0.75409068  0.27415960  0.08216404  1
  O  O319  1  0.74763272  0.26517800  0.40955648  1
  O  O320  1  0.75419745  0.27316474  0.75698416  1
  O  O321  1  0.75659474  0.75882886  0.08842315  1
  O  O322  1  0.75873778  0.76387345  0.42950785  1
  O  O323  1  0.75272496  0.77294740  0.74777562  1
  O  O324  1  0.25098482  0.01765263  0.25316903  1
  O  O325  1  0.24735118  0.00952957  0.58626634  1
  O  O326  1  0.25013352  0.02374839  0.92219778  1
  O  O327  1  0.25452194  0.51280999  0.26420406  1
  O  O328  1  0.24898935  0.52567522  0.58192097  1
  O  O329  1  0.25620411  0.51021438  0.91760640  1
  O  O330  1  0.58614494  0.01587254  0.25533456  1
  O  O331  1  0.57851731  0.02420836  0.57945117  1
  O  O332  1  0.57954250  0.01891056  0.90343805  1
  O  O333  1  0.59000865  0.50460359  0.25064382  1
  O  O334  1  0.58051504  0.52177201  0.58325471  1
  O  O335  1  0.57710603  0.51192992  0.90443528  1
  O  O336  1  0.90994540  0.00864897  0.24327632  1
  O  O337  1  0.91868005  0.00991437  0.59018852  1
  O  O338  1  0.91438887  0.02487240  0.91493835  1
  O  O339  1  0.91280873  0.52499771  0.24456854  1
  O  O340  1  0.91872042  0.52437140  0.58019776  1
  O  O341  1  0.91737456  0.51999365  0.91730498  1
  O  O342  1  0.07955571  0.24359978  0.25012399  1
  O  O343  1  0.08253675  0.23653472  0.58633969  1
  O  O344  1  0.08038110  0.22152314  0.91108954  1
  O  O345  1  0.07587368  0.73298617  0.25722149  1
  O  O346  1  0.08088325  0.72832106  0.58141367  1
  O  O347  1  0.08112519  0.73887404  0.91964039  1
  O  O348  1  0.41048789  0.23366350  0.25638488  1
  O  O349  1  0.41518154  0.23054346  0.58477803  1
  O  O350  1  0.41071460  0.22704826  0.91965910  1
  O  O351  1  0.41432117  0.73466269  0.25428681  1
  O  O352  1  0.41742144  0.72230525  0.58692470  1
  O  O353  1  0.41581584  0.72815401  0.91549738  1
  O  O354  1  0.74650761  0.23210409  0.24858229  1
  O  O355  1  0.74239397  0.23851487  0.59533306  1
  O  O356  1  0.74664488  0.22283300  0.92070229  1
  O  O357  1  0.75294370  0.72646237  0.25666317  1
  O  O358  1  0.74780343  0.72351803  0.58817632  1
  O  O359  1  0.75716013  0.73813580  0.90800296  1
