# generated using pymatgen
data_Ba17Sr5La8Pr42Mn72O216
_symmetry_space_group_name_H-M   'P 1'
_cell_length_a   16.67654204
_cell_length_b   15.69985975
_cell_length_c   16.82391978
_cell_angle_alpha   90.01121893
_cell_angle_beta   89.97395008
_cell_angle_gamma   89.97939555
_symmetry_Int_Tables_number   1
_chemical_formula_structural   Ba17Sr5La8Pr42Mn72O216
_chemical_formula_sum   'Ba17 Sr5 La8 Pr42 Mn72 O216'
_cell_volume   4404.82727229
_cell_formula_units_Z   1
loop_
 _symmetry_equiv_pos_site_id
 _symmetry_equiv_pos_as_xyz
  1  'x, y, z'
loop_
 _atom_site_type_symbol
 _atom_site_label
 _atom_site_symmetry_multiplicity
 _atom_site_fract_x
 _atom_site_fract_y
 _atom_site_fract_z
 _atom_site_occupancy
  Ba  Ba0  1  0.66803414  0.62472072  0.33530285  1
  Ba  Ba1  1  0.16764528  0.37750083  0.83148026  1
  Ba  Ba2  1  0.66519692  0.37483443  0.33443356  1
  Ba  Ba3  1  0.66398369  0.87691619  0.66942720  1
  Ba  Ba4  1  0.16608966  0.12479174  0.49972954  1
  Ba  Ba5  1  0.50029300  0.12274163  0.16830381  1
  Ba  Ba6  1  0.33574735  0.12502296  0.66771382  1
  Ba  Ba7  1  0.33392015  0.62532123  0.33233714  1
  Ba  Ba8  1  0.16793244  0.37355089  0.49772002  1
  Ba  Ba9  1  0.33368172  0.37322699  0.66560300  1
  Ba  Ba10  1  0.50314084  0.62395925  0.83529353  1
  Ba  Ba11  1  0.16601585  0.12369840  0.83284245  1
  Ba  Ba12  1  0.00038400  0.62616278  0.33047754  1
  Ba  Ba13  1  0.83305223  0.37538864  0.83228520  1
  Ba  Ba14  1  0.49731870  0.87634051  0.16797310  1
  Ba  Ba15  1  -0.00185060  0.87502241  0.66671983  1
  Ba  Ba16  1  0.16814760  0.37562683  0.16442157  1
  Sr  Sr17  1  0.00151970  0.62291539  0.99812709  1
  Sr  Sr18  1  0.00113679  0.12625825  0.33290191  1
  Sr  Sr19  1  0.16653217  0.62604858  0.83146365  1
  Sr  Sr20  1  0.83603099  0.12621753  0.49871967  1
  Sr  Sr21  1  0.83447610  0.37613264  0.16275410  1
  La  La22  1  -0.00117763  0.37396896  0.33105858  1
  La  La23  1  0.83323271  0.37368492  0.49577259  1
  La  La24  1  0.67363362  0.62684767  1.00200613  1
  La  La25  1  0.50314164  0.62696441  0.17069664  1
  La  La26  1  0.16956498  0.62600525  0.50297462  1
  La  La27  1  0.16730691  0.62493881  0.16736760  1
  La  La28  1  0.33093733  0.12527219  0.33244559  1
  La  La29  1  0.66318725  0.87513187  0.00131432  1
  Pr  Pr30  1  0.16570953  0.12282625  0.16957451  1
  Pr  Pr31  1  0.49328298  0.37397099  0.49968619  1
  Pr  Pr32  1  0.82911009  0.87372163  0.82761062  1
  Pr  Pr33  1  0.83609780  0.12625481  0.17166396  1
  Pr  Pr34  1  0.33855974  0.61911968  0.66292076  1
  Pr  Pr35  1  0.16284354  0.87010797  0.16739073  1
  Pr  Pr36  1  0.33374065  0.62393813  0.99642382  1
  Pr  Pr37  1  0.65499370  0.87711935  0.34041741  1
  Pr  Pr38  1  0.00341632  0.61881884  0.66319978  1
  Pr  Pr39  1  0.67913042  0.62621900  0.66579879  1
  Pr  Pr40  1  0.82700585  0.87622753  0.49575225  1
  Pr  Pr41  1  -0.00045921  0.13023785  0.99764788  1
  Pr  Pr42  1  0.32570805  0.87556349  0.66813274  1
  Pr  Pr43  1  0.83148465  0.87229961  0.16584677  1
  Pr  Pr44  1  0.66393101  0.37554563  0.67166048  1
  Pr  Pr45  1  0.49784560  0.37716636  0.16782387  1
  Pr  Pr46  1  0.33286070  0.37172027  0.33639170  1
  Pr  Pr47  1  0.16280331  0.87209812  0.82952146  1
  Pr  Pr48  1  0.00555684  0.37605609  0.00170587  1
  Pr  Pr49  1  0.50742181  0.12620032  0.50555297  1
  Pr  Pr50  1  0.50923047  0.62255436  0.50780500  1
  Pr  Pr51  1  0.33233470  0.37465732  -0.00183936  1
  Pr  Pr52  1  0.48917102  0.87366916  0.83193656  1
  Pr  Pr53  1  0.00012559  0.87541315  -0.00123492  1
  Pr  Pr54  1  0.49676246  0.37355009  0.83464942  1
  Pr  Pr55  1  0.48959351  0.87397060  0.49947056  1
  Pr  Pr56  1  0.67324820  0.12508263  1.00214767  1
  Pr  Pr57  1  0.83717798  0.62222645  0.17028932  1
  Pr  Pr58  1  0.50292585  0.12428919  0.83893142  1
  Pr  Pr59  1  0.15859053  0.87883805  0.49782838  1
  Pr  Pr60  1  0.33463751  0.12790579  0.99597086  1
  Pr  Pr61  1  0.67377502  0.12479895  0.33240299  1
  Pr  Pr62  1  -0.00863861  0.87681964  0.33845440  1
  Pr  Pr63  1  0.67504130  0.12549700  0.66721654  1
  Pr  Pr64  1  0.83684947  0.62922734  0.83392292  1
  Pr  Pr65  1  0.00542888  0.37286294  0.66746345  1
  Pr  Pr66  1  0.83577543  0.12032942  0.83310857  1
  Pr  Pr67  1  0.83775737  0.62318796  0.49874307  1
  Pr  Pr68  1  0.66511367  0.37656424  0.00947845  1
  Pr  Pr69  1  0.32414233  0.87373638  -0.00004508  1
  Pr  Pr70  1  0.32605071  0.87735870  0.33406519  1
  Pr  Pr71  1  0.00005906  0.13174700  0.66171829  1
  Mn  Mn72  1  -0.00069179  -0.00233402  0.16624719  1
  Mn  Mn73  1  -0.00381920  0.00108387  0.50048046  1
  Mn  Mn74  1  -0.00196504  -0.00005068  0.83448963  1
  Mn  Mn75  1  -0.00040530  0.50038619  0.16323358  1
  Mn  Mn76  1  0.00038121  0.49962480  0.49744902  1
  Mn  Mn77  1  -0.00031559  0.50156816  0.83241421  1
  Mn  Mn78  1  0.33028396  -0.00156721  0.16481094  1
  Mn  Mn79  1  0.33392178  -0.00112173  0.50125967  1
  Mn  Mn80  1  0.33348965  -0.00111740  0.83448855  1
  Mn  Mn81  1  0.33479428  0.50009138  0.16367097  1
  Mn  Mn82  1  0.33527613  0.50090369  0.49638141  1
  Mn  Mn83  1  0.33393842  0.50296685  0.83236462  1
  Mn  Mn84  1  0.66865417  -0.00072187  0.16838299  1
  Mn  Mn85  1  0.66634960  0.00136603  0.50212036  1
  Mn  Mn86  1  0.66539045  0.00190670  0.83648784  1
  Mn  Mn87  1  0.66685406  0.49973661  0.16717262  1
  Mn  Mn88  1  0.66831502  0.49917017  0.50466812  1
  Mn  Mn89  1  0.66818703  0.49974421  0.83709945  1
  Mn  Mn90  1  -0.00021397  0.24889942  0.16467296  1
  Mn  Mn91  1  -0.00174508  0.25026384  0.49820220  1
  Mn  Mn92  1  -0.00160751  0.25011607  0.83187275  1
  Mn  Mn93  1  -0.00125486  0.75173095  0.16461912  1
  Mn  Mn94  1  -0.00131002  0.75066133  0.49924619  1
  Mn  Mn95  1  -0.00058390  0.74881672  0.83369656  1
  Mn  Mn96  1  0.33345432  0.24905594  0.16568533  1
  Mn  Mn97  1  0.33531735  0.24782684  0.49867912  1
  Mn  Mn98  1  0.33422945  0.24954991  0.83365673  1
  Mn  Mn99  1  0.33246326  0.75068562  0.16428406  1
  Mn  Mn100  1  0.33403065  0.74996595  0.50085030  1
  Mn  Mn101  1  0.33206780  0.74911279  0.83252358  1
  Mn  Mn102  1  0.66729264  0.24862217  0.16767711  1
  Mn  Mn103  1  0.66828450  0.24964703  0.50304060  1
  Mn  Mn104  1  0.66703682  0.24979130  0.83659112  1
  Mn  Mn105  1  0.66727522  0.75194158  0.16807293  1
  Mn  Mn106  1  0.66670207  0.75055756  0.50250755  1
  Mn  Mn107  1  0.66636354  0.74945578  0.83477002  1
  Mn  Mn108  1  0.16725297  0.24931951  0.00020827  1
  Mn  Mn109  1  0.16568050  0.24814744  0.32978897  1
  Mn  Mn110  1  0.16666323  0.24932740  0.66625340  1
  Mn  Mn111  1  0.16487314  0.74933896  -0.00204316  1
  Mn  Mn112  1  0.16522323  0.75105723  0.33347538  1
  Mn  Mn113  1  0.16724166  0.74898967  0.66633453  1
  Mn  Mn114  1  0.50092977  0.25006972  0.00178377  1
  Mn  Mn115  1  0.49958054  0.24793424  0.33617885  1
  Mn  Mn116  1  0.50432454  0.24891648  0.66984690  1
  Mn  Mn117  1  0.49983669  0.75055683  0.00094430  1
  Mn  Mn118  1  0.49795337  0.74993084  0.33604307  1
  Mn  Mn119  1  0.49977434  0.75068148  0.66759994  1
  Mn  Mn120  1  0.83296176  0.24978002  -0.00068737  1
  Mn  Mn121  1  0.83453575  0.25009135  0.33223556  1
  Mn  Mn122  1  0.83292870  0.25139764  0.66429119  1
  Mn  Mn123  1  0.83542086  0.75198331  -0.00108393  1
  Mn  Mn124  1  0.83085280  0.75128180  0.33086968  1
  Mn  Mn125  1  0.83518273  0.74988810  0.66569100  1
  Mn  Mn126  1  0.16502084  -0.00157402  0.00194238  1
  Mn  Mn127  1  0.16391408  -0.00015072  0.33140355  1
  Mn  Mn128  1  0.16446817  -0.00115924  0.66620556  1
  Mn  Mn129  1  0.16704685  0.50293486  -0.00293220  1
  Mn  Mn130  1  0.16667131  0.50026223  0.33127097  1
  Mn  Mn131  1  0.16751153  0.50177873  0.66584942  1
  Mn  Mn132  1  0.49984945  -0.00054860  -0.00128236  1
  Mn  Mn133  1  0.49749034  0.00054440  0.33857102  1
  Mn  Mn134  1  0.50070793  -0.00021255  0.66884894  1
  Mn  Mn135  1  0.50068884  0.49984962  0.00312535  1
  Mn  Mn136  1  0.49965091  0.50021612  0.33416501  1
  Mn  Mn137  1  0.50350599  0.49903397  0.67039779  1
  Mn  Mn138  1  0.83514496  -0.00147768  0.00048830  1
  Mn  Mn139  1  0.83221278  0.00140564  0.33168596  1
  Mn  Mn140  1  0.83375762  0.00125825  0.66565471  1
  Mn  Mn141  1  0.83391380  0.50074465  -0.00145626  1
  Mn  Mn142  1  0.83382062  0.49840517  0.33172234  1
  Mn  Mn143  1  0.83468606  0.49910441  0.66477956  1
  O  O144  1  0.16466286  0.11977917  0.02452231  1
  O  O145  1  0.16695854  0.12143920  0.34363638  1
  O  O146  1  0.15430112  0.12209026  0.67401399  1
  O  O147  1  0.17100088  0.62766760  0.02368942  1
  O  O148  1  0.16516110  0.63030378  0.35804660  1
  O  O149  1  0.15729355  0.62738318  0.67949640  1
  O  O150  1  0.48423800  0.12385024  0.01066437  1
  O  O151  1  0.49198565  0.12281454  0.36164174  1
  O  O152  1  0.50661626  0.12552488  0.69402181  1
  O  O153  1  0.48936816  0.62167174  0.02636777  1
  O  O154  1  0.49865428  0.62753001  0.36118190  1
  O  O155  1  0.48828540  0.62612984  0.67826178  1
  O  O156  1  0.83545315  0.12138223  0.02871348  1
  O  O157  1  0.82827980  0.12486311  0.35003332  1
  O  O158  1  0.83323256  0.12752950  0.68967425  1
  O  O159  1  0.83050710  0.62993485  0.02793057  1
  O  O160  1  0.83357504  0.62728573  0.35310749  1
  O  O161  1  0.83267075  0.62401998  0.68938726  1
  O  O162  1  0.17165393  0.37196432  0.32062145  1
  O  O163  1  0.16087179  0.37816256  0.65677679  1
  O  O164  1  0.16600909  0.37861835  0.98827224  1
  O  O165  1  0.17171168  0.87598975  0.31087632  1
  O  O166  1  0.17395018  0.87099739  0.64422226  1
  O  O167  1  0.16797604  0.87482766  0.97209213  1
  O  O168  1  0.49494744  0.37185378  0.31136668  1
  O  O169  1  0.51242415  0.37257336  0.64411393  1
  O  O170  1  0.51129113  0.37578292  0.97809256  1
  O  O171  1  0.50670953  0.87610813  0.32487024  1
  O  O172  1  0.49778686  0.87488727  0.64378741  1
  O  O173  1  0.51154073  0.87784165  0.97697289  1
  O  O174  1  0.83968622  0.37230588  0.31607987  1
  O  O175  1  0.82893652  0.37581211  0.63975966  1
  O  O176  1  0.82529929  0.37375845  0.98693346  1
  O  O177  1  0.83798184  0.87713759  0.31024465  1
  O  O178  1  0.83248604  0.87456854  0.64133708  1
  O  O179  1  0.83922517  0.87715384  0.96847299  1
  O  O180  1  -0.00177671  0.37199765  0.18543229  1
  O  O181  1  -0.00903089  0.37758086  0.52260377  1
  O  O182  1  -0.00142042  0.37669491  0.85651445  1
  O  O183  1  -0.00030447  0.87653485  0.19508090  1
  O  O184  1  -0.00830665  0.87448859  0.51079042  1
  O  O185  1  -0.00427569  0.87520481  0.85595343  1
  O  O186  1  0.33850757  0.37443232  0.19190393  1
  O  O187  1  0.33919349  0.37489432  0.50758652  1
  O  O188  1  0.33745485  0.37621952  0.85229422  1
  O  O189  1  0.32523414  0.87541929  0.18967921  1
  O  O190  1  0.33867543  0.87288341  0.52564067  1
  O  O191  1  0.32974670  0.87406467  0.85535116  1
  O  O192  1  0.66272123  0.37408504  0.17588873  1
  O  O193  1  0.67342557  0.37558761  0.52828486  1
  O  O194  1  0.66550104  0.37098885  0.86547279  1
  O  O195  1  0.67420571  0.87745384  0.19449575  1
  O  O196  1  0.67420590  0.87653287  0.51356665  1
  O  O197  1  0.67617056  0.87541028  0.85784181  1
  O  O198  1  -0.00188866  0.12008679  0.13945417  1
  O  O199  1  -0.00249054  0.12399657  0.48399608  1
  O  O200  1  -0.00834686  0.12314114  0.80774677  1
  O  O201  1  -0.00734150  0.62984498  0.14681277  1
  O  O202  1  0.00130515  0.62661230  0.48626953  1
  O  O203  1  -0.00720642  0.62558741  0.80708081  1
  O  O204  1  0.32646962  0.12087752  0.14029879  1
  O  O205  1  0.34313876  0.12209382  0.47821890  1
  O  O206  1  0.34629121  0.12263732  0.82918673  1
  O  O207  1  0.33393116  0.62717049  0.13980103  1
  O  O208  1  0.33721517  0.62648854  0.48873009  1
  O  O209  1  0.33582175  0.62935184  0.80899457  1
  O  O210  1  0.67504579  0.12246121  0.14650827  1
  O  O211  1  0.65954418  0.12403743  0.47543008  1
  O  O212  1  0.66109037  0.12755142  0.80976670  1
  O  O213  1  0.66494925  0.62538496  0.14758847  1
  O  O214  1  0.66206888  0.62483537  0.49121423  1
  O  O215  1  0.67115415  0.62715248  0.80947028  1
  O  O216  1  0.08554888  0.01571718  0.24264397  1
  O  O217  1  0.08237459  0.00343728  0.58027479  1
  O  O218  1  0.07614804  0.01336046  0.92566236  1
  O  O219  1  0.08613332  0.51468812  0.24126711  1
  O  O220  1  0.08503737  0.51800970  0.57887697  1
  O  O221  1  0.08298199  0.51621356  0.91427001  1
  O  O222  1  0.41104132  0.01012731  0.25417300  1
  O  O223  1  0.43014098  0.01315065  0.57398277  1
  O  O224  1  0.42945313  0.00508263  0.90415485  1
  O  O225  1  0.42250572  0.51572742  0.23754298  1
  O  O226  1  0.42356872  0.51174049  0.57618866  1
  O  O227  1  0.41348110  0.51003651  0.92410608  1
  O  O228  1  0.75589292  0.02179712  0.24624142  1
  O  O229  1  0.75289962  0.01962780  0.57928617  1
  O  O230  1  0.75269917  0.02424092  0.91787303  1
  O  O231  1  0.75461907  0.51286837  0.24133349  1
  O  O232  1  0.75691900  0.52492126  0.58045200  1
  O  O233  1  0.75439768  0.52564388  0.91302516  1
  O  O234  1  0.24691210  0.22747586  0.24227640  1
  O  O235  1  0.25406819  0.24163499  0.57926108  1
  O  O236  1  0.25574865  0.23711131  0.92131029  1
  O  O237  1  0.24811733  0.73663392  0.24520565  1
  O  O238  1  0.26091797  0.72837391  0.59188733  1
  O  O239  1  0.25567266  0.73280435  0.92200062  1
  O  O240  1  0.58734734  0.22997322  0.26210006  1
  O  O241  1  0.59246254  0.22723250  0.59328187  1
  O  O242  1  0.58527692  0.22416655  0.92240763  1
  O  O243  1  0.58226811  0.73943436  0.25654261  1
  O  O244  1  0.58962301  0.72912182  0.59546539  1
  O  O245  1  0.59451690  0.73515331  0.92729331  1
  O  O246  1  0.91671598  0.23046732  0.24489676  1
  O  O247  1  0.91601114  0.23448569  0.58225403  1
  O  O248  1  0.91349086  0.22719293  0.91349673  1
  O  O249  1  0.91339151  0.73999964  0.24507554  1
  O  O250  1  0.92126379  0.72611111  0.58666579  1
  O  O251  1  0.91749594  0.72978496  0.91790196  1
  O  O252  1  0.07913326  0.49007670  0.07660890  1
  O  O253  1  0.07582168  0.48286169  0.41019941  1
  O  O254  1  0.07628867  0.49065499  0.74182360  1
  O  O255  1  0.08103920  0.97176335  0.08418357  1
  O  O256  1  0.07760848  0.97831894  0.41147515  1
  O  O257  1  0.08397481  0.98169927  0.75898699  1
  O  O258  1  0.41722988  0.47066946  0.08130276  1
  O  O259  1  0.41538968  0.47812879  0.41074149  1
  O  O260  1  0.42258160  0.48334335  0.75254999  1
  O  O261  1  0.40597192  0.98275853  0.06952518  1
  O  O262  1  0.40866884  0.97424553  0.41324659  1
  O  O263  1  0.40910259  0.97599265  0.74414209  1
  O  O264  1  0.74271224  0.49001972  0.07565167  1
  O  O265  1  0.75318065  0.48834484  0.42354191  1
  O  O266  1  0.74428417  0.48592094  0.73894689  1
  O  O267  1  0.75322147  0.97524392  0.07871891  1
  O  O268  1  0.74142713  0.98311710  0.40805403  1
  O  O269  1  0.74906238  0.99267497  0.75289327  1
  O  O270  1  0.25986517  0.26224564  0.07620806  1
  O  O271  1  0.25730222  0.25440568  0.40335867  1
  O  O272  1  0.25271610  0.25193624  0.75173042  1
  O  O273  1  0.24372912  0.77220376  0.08429354  1
  O  O274  1  0.24428314  0.77268255  0.42746977  1
  O  O275  1  0.24619204  0.77069312  0.75384743  1
  O  O276  1  0.58165721  0.26364124  0.08458965  1
  O  O277  1  0.57641220  0.26546762  0.43285043  1
  O  O278  1  0.58303605  0.27492980  0.75828944  1
  O  O279  1  0.58533785  0.76144067  0.08658007  1
  O  O280  1  0.57617541  0.76727884  0.42967781  1
  O  O281  1  0.57424108  0.76771165  0.76212902  1
  O  O282  1  0.92113086  0.26606902  0.07474269  1
  O  O283  1  0.91683124  0.26955786  0.41535453  1
  O  O284  1  0.92079801  0.26641912  0.74040414  1
  O  O285  1  0.91503146  0.77794513  0.08304991  1
  O  O286  1  0.90747120  0.76899959  0.41834362  1
  O  O287  1  0.90788052  0.76466655  0.75788848  1
  O  O288  1  0.25987654  0.48912731  0.07343145  1
  O  O289  1  0.25410134  0.48971215  0.41264110  1
  O  O290  1  0.25396489  0.50212590  0.74359896  1
  O  O291  1  0.24205446  0.97385483  0.08730833  1
  O  O292  1  0.24619006  0.97871593  0.41836340  1
  O  O293  1  0.24642391  0.98061627  0.75550898  1
  O  O294  1  0.57721751  0.48288151  0.09084047  1
  O  O295  1  0.57631931  0.48533110  0.43537642  1
  O  O296  1  0.58324464  0.47580486  0.76174076  1
  O  O297  1  0.58671746  0.98995042  0.08264632  1
  O  O298  1  0.57371362  0.98283574  0.43168008  1
  O  O299  1  0.57022658  0.98416904  0.76623436  1
  O  O300  1  0.91790419  0.48193243  0.07695205  1
  O  O301  1  0.91519497  0.48259423  0.41822031  1
  O  O302  1  0.92057128  0.48383501  0.73930625  1
  O  O303  1  0.91663299  0.97262425  0.08353010  1
  O  O304  1  0.90810085  0.98099686  0.41876602  1
  O  O305  1  0.90706965  0.98457704  0.76020187  1
  O  O306  1  0.07945313  0.26030698  0.07950856  1
  O  O307  1  0.07639241  0.26325517  0.40907029  1
  O  O308  1  0.07754016  0.26136927  0.74722563  1
  O  O309  1  0.07953679  0.77365520  0.07923046  1
  O  O310  1  0.07714530  0.77629191  0.41235129  1
  O  O311  1  0.08398607  0.76459985  0.75342374  1
  O  O312  1  0.41905764  0.27445890  0.08454889  1
  O  O313  1  0.41679315  0.26996009  0.41454362  1
  O  O314  1  0.42448328  0.26340495  0.75667397  1
  O  O315  1  0.40624706  0.76895262  0.07442331  1
  O  O316  1  0.40772803  0.77496827  0.41000446  1
  O  O317  1  0.40990908  0.77294820  0.74319712  1
  O  O318  1  0.74653389  0.26067749  0.07692739  1
  O  O319  1  0.75110073  0.26213075  0.42082973  1
  O  O320  1  0.74324919  0.26396918  0.74344842  1
  O  O321  1  0.74980805  0.77573730  0.07581363  1
  O  O322  1  0.74561371  0.77261754  0.40899367  1
  O  O323  1  0.74948718  0.76205295  0.74969453  1
  O  O324  1  0.24955199  0.01926059  0.25027577  1
  O  O325  1  0.25641736  0.00375658  0.58428377  1
  O  O326  1  0.26079611  0.01308917  0.92852995  1
  O  O327  1  0.24830139  0.51754115  0.23959800  1
  O  O328  1  0.25219088  0.52064774  0.58143475  1
  O  O329  1  0.25192515  0.52088756  0.91576488  1
  O  O330  1  0.59123709  0.01475236  0.26913818  1
  O  O331  1  0.59098778  0.02354277  0.59303934  1
  O  O332  1  0.58994979  0.02479757  0.92483315  1
  O  O333  1  0.58083925  0.51335931  0.25126298  1
  O  O334  1  0.59395515  0.51897893  0.59921688  1
  O  O335  1  0.59191173  0.51858611  0.93376768  1
  O  O336  1  0.91714341  0.01849046  0.24814726  1
  O  O337  1  0.92019539  0.02116209  0.59019479  1
  O  O338  1  0.91731777  0.02545415  0.92021994  1
  O  O339  1  0.91505937  0.51181011  0.24269997  1
  O  O340  1  0.91777553  0.52247225  0.58155553  1
  O  O341  1  0.91409885  0.52071479  0.91185897  1
  O  O342  1  0.08378981  0.23038126  0.24454568  1
  O  O343  1  0.07487423  0.24299227  0.58572962  1
  O  O344  1  0.07621899  0.23683429  0.92155126  1
  O  O345  1  0.08815068  0.73806825  0.23755800  1
  O  O346  1  0.09212661  0.73816289  0.57531855  1
  O  O347  1  0.08500914  0.73810194  0.91451906  1
  O  O348  1  0.40802800  0.23179016  0.25456350  1
  O  O349  1  0.43044237  0.23767837  0.57801980  1
  O  O350  1  0.41875122  0.24428637  0.91983029  1
  O  O351  1  0.42097795  0.73565472  0.24083429  1
  O  O352  1  0.42715761  0.73558362  0.57240262  1
  O  O353  1  0.41765618  0.74258487  0.91386888  1
  O  O354  1  0.75234062  0.23065515  0.24933815  1
  O  O355  1  0.75114649  0.22796170  0.58335227  1
  O  O356  1  0.75143747  0.22117362  0.91482790  1
  O  O357  1  0.75870454  0.73488830  0.23837103  1
  O  O358  1  0.75855027  0.72926207  0.57624177  1
  O  O359  1  0.75587999  0.73043393  0.91382479  1
