# generated using pymatgen
data_Ba17Sr5La8Pr42Mn72O216
_symmetry_space_group_name_H-M   'P 1'
_cell_length_a   16.67918423
_cell_length_b   15.70489804
_cell_length_c   16.82350876
_cell_angle_alpha   90.00256980
_cell_angle_beta   90.02216198
_cell_angle_gamma   89.98807830
_symmetry_Int_Tables_number   1
_chemical_formula_structural   Ba17Sr5La8Pr42Mn72O216
_chemical_formula_sum   'Ba17 Sr5 La8 Pr42 Mn72 O216'
_cell_volume   4406.83168364
_cell_formula_units_Z   1
loop_
 _symmetry_equiv_pos_site_id
 _symmetry_equiv_pos_as_xyz
  1  'x, y, z'
loop_
 _atom_site_type_symbol
 _atom_site_label
 _atom_site_symmetry_multiplicity
 _atom_site_fract_x
 _atom_site_fract_y
 _atom_site_fract_z
 _atom_site_occupancy
  Ba  Ba0  1  0.83312809  0.12659051  0.83363565  1
  Ba  Ba1  1  0.66857476  0.62328888  0.33133993  1
  Ba  Ba2  1  0.16643854  0.12492652  0.50154370  1
  Ba  Ba3  1  0.33523252  0.87598891  0.33143325  1
  Ba  Ba4  1  0.50127121  0.87395299  0.83181363  1
  Ba  Ba5  1  0.16601817  0.62505498  0.50352816  1
  Ba  Ba6  1  0.00345353  0.87520536  0.00198668  1
  Ba  Ba7  1  0.49887530  0.37498330  0.49464116  1
  Ba  Ba8  1  0.66998635  0.87443926  0.33333140  1
  Ba  Ba9  1  0.00189846  0.12601534  1.00014688  1
  Ba  Ba10  1  0.83506842  0.62323582  0.16865506  1
  Ba  Ba11  1  0.49712044  0.37583946  0.82762351  1
  Ba  Ba12  1  0.49979096  0.12557252  0.83144108  1
  Ba  Ba13  1  -0.00070446  0.12639464  0.33522220  1
  Ba  Ba14  1  0.50241260  0.87453310  0.16404416  1
  Ba  Ba15  1  0.66677018  0.12517819  0.99665530  1
  Ba  Ba16  1  0.83359392  0.62338880  0.83640715  1
  Sr  Sr17  1  0.66718720  0.37758499  0.33575803  1
  Sr  Sr18  1  0.67039994  0.87517021  0.00045224  1
  Sr  Sr19  1  0.33430737  0.12621329  0.33203903  1
  Sr  Sr20  1  0.65912699  0.12607135  0.66678618  1
  Sr  Sr21  1  0.66778256  0.62626846  0.99876609  1
  La  La22  1  0.50069105  0.12174206  0.16371035  1
  La  La23  1  0.83044186  0.37323975  0.16961696  1
  La  La24  1  0.82672081  0.62337951  0.50278156  1
  La  La25  1  0.83375568  0.87379362  0.16410873  1
  La  La26  1  0.16723812  0.87504657  0.49846684  1
  La  La27  1  0.32993719  0.37308523  0.33361525  1
  La  La28  1  0.33998077  0.62527870  0.99839889  1
  La  La29  1  0.33102604  0.87502527  0.66652055  1
  Pr  Pr30  1  0.00200704  0.62474341  0.99858957  1
  Pr  Pr31  1  -0.00288219  0.37704977  0.33805726  1
  Pr  Pr32  1  0.50004276  0.37823089  0.15997477  1
  Pr  Pr33  1  0.83392940  0.87922038  0.84007613  1
  Pr  Pr34  1  0.16648411  0.12248957  0.17436097  1
  Pr  Pr35  1  0.00293877  0.87400363  0.33304062  1
  Pr  Pr36  1  0.16778798  0.62837896  0.17334394  1
  Pr  Pr37  1  0.33528388  0.12383192  0.99821021  1
  Pr  Pr38  1  0.33736197  0.87632642  0.00620135  1
  Pr  Pr39  1  -0.00679716  0.37489642  0.00134992  1
  Pr  Pr40  1  0.16824544  0.87648977  0.83690916  1
  Pr  Pr41  1  0.34119918  0.62401082  0.66386327  1
  Pr  Pr42  1  0.84124499  0.87532579  0.49909080  1
  Pr  Pr43  1  0.15978966  0.37121977  0.16649316  1
  Pr  Pr44  1  0.50667347  0.62516155  0.83388042  1
  Pr  Pr45  1  -0.00476280  0.12497056  0.66024089  1
  Pr  Pr46  1  0.83049919  0.37302039  0.49888583  1
  Pr  Pr47  1  0.50372709  0.87653908  0.49120587  1
  Pr  Pr48  1  0.00187027  0.62429324  0.33261093  1
  Pr  Pr49  1  0.16777500  0.12440398  0.83543306  1
  Pr  Pr50  1  0.33197717  0.37397362  0.00121188  1
  Pr  Pr51  1  -0.00175732  0.37676809  0.66714481  1
  Pr  Pr52  1  0.66590924  0.37429644  0.66969245  1
  Pr  Pr53  1  0.50932422  0.62876315  0.16502444  1
  Pr  Pr54  1  0.83048499  0.37194633  0.83434044  1
  Pr  Pr55  1  0.66237451  0.12837265  0.33101545  1
  Pr  Pr56  1  0.16128610  0.37514886  0.49783283  1
  Pr  Pr57  1  0.33976191  0.12564173  0.66312102  1
  Pr  Pr58  1  0.16188896  0.37438290  0.83431869  1
  Pr  Pr59  1  0.16836997  0.62594322  0.83850769  1
  Pr  Pr60  1  0.17107540  0.87937183  0.16601163  1
  Pr  Pr61  1  0.65883029  0.62384749  0.66379237  1
  Pr  Pr62  1  0.66833077  0.37377112  -0.00291346  1
  Pr  Pr63  1  0.33932608  0.62390161  0.32799673  1
  Pr  Pr64  1  -0.00601494  0.62529599  0.66551430  1
  Pr  Pr65  1  0.82870377  0.12169267  0.16851252  1
  Pr  Pr66  1  0.50078246  0.62627951  0.49328200  1
  Pr  Pr67  1  0.00680754  0.87309119  0.67286872  1
  Pr  Pr68  1  0.49547035  0.12310407  0.49906536  1
  Pr  Pr69  1  0.32230145  0.37452720  0.66902072  1
  Pr  Pr70  1  0.67470772  0.87561015  0.67109110  1
  Pr  Pr71  1  0.82496692  0.12454150  0.50728283  1
  Mn  Mn72  1  0.00051576  0.00137763  0.16913795  1
  Mn  Mn73  1  -0.00194689  -0.00152282  0.50198485  1
  Mn  Mn74  1  0.00118196  -0.00063833  0.83150761  1
  Mn  Mn75  1  0.00246134  0.49807236  0.16797890  1
  Mn  Mn76  1  -0.00293699  0.50089568  0.50164618  1
  Mn  Mn77  1  0.00231659  0.49972765  0.83443124  1
  Mn  Mn78  1  0.33379287  0.00248933  0.16500250  1
  Mn  Mn79  1  0.33342819  0.00007425  0.50078496  1
  Mn  Mn80  1  0.33194380  -0.00110984  0.83333017  1
  Mn  Mn81  1  0.33251629  0.49995775  0.16536904  1
  Mn  Mn82  1  0.33165770  0.50008258  0.49907975  1
  Mn  Mn83  1  0.33048393  0.50170522  0.83207365  1
  Mn  Mn84  1  0.66802997  0.00184021  0.16644647  1
  Mn  Mn85  1  0.66670989  0.00032478  0.50156431  1
  Mn  Mn86  1  0.66789052  -0.00181193  0.83325853  1
  Mn  Mn87  1  0.66668578  0.49595390  0.16523831  1
  Mn  Mn88  1  0.66539607  0.49956864  0.50059049  1
  Mn  Mn89  1  0.66738878  0.50008981  0.83214375  1
  Mn  Mn90  1  -0.00058599  0.25003333  0.16792914  1
  Mn  Mn91  1  -0.00272988  0.25073995  0.50120503  1
  Mn  Mn92  1  0.00161233  0.25185963  0.83187598  1
  Mn  Mn93  1  0.00281237  0.74898119  0.16869753  1
  Mn  Mn94  1  -0.00236945  0.74962589  0.50210998  1
  Mn  Mn95  1  0.00138051  0.74915671  0.83401988  1
  Mn  Mn96  1  0.33362028  0.25190631  0.16643289  1
  Mn  Mn97  1  0.33140488  0.25141764  0.49983661  1
  Mn  Mn98  1  0.32973573  0.25038619  0.83288549  1
  Mn  Mn99  1  0.33340517  0.74754295  0.16414072  1
  Mn  Mn100  1  0.33448510  0.74804072  0.49970858  1
  Mn  Mn101  1  0.33257944  0.74921219  0.83286375  1
  Mn  Mn102  1  0.66494061  0.25185275  0.16706232  1
  Mn  Mn103  1  0.66511789  0.24994040  0.49837918  1
  Mn  Mn104  1  0.66547369  0.25100975  0.83217328  1
  Mn  Mn105  1  0.66975144  0.75006692  0.16426959  1
  Mn  Mn106  1  0.66667327  0.74973225  0.50336025  1
  Mn  Mn107  1  0.66985902  0.75083929  0.83260194  1
  Mn  Mn108  1  0.16823583  0.25151028  0.00091010  1
  Mn  Mn109  1  0.16724652  0.25107442  0.33312737  1
  Mn  Mn110  1  0.16370454  0.25039816  0.66880335  1
  Mn  Mn111  1  0.16935278  0.74751320  0.00378030  1
  Mn  Mn112  1  0.16798657  0.74923707  0.33575303  1
  Mn  Mn113  1  0.16667322  0.74814276  0.67041540  1
  Mn  Mn114  1  0.49792524  0.25318255  -0.00196170  1
  Mn  Mn115  1  0.49856936  0.24976258  0.32839031  1
  Mn  Mn116  1  0.49907536  0.25065861  0.66126631  1
  Mn  Mn117  1  0.50211935  0.74794381  -0.00262531  1
  Mn  Mn118  1  0.50129970  0.75031310  0.33145205  1
  Mn  Mn119  1  0.49973570  0.75039395  0.66215461  1
  Mn  Mn120  1  0.83409000  0.25253958  0.00119760  1
  Mn  Mn121  1  0.83193894  0.24915317  0.33527364  1
  Mn  Mn122  1  0.83158556  0.25158068  0.66619430  1
  Mn  Mn123  1  0.83477736  0.74873931  0.00129875  1
  Mn  Mn124  1  0.83724863  0.75142129  0.33476706  1
  Mn  Mn125  1  0.83265115  0.74964148  0.66736154  1
  Mn  Mn126  1  0.16942842  0.00167510  0.00126642  1
  Mn  Mn127  1  0.16727184  -0.00070735  0.33459517  1
  Mn  Mn128  1  0.16574186  -0.00036416  0.66965598  1
  Mn  Mn129  1  0.16789092  0.49943616  0.00338691  1
  Mn  Mn130  1  0.16773019  0.49995415  0.33418971  1
  Mn  Mn131  1  0.16456914  0.50113395  0.66957674  1
  Mn  Mn132  1  0.50102317  -0.00006093  -0.00203459  1
  Mn  Mn133  1  0.50087945  0.00211559  0.33299853  1
  Mn  Mn134  1  0.50010906  -0.00159066  0.66220070  1
  Mn  Mn135  1  0.50002463  0.49965823  -0.00368576  1
  Mn  Mn136  1  0.49860873  0.49902657  0.32699498  1
  Mn  Mn137  1  0.49808437  0.49966906  0.66210449  1
  Mn  Mn138  1  0.83542928  0.00016542  0.00127573  1
  Mn  Mn139  1  0.83407224  0.00093063  0.33581645  1
  Mn  Mn140  1  0.83279719  -0.00127614  0.66606246  1
  Mn  Mn141  1  0.83382636  0.49928872  0.00179359  1
  Mn  Mn142  1  0.83481466  0.49797606  0.33561180  1
  Mn  Mn143  1  0.83142638  0.49946317  0.66809581  1
  O  O144  1  0.17435025  0.13170167  0.02919430  1
  O  O145  1  0.17146990  0.12643175  0.34177219  1
  O  O146  1  0.15794905  0.12900124  0.69220158  1
  O  O147  1  0.16204410  0.62056951  0.03133040  1
  O  O148  1  0.16821142  0.62357012  0.34766624  1
  O  O149  1  0.15853289  0.62487124  0.69472501  1
  O  O150  1  0.49276841  0.13198566  0.01720268  1
  O  O151  1  0.50300948  0.12631126  0.35432880  1
  O  O152  1  0.49235318  0.12570529  0.67539389  1
  O  O153  1  0.49942554  0.62045746  0.01926105  1
  O  O154  1  0.49376528  0.62430954  0.34875020  1
  O  O155  1  0.49792972  0.62494312  0.69039156  1
  O  O156  1  0.83383000  0.13116572  0.02106403  1
  O  O157  1  0.82747731  0.12604153  0.36235359  1
  O  O158  1  0.84342547  0.12594834  0.67691448  1
  O  O159  1  0.84026768  0.62096509  0.01232026  1
  O  O160  1  0.84418200  0.62473414  0.35716769  1
  O  O161  1  0.83521530  0.62353670  0.68117028  1
  O  O162  1  0.16409543  0.37715732  0.31202888  1
  O  O163  1  0.16903992  0.37638021  0.64129803  1
  O  O164  1  0.17327504  0.37653511  0.97460873  1
  O  O165  1  0.16044787  0.87165526  0.31227049  1
  O  O166  1  0.16376455  0.86932985  0.64226791  1
  O  O167  1  0.17501176  0.87105613  0.97885332  1
  O  O168  1  0.49384164  0.37375686  0.30430779  1
  O  O169  1  0.50397213  0.37648636  0.65131996  1
  O  O170  1  0.48938949  0.37866284  0.98430589  1
  O  O171  1  0.50152754  0.87666250  0.32489399  1
  O  O172  1  0.49507876  0.87169172  0.63658955  1
  O  O173  1  0.48909464  0.87021144  0.99057976  1
  O  O174  1  0.84022337  0.37230405  0.31426417  1
  O  O175  1  0.83282990  0.37691071  0.64164323  1
  O  O176  1  0.83988444  0.37723870  0.98025761  1
  O  O177  1  0.84165658  0.87739183  0.31105656  1
  O  O178  1  0.82869206  0.87301248  0.64122410  1
  O  O179  1  0.83540977  0.87270958  0.98617808  1
  O  O180  1  0.00420693  0.37478985  0.19438363  1
  O  O181  1  0.00119771  0.37622967  0.52310716  1
  O  O182  1  0.00763143  0.37807112  0.85875565  1
  O  O183  1  0.00130313  0.87609678  0.18872403  1
  O  O184  1  -0.00478365  0.87194579  0.52889119  1
  O  O185  1  -0.00282074  0.87291739  0.84404262  1
  O  O186  1  0.34617774  0.37809461  0.19162611  1
  O  O187  1  0.32771489  0.37712506  0.52529908  1
  O  O188  1  0.32597087  0.37911572  0.85714292  1
  O  O189  1  0.33202031  0.87363065  0.17344505  1
  O  O190  1  0.33737451  0.87302617  0.52216284  1
  O  O191  1  0.32608234  0.87364688  0.86200244  1
  O  O192  1  0.65927410  0.37226035  0.18798694  1
  O  O193  1  0.67009784  0.37582089  0.52527866  1
  O  O194  1  0.66762033  0.37753651  0.84909317  1
  O  O195  1  0.67405063  0.87910171  0.17454510  1
  O  O196  1  0.65691671  0.87316177  0.52640686  1
  O  O197  1  0.67081734  0.87230216  0.84589789  1
  O  O198  1  0.00719097  0.12687854  0.15677856  1
  O  O199  1  -0.00829260  0.12560393  0.49277278  1
  O  O200  1  0.00833416  0.12682677  0.80576420  1
  O  O201  1  0.00900812  0.61974819  0.14273459  1
  O  O202  1  -0.00753283  0.62578734  0.47610132  1
  O  O203  1  0.00773824  0.62267528  0.80894594  1
  O  O204  1  0.32160806  0.12964512  0.14217706  1
  O  O205  1  0.33583099  0.12524458  0.48415979  1
  O  O206  1  0.32212871  0.12302439  0.80621589  1
  O  O207  1  0.31754825  0.62131686  0.14131401  1
  O  O208  1  0.33475826  0.62356260  0.47311084  1
  O  O209  1  0.32162268  0.62399617  0.80549229  1
  O  O210  1  0.67469657  0.12925671  0.15322881  1
  O  O211  1  0.67535227  0.12599366  0.47599145  1
  O  O212  1  0.66794456  0.12477351  0.81953321  1
  O  O213  1  0.66322583  0.61941740  0.15050980  1
  O  O214  1  0.67339657  0.62461344  0.48878116  1
  O  O215  1  0.66498388  0.62550037  0.80902916  1
  O  O216  1  0.08344428  0.00866961  0.25202248  1
  O  O217  1  0.07099872  0.01145612  0.59352032  1
  O  O218  1  0.09253407  0.01302114  0.91308772  1
  O  O219  1  0.09170089  0.51846291  0.24410920  1
  O  O220  1  0.07589003  0.51357844  0.59011120  1
  O  O221  1  0.09064547  0.52285309  0.91664999  1
  O  O222  1  0.41652102  0.02047097  0.24506722  1
  O  O223  1  0.41405056  0.01830306  0.58252596  1
  O  O224  1  0.40923765  0.01384237  0.91893679  1
  O  O225  1  0.41887855  0.52857659  0.23672323  1
  O  O226  1  0.41985025  0.52376415  0.57450287  1
  O  O227  1  0.41781589  0.52517736  0.90620108  1
  O  O228  1  0.74749179  0.02201435  0.25768959  1
  O  O229  1  0.74238543  0.01566316  0.59094643  1
  O  O230  1  0.75307907  0.00009732  0.91674875  1
  O  O231  1  0.75469133  0.50013616  0.25041685  1
  O  O232  1  0.74530521  0.51702755  0.59096321  1
  O  O233  1  0.74884857  0.50280458  0.91995226  1
  O  O234  1  0.25398028  0.24375246  0.24968516  1
  O  O235  1  0.25392423  0.23554371  0.59739752  1
  O  O236  1  0.25155587  0.22753196  0.92023012  1
  O  O237  1  0.25236690  0.73197793  0.24934665  1
  O  O238  1  0.25572720  0.73433428  0.59533469  1
  O  O239  1  0.24997322  0.72271667  0.92299687  1
  O  O240  1  0.58001511  0.22641933  0.24560512  1
  O  O241  1  0.57975125  0.23039498  0.57285559  1
  O  O242  1  0.58267164  0.25010917  0.91779335  1
  O  O243  1  0.58057694  0.73722661  0.24457488  1
  O  O244  1  0.57851743  0.72287450  0.57967443  1
  O  O245  1  0.58101992  0.73149445  0.90885457  1
  O  O246  1  0.90659824  0.23458841  0.24653563  1
  O  O247  1  0.91193551  0.23823450  0.58107289  1
  O  O248  1  0.92196475  0.24766871  0.91521566  1
  O  O249  1  0.92808173  0.73517048  0.25891222  1
  O  O250  1  0.90711917  0.72923368  0.57639640  1
  O  O251  1  0.92344248  0.73479514  0.92059345  1
  O  O252  1  0.07951266  0.47220856  0.07958561  1
  O  O253  1  0.07828417  0.48171807  0.41437553  1
  O  O254  1  0.08113867  0.47495910  0.74905184  1
  O  O255  1  0.09490036  0.98890443  0.09226472  1
  O  O256  1  0.08321242  0.97787708  0.42453479  1
  O  O257  1  0.08729818  0.97632884  0.75285571  1
  O  O258  1  0.40810952  0.48542567  0.07656575  1
  O  O259  1  0.40723457  0.48696469  0.39846923  1
  O  O260  1  0.40464327  0.48810779  0.73524017  1
  O  O261  1  0.41292297  0.99711358  0.07959910  1
  O  O262  1  0.42419290  0.98984827  0.42297576  1
  O  O263  1  0.40932241  0.98526260  0.74274313  1
  O  O264  1  0.74806967  0.47425271  0.08427001  1
  O  O265  1  0.75358700  0.48398221  0.42620467  1
  O  O266  1  0.75218055  0.47535470  0.75124804  1
  O  O267  1  0.75884795  0.99127240  0.09323998  1
  O  O268  1  0.76169665  0.98240263  0.43092329  1
  O  O269  1  0.75775850  0.97759452  0.75267663  1
  O  O270  1  0.24962351  0.27975233  0.08700474  1
  O  O271  1  0.24463777  0.27318738  0.42276345  1
  O  O272  1  0.24044714  0.27305999  0.75728648  1
  O  O273  1  0.25057413  0.77036281  0.08341695  1
  O  O274  1  0.24604446  0.76707397  0.42426838  1
  O  O275  1  0.24733441  0.77350119  0.75632292  1
  O  O276  1  0.57954867  0.27203245  0.08179167  1
  O  O277  1  0.58769475  0.25998198  0.40648705  1
  O  O278  1  0.58758652  0.26168163  0.73911215  1
  O  O279  1  0.58483683  0.75373584  0.07680635  1
  O  O280  1  0.58294112  0.75902396  0.42328216  1
  O  O281  1  0.59207527  0.76222884  0.73670009  1
  O  O282  1  0.91593413  0.27214133  0.08544434  1
  O  O283  1  0.91749355  0.27248050  0.41702040  1
  O  O284  1  0.91695024  0.27493740  0.74905737  1
  O  O285  1  0.91858599  0.76063489  0.09009766  1
  O  O286  1  0.92150250  0.77574725  0.41628309  1
  O  O287  1  0.92311265  0.76307945  0.73859607  1
  O  O288  1  0.24562287  0.47199068  0.09059825  1
  O  O289  1  0.24288183  0.47624578  0.42333637  1
  O  O290  1  0.24142405  0.47805064  0.75774753  1
  O  O291  1  0.25373242  0.98018948  0.07877372  1
  O  O292  1  0.24700789  0.98306174  0.42372173  1
  O  O293  1  0.24695744  0.97519166  0.75606257  1
  O  O294  1  0.58344317  0.47746681  0.07877687  1
  O  O295  1  0.58178852  0.49261977  0.41307407  1
  O  O296  1  0.58881428  0.49074932  0.73955467  1
  O  O297  1  0.58394013  0.99810218  0.08314833  1
  O  O298  1  0.58742784  0.99110260  0.41762021  1
  O  O299  1  0.58975286  0.98493778  0.73643106  1
  O  O300  1  0.91547286  0.47613248  0.09188674  1
  O  O301  1  0.91446514  0.47549001  0.42162172  1
  O  O302  1  0.91608229  0.47803132  0.75037081  1
  O  O303  1  0.91778457  0.99111749  0.08876515  1
  O  O304  1  0.92350157  0.97642902  0.41272816  1
  O  O305  1  0.92204017  0.98135240  0.73952542  1
  O  O306  1  0.08237798  0.27510460  0.07675075  1
  O  O307  1  0.08078118  0.27119286  0.41769482  1
  O  O308  1  0.07953133  0.27882431  0.74693461  1
  O  O309  1  0.09403147  0.76480234  0.09414777  1
  O  O310  1  0.08148691  0.77007178  0.42220347  1
  O  O311  1  0.08918822  0.77165210  0.75633195  1
  O  O312  1  0.41291116  0.27083882  0.08197863  1
  O  O313  1  0.40973664  0.26407732  0.40405395  1
  O  O314  1  0.40282386  0.26277932  0.73999234  1
  O  O315  1  0.41003424  0.75165643  0.07467470  1
  O  O316  1  0.42169406  0.76045348  0.41870527  1
  O  O317  1  0.41147233  0.76309134  0.73805467  1
  O  O318  1  0.74856219  0.27539156  0.08554651  1
  O  O319  1  0.75446787  0.27115951  0.42222140  1
  O  O320  1  0.75182536  0.27293130  0.74907222  1
  O  O321  1  0.75599892  0.76310682  0.08529323  1
  O  O322  1  0.76028023  0.76328518  0.43158753  1
  O  O323  1  0.75900914  0.77322522  0.75480103  1
  O  O324  1  0.24643961  0.01005477  0.24120063  1
  O  O325  1  0.25245818  0.01108681  0.59409958  1
  O  O326  1  0.25011013  0.02415269  0.91744248  1
  O  O327  1  0.25904303  0.51514634  0.25669689  1
  O  O328  1  0.25457892  0.51715218  0.59878590  1
  O  O329  1  0.25294410  0.52350149  0.92472167  1
  O  O330  1  0.58347398  0.02259147  0.24869637  1
  O  O331  1  0.57519600  0.01835114  0.57261262  1
  O  O332  1  0.58082195  0.00330684  0.91497136  1
  O  O333  1  0.57602500  0.51171541  0.23935441  1
  O  O334  1  0.58016443  0.52297343  0.57971282  1
  O  O335  1  0.58263548  0.51769056  0.91023379  1
  O  O336  1  0.90786661  0.01742719  0.24576436  1
  O  O337  1  0.90516941  0.01296667  0.57403699  1
  O  O338  1  0.91786091  0.00633971  0.91011338  1
  O  O339  1  0.93196585  0.51230730  0.26084639  1
  O  O340  1  0.91315480  0.51879662  0.58493172  1
  O  O341  1  0.92958697  0.51131259  0.92607877  1
  O  O342  1  0.09198588  0.23958674  0.24203713  1
  O  O343  1  0.07558514  0.23940649  0.58966014  1
  O  O344  1  0.09317377  0.23627398  0.90641755  1
  O  O345  1  0.08401347  0.72798790  0.25398792  1
  O  O346  1  0.07097730  0.73288804  0.59445846  1
  O  O347  1  0.08757167  0.72640562  0.92245561  1
  O  O348  1  0.41985238  0.22660952  0.24078026  1
  O  O349  1  0.41721301  0.23258994  0.57684621  1
  O  O350  1  0.40839832  0.23764802  0.91979727  1
  O  O351  1  0.41598273  0.72656281  0.24307412  1
  O  O352  1  0.41839025  0.72326012  0.57869423  1
  O  O353  1  0.41890396  0.72431242  0.90907360  1
  O  O354  1  0.74778225  0.23321742  0.25575118  1
  O  O355  1  0.74859989  0.23420218  0.58494280  1
  O  O356  1  0.75191363  0.25395202  0.91735631  1
  O  O357  1  0.75718399  0.74496759  0.25218281  1
  O  O358  1  0.74057778  0.73402281  0.59565222  1
  O  O359  1  0.75030699  0.74249444  0.91973313  1
