# generated using pymatgen
data_Ba17Sr5La8Pr42Mn72O216
_symmetry_space_group_name_H-M   'P 1'
_cell_length_a   16.68110712
_cell_length_b   15.70905073
_cell_length_c   16.82309552
_cell_angle_alpha   89.98641099
_cell_angle_beta   89.99446169
_cell_angle_gamma   89.97463542
_symmetry_Int_Tables_number   1
_chemical_formula_structural   Ba17Sr5La8Pr42Mn72O216
_chemical_formula_sum   'Ba17 Sr5 La8 Pr42 Mn72 O216'
_cell_volume   4408.39668772
_cell_formula_units_Z   1
loop_
 _symmetry_equiv_pos_site_id
 _symmetry_equiv_pos_as_xyz
  1  'x, y, z'
loop_
 _atom_site_type_symbol
 _atom_site_label
 _atom_site_symmetry_multiplicity
 _atom_site_fract_x
 _atom_site_fract_y
 _atom_site_fract_z
 _atom_site_occupancy
  Ba  Ba0  1  0.66996360  0.37358342  0.33583285  1
  Ba  Ba1  1  0.49547673  0.62416392  0.83345514  1
  Ba  Ba2  1  0.83324880  0.62717111  0.83712204  1
  Ba  Ba3  1  0.16436773  0.12453845  0.16158179  1
  Ba  Ba4  1  0.50366492  0.37358468  0.83681167  1
  Ba  Ba5  1  0.66898124  0.37377185  0.00256708  1
  Ba  Ba6  1  -0.00171919  0.62413093  0.33382611  1
  Ba  Ba7  1  0.33048607  0.62670895  0.99473378  1
  Ba  Ba8  1  0.66841097  0.87568544  0.67031575  1
  Ba  Ba9  1  0.16631881  0.87585454  0.16276640  1
  Ba  Ba10  1  0.50274364  0.87591155  0.16747914  1
  Ba  Ba11  1  0.49583822  0.12638804  0.50059360  1
  Ba  Ba12  1  0.49764929  0.62346346  0.50024896  1
  Ba  Ba13  1  0.66378720  0.12770999  0.33733035  1
  Ba  Ba14  1  0.00636410  0.87601183  0.66491418  1
  Ba  Ba15  1  0.83170300  0.62599064  0.17097109  1
  Ba  Ba16  1  0.33172232  0.62275782  0.66195081  1
  Sr  Sr17  1  0.00175128  0.87465515  -0.00136000  1
  Sr  Sr18  1  0.49292048  0.12394053  0.83495341  1
  Sr  Sr19  1  0.32863383  0.12129856  0.99673452  1
  Sr  Sr20  1  0.17317621  0.87450113  0.49261064  1
  Sr  Sr21  1  0.17270564  0.37325132  0.82923141  1
  La  La22  1  0.00997890  0.87351296  0.33489056  1
  La  La23  1  0.16965745  0.37661330  0.15751127  1
  La  La24  1  0.16200701  0.62562495  0.49891554  1
  La  La25  1  0.16123728  0.12628928  0.83392575  1
  La  La26  1  0.17107729  0.87665892  0.82724571  1
  La  La27  1  0.67330881  0.87483754  0.34273070  1
  La  La28  1  -0.00348785  0.12165266  0.99837324  1
  La  La29  1  0.82935387  0.62424543  0.50708110  1
  Pr  Pr30  1  -0.00277725  0.62488293  0.66314922  1
  Pr  Pr31  1  0.17354459  0.37662203  0.49476200  1
  Pr  Pr32  1  0.50208935  0.87349845  0.83377544  1
  Pr  Pr33  1  0.66093252  0.62420384  0.33361097  1
  Pr  Pr34  1  0.00882743  0.37667526  0.67045113  1
  Pr  Pr35  1  0.82835316  0.12568794  0.17045007  1
  Pr  Pr36  1  0.84494483  0.87401542  0.83314893  1
  Pr  Pr37  1  -0.00632769  0.12645147  0.66387740  1
  Pr  Pr38  1  0.33878442  0.87612421  0.66193624  1
  Pr  Pr39  1  0.65593373  0.62424033  0.66910008  1
  Pr  Pr40  1  0.32593717  0.13002223  0.66330517  1
  Pr  Pr41  1  0.83940969  0.37339446  0.16678571  1
  Pr  Pr42  1  0.67094310  0.87366208  0.00534493  1
  Pr  Pr43  1  0.32854260  0.62643359  0.32432798  1
  Pr  Pr44  1  0.82331527  0.12526213  0.50745400  1
  Pr  Pr45  1  0.16176013  0.62471492  0.83128057  1
  Pr  Pr46  1  0.50715674  0.87327460  0.49654633  1
  Pr  Pr47  1  0.84209426  0.37329742  0.50103478  1
  Pr  Pr48  1  0.33607380  0.87635442  -0.00304986  1
  Pr  Pr49  1  0.34419449  0.87773867  0.33357320  1
  Pr  Pr50  1  0.83853048  0.37547673  0.83193518  1
  Pr  Pr51  1  0.15973921  0.12649199  0.49655705  1
  Pr  Pr52  1  0.00501419  0.37589547  0.33236741  1
  Pr  Pr53  1  0.65318584  0.12409086  0.66767921  1
  Pr  Pr54  1  0.34214465  0.37258995  0.32961253  1
  Pr  Pr55  1  0.83857447  0.87666810  0.17141344  1
  Pr  Pr56  1  -0.00263912  0.62876030  0.99864511  1
  Pr  Pr57  1  0.00169616  0.37685215  -0.00064170  1
  Pr  Pr58  1  0.82563698  0.11978353  0.83841530  1
  Pr  Pr59  1  0.67003696  0.37473081  0.67551508  1
  Pr  Pr60  1  0.50692352  0.37704766  0.50234774  1
  Pr  Pr61  1  0.49853536  0.61952713  0.16985997  1
  Pr  Pr62  1  0.65755009  0.62590129  1.00159273  1
  Pr  Pr63  1  0.34314083  0.37465085  0.66712279  1
  Pr  Pr64  1  0.65470586  0.12419582  1.00274992  1
  Pr  Pr65  1  0.49234500  0.12988738  0.17144986  1
  Pr  Pr66  1  0.50944881  0.37203035  0.16153573  1
  Pr  Pr67  1  0.32819294  0.12259703  0.32572103  1
  Pr  Pr68  1  0.84814059  0.87732015  0.49947070  1
  Pr  Pr69  1  -0.00529721  0.12316168  0.32882122  1
  Pr  Pr70  1  0.34300432  0.37253046  -0.00081236  1
  Pr  Pr71  1  0.15594917  0.62764096  0.16389781  1
  Mn  Mn72  1  -0.00218752  0.00117321  0.16526873  1
  Mn  Mn73  1  0.00303181  0.00336672  0.49761436  1
  Mn  Mn74  1  0.00049391  0.00118734  0.83156453  1
  Mn  Mn75  1  -0.00049303  0.49781109  0.16590495  1
  Mn  Mn76  1  0.00039497  0.49722310  0.50102115  1
  Mn  Mn77  1  0.00134397  0.49875319  0.83312845  1
  Mn  Mn78  1  0.33264971  -0.00188367  0.16328039  1
  Mn  Mn79  1  0.33186273  0.00243702  0.49802741  1
  Mn  Mn80  1  0.33232571  0.00063585  0.82903634  1
  Mn  Mn81  1  0.33268678  0.50038442  0.16376780  1
  Mn  Mn82  1  0.33195362  0.49646496  0.49494923  1
  Mn  Mn83  1  0.33038587  0.49779669  0.83120343  1
  Mn  Mn84  1  0.66721572  -0.00006096  0.16969640  1
  Mn  Mn85  1  0.66749284  0.00029762  0.50521246  1
  Mn  Mn86  1  0.66500810  0.00029276  0.83832201  1
  Mn  Mn87  1  0.66816805  0.50054701  0.16995593  1
  Mn  Mn88  1  0.66984196  0.49881171  0.50459913  1
  Mn  Mn89  1  0.66961507  0.50048115  0.83705067  1
  Mn  Mn90  1  -0.00001802  0.24917049  0.16565294  1
  Mn  Mn91  1  0.00102831  0.25033476  0.49908341  1
  Mn  Mn92  1  -0.00179690  0.24978350  0.83179359  1
  Mn  Mn93  1  -0.00198528  0.75244147  0.16576570  1
  Mn  Mn94  1  0.00198730  0.74950156  0.49965087  1
  Mn  Mn95  1  0.00264601  0.75030433  0.83243187  1
  Mn  Mn96  1  0.33118875  0.25123941  0.16534152  1
  Mn  Mn97  1  0.33095572  0.25160019  0.49673407  1
  Mn  Mn98  1  0.33165394  0.24970947  0.83138581  1
  Mn  Mn99  1  0.33320251  0.75008570  0.16253329  1
  Mn  Mn100  1  0.33324703  0.75084039  0.49519630  1
  Mn  Mn101  1  0.33072588  0.75238638  0.82905654  1
  Mn  Mn102  1  0.66858129  0.24817541  0.16819747  1
  Mn  Mn103  1  0.66775991  0.25077361  0.50702553  1
  Mn  Mn104  1  0.66907242  0.24666283  0.83627845  1
  Mn  Mn105  1  0.66701358  0.75147197  0.17120205  1
  Mn  Mn106  1  0.67006199  0.74918616  0.50353753  1
  Mn  Mn107  1  0.66654577  0.75113459  0.83826587  1
  Mn  Mn108  1  0.16558881  0.25093698  -0.00524131  1
  Mn  Mn109  1  0.16691452  0.25244442  0.33032572  1
  Mn  Mn110  1  0.16622889  0.25031737  0.66335185  1
  Mn  Mn111  1  0.16482694  0.75033065  -0.00438969  1
  Mn  Mn112  1  0.16995677  0.74893180  0.33021323  1
  Mn  Mn113  1  0.16840746  0.75067348  0.66272641  1
  Mn  Mn114  1  0.49777898  0.24587546  0.00140754  1
  Mn  Mn115  1  0.49818964  0.25151314  0.33475851  1
  Mn  Mn116  1  0.49919747  0.24886097  0.66898198  1
  Mn  Mn117  1  0.50005193  0.75263545  0.00072859  1
  Mn  Mn118  1  0.50073909  0.74890111  0.33310333  1
  Mn  Mn119  1  0.49885431  0.75261033  0.66541981  1
  Mn  Mn120  1  0.83400487  0.24790648  0.00072773  1
  Mn  Mn121  1  0.83607921  0.25018985  0.33620445  1
  Mn  Mn122  1  0.83315003  0.24900891  0.67051171  1
  Mn  Mn123  1  0.83345493  0.75234713  0.00362194  1
  Mn  Mn124  1  0.83369300  0.75078388  0.33854180  1
  Mn  Mn125  1  0.83399184  0.75034606  0.66895647  1
  Mn  Mn126  1  0.16434229  0.00066441  -0.00555196  1
  Mn  Mn127  1  0.16857026  0.00095634  0.33233128  1
  Mn  Mn128  1  0.16894962  0.00258426  0.66227892  1
  Mn  Mn129  1  0.16597716  0.49846322  -0.00490762  1
  Mn  Mn130  1  0.16876494  0.49851907  0.32788895  1
  Mn  Mn131  1  0.16648258  0.49777551  0.66433296  1
  Mn  Mn132  1  0.49892699  -0.00015934  -0.00045098  1
  Mn  Mn133  1  0.50132772  0.00142129  0.33364028  1
  Mn  Mn134  1  0.49686642  0.00018683  0.66812678  1
  Mn  Mn135  1  0.49922117  0.49944555  0.00263973  1
  Mn  Mn136  1  0.49869586  0.49770892  0.33427833  1
  Mn  Mn137  1  0.50067522  0.49854563  0.66672131  1
  Mn  Mn138  1  0.83153505  -0.00060564  0.00372757  1
  Mn  Mn139  1  0.83482422  0.00193495  0.33656276  1
  Mn  Mn140  1  0.83314819  0.00021399  0.67129941  1
  Mn  Mn141  1  0.83403562  0.50016321  0.00233667  1
  Mn  Mn142  1  0.83404329  0.49805003  0.33735180  1
  Mn  Mn143  1  0.83332255  0.49930028  0.66834605  1
  O  O144  1  0.16511204  0.12686692  0.00468213  1
  O  O145  1  0.17267418  0.12985041  0.35359876  1
  O  O146  1  0.17488899  0.12832075  0.68861443  1
  O  O147  1  0.16377983  0.62056861  0.02079507  1
  O  O148  1  0.17599432  0.62091132  0.35379261  1
  O  O149  1  0.16307855  0.61952768  0.68625549  1
  O  O150  1  0.49663031  0.12198917  0.02564174  1
  O  O151  1  0.48788687  0.12744603  0.34410129  1
  O  O152  1  0.49829188  0.12467050  0.68439925  1
  O  O153  1  0.50210202  0.62751454  0.02393430  1
  O  O154  1  0.49486827  0.62313783  0.34466763  1
  O  O155  1  0.50479758  0.62453565  0.67485417  1
  O  O156  1  0.84268315  0.12318171  0.02797739  1
  O  O157  1  0.84445712  0.12694409  0.36217711  1
  O  O158  1  0.84593110  0.12697625  0.69445901  1
  O  O159  1  0.84606381  0.62864533  0.01509149  1
  O  O160  1  0.82995173  0.62536799  0.36053026  1
  O  O161  1  0.84775778  0.62334878  0.67935705  1
  O  O162  1  0.15964166  0.37554400  0.30269125  1
  O  O163  1  0.15633924  0.37227416  0.63719046  1
  O  O164  1  0.15525925  0.37487107  0.97754822  1
  O  O165  1  0.16083206  0.87445661  0.32313160  1
  O  O166  1  0.17297201  0.88184699  0.64299521  1
  O  O167  1  0.16384306  0.87737353  0.97288984  1
  O  O168  1  0.49571638  0.37490354  0.30650083  1
  O  O169  1  0.50224882  0.37298565  0.64907814  1
  O  O170  1  0.49905905  0.37095272  0.99632341  1
  O  O171  1  0.50483470  0.87485018  0.32444940  1
  O  O172  1  0.49398920  0.87866785  0.64155087  1
  O  O173  1  0.50846035  0.87754598  0.97856766  1
  O  O174  1  0.83805621  0.37084700  0.31247887  1
  O  O175  1  0.82125038  0.37267954  0.64385389  1
  O  O176  1  0.83680575  0.36919669  0.97476378  1
  O  O177  1  0.82671551  0.87867222  0.31818437  1
  O  O178  1  0.83339622  0.87590041  0.64341399  1
  O  O179  1  0.82179003  0.87784435  0.97541669  1
  O  O180  1  -0.00111315  0.37134847  0.18858842  1
  O  O181  1  -0.00026681  0.37170042  0.52693390  1
  O  O182  1  -0.00465868  0.37271182  0.85590744  1
  O  O183  1  -0.00494014  0.88130553  0.19041599  1
  O  O184  1  0.00132825  0.87805587  0.50831341  1
  O  O185  1  0.00411615  0.87632243  0.84792494  1
  O  O186  1  0.32284179  0.37681405  0.18722201  1
  O  O187  1  0.32020905  0.37285582  0.52331743  1
  O  O188  1  0.32900187  0.37262582  0.85309235  1
  O  O189  1  0.32991287  0.87231602  0.18842486  1
  O  O190  1  0.32715583  0.88111021  0.51766486  1
  O  O191  1  0.32093892  0.87773895  0.85057303  1
  O  O192  1  0.66019921  0.37451019  0.17799866  1
  O  O193  1  0.66953093  0.37458807  0.52853222  1
  O  O194  1  0.67625564  0.37210377  0.84558426  1
  O  O195  1  0.66964075  0.87668662  0.19788771  1
  O  O196  1  0.66060401  0.87611450  0.51041552  1
  O  O197  1  0.65544076  0.87688957  0.86178888  1
  O  O198  1  -0.00831446  0.12586483  0.14370951  1
  O  O199  1  0.00311772  0.12941562  0.47156663  1
  O  O200  1  -0.00245924  0.12730111  0.80712242  1
  O  O201  1  0.00265492  0.62085636  0.14402755  1
  O  O202  1  -0.00383127  0.62100388  0.49120523  1
  O  O203  1  0.00558549  0.62242276  0.80724959  1
  O  O204  1  0.34272193  0.12569909  0.15071696  1
  O  O205  1  0.32888924  0.12992637  0.46930017  1
  O  O206  1  0.33224144  0.12439387  0.80776092  1
  O  O207  1  0.34895613  0.62508380  0.15057353  1
  O  O208  1  0.32998430  0.61795750  0.47061521  1
  O  O209  1  0.32562050  0.62609600  0.81976913  1
  O  O210  1  0.67782675  0.12231417  0.14707558  1
  O  O211  1  0.67307488  0.12516579  0.49444167  1
  O  O212  1  0.67676040  0.12328747  0.81005270  1
  O  O213  1  0.66577638  0.62619362  0.14780892  1
  O  O214  1  0.67508333  0.62305003  0.47806262  1
  O  O215  1  0.66836392  0.62731265  0.81359875  1
  O  O216  1  0.07382258  0.01498059  0.25923162  1
  O  O217  1  0.07774059  0.02860193  0.58802849  1
  O  O218  1  0.07569324  0.02215092  0.91624402  1
  O  O219  1  0.08558774  0.51489632  0.24458092  1
  O  O220  1  0.07408005  0.51671558  0.59067358  1
  O  O221  1  0.07824681  0.52371791  0.92023123  1
  O  O222  1  0.41165652  0.01128896  0.25645002  1
  O  O223  1  0.40084733  0.01652759  0.59304829  1
  O  O224  1  0.40827393  0.00563549  0.91615185  1
  O  O225  1  0.40940031  0.51259828  0.25516298  1
  O  O226  1  0.41313764  0.49666700  0.58076330  1
  O  O227  1  0.41248608  0.50014346  0.92512492  1
  O  O228  1  0.75085467  0.01606673  0.25581685  1
  O  O229  1  0.74751470  0.02342482  0.59886801  1
  O  O230  1  0.74172366  0.02349145  0.93155124  1
  O  O231  1  0.74159614  0.51492723  0.26321318  1
  O  O232  1  0.74420384  0.52472030  0.59639055  1
  O  O233  1  0.74521902  0.51795519  0.92997941  1
  O  O234  1  0.24787232  0.23631529  0.24693006  1
  O  O235  1  0.23973857  0.23070619  0.57019640  1
  O  O236  1  0.24082918  0.23511881  0.90296545  1
  O  O237  1  0.24555472  0.72378107  0.23627406  1
  O  O238  1  0.24044459  0.73345403  0.56448323  1
  O  O239  1  0.23633058  0.73942890  0.89992984  1
  O  O240  1  0.57234282  0.23719113  0.24440971  1
  O  O241  1  0.58162867  0.23910179  0.58679774  1
  O  O242  1  0.58149146  0.22836042  0.91666719  1
  O  O243  1  0.57686072  0.72555664  0.24558914  1
  O  O244  1  0.58516519  0.73910779  0.58210661  1
  O  O245  1  0.58275913  0.73216025  0.92013340  1
  O  O246  1  0.91248994  0.22938088  0.24578889  1
  O  O247  1  0.90744783  0.23086869  0.57911872  1
  O  O248  1  0.90808609  0.22684097  0.90999656  1
  O  O249  1  0.91005517  0.74891304  0.25153705  1
  O  O250  1  0.91225364  0.73875339  0.57539142  1
  O  O251  1  0.91887935  0.74565116  0.91831156  1
  O  O252  1  0.08472855  0.47937015  0.08322764  1
  O  O253  1  0.08949524  0.48002133  0.41970114  1
  O  O254  1  0.08638533  0.47950836  0.75199425  1
  O  O255  1  0.07837268  0.99429703  0.07795897  1
  O  O256  1  0.09209997  0.99354263  0.42338478  1
  O  O257  1  0.09785761  0.99279792  0.75402217  1
  O  O258  1  0.41942240  0.47634346  0.09085480  1
  O  O259  1  0.41959365  0.47021223  0.41921266  1
  O  O260  1  0.41655018  0.48464982  0.74704324  1
  O  O261  1  0.41527171  0.98084024  0.07848716  1
  O  O262  1  0.42286428  0.97874157  0.42451142  1
  O  O263  1  0.42059028  0.97428552  0.75485998  1
  O  O264  1  0.75892529  0.48359759  0.09598573  1
  O  O265  1  0.76259080  0.48179151  0.43533583  1
  O  O266  1  0.75914188  0.48105103  0.75581202  1
  O  O267  1  0.75524188  0.97724699  0.09308182  1
  O  O268  1  0.76326698  0.98652575  0.43049981  1
  O  O269  1  0.75882445  0.98280291  0.77217089  1
  O  O270  1  0.25499038  0.26993811  0.07480687  1
  O  O271  1  0.25443358  0.27575331  0.40691985  1
  O  O272  1  0.25588917  0.26839649  0.73254351  1
  O  O273  1  0.25407422  0.76607498  0.06963483  1
  O  O274  1  0.26548553  0.76429459  0.39738738  1
  O  O275  1  0.25623243  0.77092912  0.73654524  1
  O  O276  1  0.58310853  0.24991528  0.08521641  1
  O  O277  1  0.58088560  0.26606209  0.42174887  1
  O  O278  1  0.59720260  0.25873423  0.74482457  1
  O  O279  1  0.59437874  0.76408998  0.07861653  1
  O  O280  1  0.59482690  0.75964002  0.41052193  1
  O  O281  1  0.58103918  0.76424596  0.75474862  1
  O  O282  1  0.92280576  0.27270264  0.07662795  1
  O  O283  1  0.92648701  0.27511538  0.41130467  1
  O  O284  1  0.92286399  0.27641465  0.74201224  1
  O  O285  1  0.91585265  0.77340683  0.08405752  1
  O  O286  1  0.92306839  0.77205954  0.41265091  1
  O  O287  1  0.92053492  0.76416485  0.75086475  1
  O  O288  1  0.25320078  0.47704271  0.07186779  1
  O  O289  1  0.25637179  0.47352659  0.40235912  1
  O  O290  1  0.25371640  0.47668695  0.73418933  1
  O  O291  1  0.25381933  0.98710094  0.06781032  1
  O  O292  1  0.26277202  0.98667778  0.40418133  1
  O  O293  1  0.26149674  0.98658972  0.73352649  1
  O  O294  1  0.57948558  0.49429893  0.09129715  1
  O  O295  1  0.58387923  0.48489730  0.42136364  1
  O  O296  1  0.59417778  0.48893789  0.74471117  1
  O  O297  1  0.59587115  0.98890818  0.07639500  1
  O  O298  1  0.58817586  0.98645637  0.41254211  1
  O  O299  1  0.58285396  0.99050111  0.75430721  1
  O  O300  1  0.91986426  0.47428191  0.08142376  1
  O  O301  1  0.92407933  0.47446226  0.41558962  1
  O  O302  1  0.92185155  0.47583220  0.74482527  1
  O  O303  1  0.91464001  0.97806262  0.08325210  1
  O  O304  1  0.92768691  0.98131545  0.40697807  1
  O  O305  1  0.91838041  0.98402360  0.75031700  1
  O  O306  1  0.08619021  0.26865494  0.08522728  1
  O  O307  1  0.09246482  0.27255148  0.42005040  1
  O  O308  1  0.08513258  0.26529608  0.74883770  1
  O  O309  1  0.08222129  0.75511599  0.07899580  1
  O  O310  1  0.09014948  0.75501896  0.42240520  1
  O  O311  1  0.09493905  0.76114856  0.75879734  1
  O  O312  1  0.42058391  0.26991474  0.09438066  1
  O  O313  1  0.41967260  0.27868711  0.42261463  1
  O  O314  1  0.41686051  0.26406952  0.74962937  1
  O  O315  1  0.41520077  0.77070593  0.07906423  1
  O  O316  1  0.42434990  0.77239304  0.42127333  1
  O  O317  1  0.41729035  0.77385991  0.75143266  1
  O  O318  1  0.76354444  0.26223696  0.09265677  1
  O  O319  1  0.76279762  0.26148515  0.43372770  1
  O  O320  1  0.76405901  0.26441965  0.76239966  1
  O  O321  1  0.75534909  0.77408735  0.09660187  1
  O  O322  1  0.76338868  0.77019159  0.43343853  1
  O  O323  1  0.75731344  0.77014739  0.76633154  1
  O  O324  1  0.24917842  0.01417340  0.24791204  1
  O  O325  1  0.24182315  0.02900206  0.57128329  1
  O  O326  1  0.23929661  0.01503353  0.89859340  1
  O  O327  1  0.24558376  0.52501003  0.23582972  1
  O  O328  1  0.23624589  0.51182229  0.56509877  1
  O  O329  1  0.23690249  0.51181363  0.90362178  1
  O  O330  1  0.57569599  0.02183705  0.24024534  1
  O  O331  1  0.57993091  0.01283323  0.58738670  1
  O  O332  1  0.57923234  0.02485309  0.91606225  1
  O  O333  1  0.57996108  0.51924175  0.25035763  1
  O  O334  1  0.58615774  0.50877681  0.58509824  1
  O  O335  1  0.58373283  0.51442400  0.92449459  1
  O  O336  1  0.91023029  0.02156038  0.24706881  1
  O  O337  1  0.91392295  0.02063655  0.57215996  1
  O  O338  1  0.90791963  0.01528434  0.91506782  1
  O  O339  1  0.91592610  0.50200029  0.24825605  1
  O  O340  1  0.90775550  0.50763685  0.57907785  1
  O  O341  1  0.92044530  0.50943377  0.91952832  1
  O  O342  1  0.07322744  0.23411353  0.26044177  1
  O  O343  1  0.07632642  0.22466614  0.58716527  1
  O  O344  1  0.07148096  0.23008750  0.91816313  1
  O  O345  1  0.08350988  0.73709414  0.24835351  1
  O  O346  1  0.07795742  0.72851834  0.58955304  1
  O  O347  1  0.07892564  0.72440101  0.91793074  1
  O  O348  1  0.40728829  0.23807306  0.25666707  1
  O  O349  1  0.40308884  0.24027425  0.58892132  1
  O  O350  1  0.40967107  0.23897856  0.92705228  1
  O  O351  1  0.40914154  0.73815994  0.25647454  1
  O  O352  1  0.41008862  0.74814895  0.58242587  1
  O  O353  1  0.41198155  0.75560835  0.91395347  1
  O  O354  1  0.75326692  0.23642287  0.25271613  1
  O  O355  1  0.74469789  0.22586179  0.60133000  1
  O  O356  1  0.74563511  0.22114599  0.92651624  1
  O  O357  1  0.73728022  0.73733131  0.27157886  1
  O  O358  1  0.74494626  0.72570543  0.59414043  1
  O  O359  1  0.73950990  0.73612666  0.93505482  1
