# generated using pymatgen
data_Ba17Sr5La8Pr42Mn72O216
_symmetry_space_group_name_H-M   'P 1'
_cell_length_a   16.67546084
_cell_length_b   15.70264018
_cell_length_c   16.82081458
_cell_angle_alpha   89.97971444
_cell_angle_beta   89.99223320
_cell_angle_gamma   89.97075011
_symmetry_Int_Tables_number   1
_chemical_formula_structural   Ba17Sr5La8Pr42Mn72O216
_chemical_formula_sum   'Ba17 Sr5 La8 Pr42 Mn72 O216'
_cell_volume   4404.50857264
_cell_formula_units_Z   1
loop_
 _symmetry_equiv_pos_site_id
 _symmetry_equiv_pos_as_xyz
  1  'x, y, z'
loop_
 _atom_site_type_symbol
 _atom_site_label
 _atom_site_symmetry_multiplicity
 _atom_site_fract_x
 _atom_site_fract_y
 _atom_site_fract_z
 _atom_site_occupancy
  Ba  Ba0  1  0.83708387  0.37646112  0.49805606  1
  Ba  Ba1  1  0.33288134  0.37596888  0.00262073  1
  Ba  Ba2  1  0.16377374  0.12421506  0.50205648  1
  Ba  Ba3  1  0.82972525  0.12431499  0.83421244  1
  Ba  Ba4  1  0.66760238  0.87494554  0.33097888  1
  Ba  Ba5  1  0.49831804  0.12449740  0.16799303  1
  Ba  Ba6  1  0.83264198  0.62472878  0.16442400  1
  Ba  Ba7  1  0.00354216  0.87280635  0.33214042  1
  Ba  Ba8  1  0.67056992  0.37485769  0.33306956  1
  Ba  Ba9  1  0.33431726  0.87318086  0.00274164  1
  Ba  Ba10  1  0.16470804  0.12450679  0.83367365  1
  Ba  Ba11  1  0.00165900  0.37643105  0.66677837  1
  Ba  Ba12  1  0.33074611  0.62366314  1.00090667  1
  Ba  Ba13  1  0.66679652  0.12529438  0.33242789  1
  Ba  Ba14  1  0.33533632  0.87393957  0.66783658  1
  Ba  Ba15  1  0.50002703  0.87404965  0.49836578  1
  Ba  Ba16  1  0.49983468  0.12581994  0.50129377  1
  Sr  Sr17  1  0.83716126  0.87598982  0.83256002  1
  Sr  Sr18  1  -0.00147290  0.88065473  0.00181442  1
  Sr  Sr19  1  0.50283156  0.87740913  0.16675030  1
  Sr  Sr20  1  -0.00282922  0.12222760  0.99528249  1
  Sr  Sr21  1  0.33651312  0.87607877  0.33463061  1
  La  La22  1  -0.00408803  0.62961323  0.99877520  1
  La  La23  1  0.50395119  0.37733163  0.49797886  1
  La  La24  1  0.67073096  0.37422053  0.66640946  1
  La  La25  1  0.16862258  0.87616783  0.16408972  1
  La  La26  1  0.16883980  0.62610548  0.16894954  1
  La  La27  1  0.16732568  0.87502015  0.83721706  1
  La  La28  1  0.49464949  0.62530431  0.16667153  1
  La  La29  1  0.82994835  0.62334411  0.83647987  1
  Pr  Pr30  1  0.32934952  0.62553156  0.66539976  1
  Pr  Pr31  1  0.83440589  0.87571708  0.15999861  1
  Pr  Pr32  1  0.83565144  0.87502467  0.49514667  1
  Pr  Pr33  1  0.16606997  0.37457813  0.16456803  1
  Pr  Pr34  1  0.50262468  0.87067984  0.82974409  1
  Pr  Pr35  1  -0.01071371  0.12451850  0.66313653  1
  Pr  Pr36  1  0.49403143  0.12395290  0.83533423  1
  Pr  Pr37  1  0.33701347  0.36979151  0.67151245  1
  Pr  Pr38  1  0.66240382  0.62702515  0.99572865  1
  Pr  Pr39  1  0.16220536  0.62546836  0.83780016  1
  Pr  Pr40  1  0.66521544  0.12350323  0.66065199  1
  Pr  Pr41  1  -0.00017053  0.36956858  -0.00179626  1
  Pr  Pr42  1  0.50238516  0.62801395  0.49780803  1
  Pr  Pr43  1  0.17689495  0.87733454  0.49578079  1
  Pr  Pr44  1  0.16925561  0.37265926  0.49867145  1
  Pr  Pr45  1  0.83518566  0.37440774  0.16648178  1
  Pr  Pr46  1  -0.00540529  0.62527206  0.66518257  1
  Pr  Pr47  1  0.33384262  0.62810395  0.33211208  1
  Pr  Pr48  1  0.17309288  0.37499682  0.83125883  1
  Pr  Pr49  1  0.33821368  0.37385283  0.33634118  1
  Pr  Pr50  1  0.50236889  0.37994398  0.83235470  1
  Pr  Pr51  1  -0.00088757  0.62303942  0.32827604  1
  Pr  Pr52  1  0.00396827  0.37860931  0.33860248  1
  Pr  Pr53  1  0.32485835  0.12314823  0.66195739  1
  Pr  Pr54  1  0.67148421  0.37383405  0.00093905  1
  Pr  Pr55  1  0.33445726  0.11957727  0.33437630  1
  Pr  Pr56  1  0.66802078  0.87728835  0.66744252  1
  Pr  Pr57  1  0.65883087  0.12478566  0.99684321  1
  Pr  Pr58  1  0.16678565  0.12308221  0.16832229  1
  Pr  Pr59  1  0.83007628  0.62684474  0.49631167  1
  Pr  Pr60  1  0.32792984  0.12313148  0.99993669  1
  Pr  Pr61  1  -0.00049692  0.12685057  0.33027380  1
  Pr  Pr62  1  0.66556382  0.62639924  0.66353032  1
  Pr  Pr63  1  0.83921696  0.37349954  0.82615903  1
  Pr  Pr64  1  0.66139458  0.62447067  0.32851540  1
  Pr  Pr65  1  0.83405020  0.12212760  0.16502615  1
  Pr  Pr66  1  0.50906021  0.37257678  0.16270545  1
  Pr  Pr67  1  0.00434149  0.87636570  0.66991743  1
  Pr  Pr68  1  0.16360116  0.62817120  0.50311751  1
  Pr  Pr69  1  0.49374662  0.62618876  0.83657720  1
  Pr  Pr70  1  0.66980612  0.87705537  0.00341435  1
  Pr  Pr71  1  0.82804492  0.12389539  0.50006573  1
  Mn  Mn72  1  -0.00006642  0.00180956  0.16515176  1
  Mn  Mn73  1  -0.00116870  -0.00154220  0.50071802  1
  Mn  Mn74  1  -0.00060564  -0.00207381  0.83351079  1
  Mn  Mn75  1  0.00097898  0.49713008  0.16559727  1
  Mn  Mn76  1  0.00289580  0.50288886  0.49908679  1
  Mn  Mn77  1  0.00002830  0.50170951  0.83433881  1
  Mn  Mn78  1  0.33293990  -0.00026440  0.16764339  1
  Mn  Mn79  1  0.33424934  0.00076898  0.50008891  1
  Mn  Mn80  1  0.33388903  -0.00016035  0.83432735  1
  Mn  Mn81  1  0.33269274  0.49948315  0.17082377  1
  Mn  Mn82  1  0.33282970  0.50095723  0.50174880  1
  Mn  Mn83  1  0.33254520  0.49947559  0.83154508  1
  Mn  Mn84  1  0.66800272  -0.00071390  0.16430216  1
  Mn  Mn85  1  0.66735080  -0.00131292  0.50015809  1
  Mn  Mn86  1  0.66471359  -0.00095185  0.83275858  1
  Mn  Mn87  1  0.66692222  0.50052782  0.16399482  1
  Mn  Mn88  1  0.66757146  0.50264237  0.49900644  1
  Mn  Mn89  1  0.66612507  0.50041093  0.83231063  1
  Mn  Mn90  1  -0.00021801  0.24990322  0.16623404  1
  Mn  Mn91  1  0.00016223  0.24915729  0.49852478  1
  Mn  Mn92  1  0.00042373  0.24897087  0.83404406  1
  Mn  Mn93  1  0.00079691  0.75014523  0.16511764  1
  Mn  Mn94  1  0.00038225  0.74937764  0.50157099  1
  Mn  Mn95  1  -0.00116325  0.75132212  0.83173840  1
  Mn  Mn96  1  0.33134851  0.25082272  0.16960618  1
  Mn  Mn97  1  0.33389916  0.25365552  0.50289181  1
  Mn  Mn98  1  0.33421177  0.24957302  0.83483502  1
  Mn  Mn99  1  0.33385153  0.75036459  0.16930634  1
  Mn  Mn100  1  0.33339475  0.74640195  0.49873342  1
  Mn  Mn101  1  0.33214293  0.74973498  0.83370395  1
  Mn  Mn102  1  0.67009804  0.25091290  0.16389434  1
  Mn  Mn103  1  0.66720097  0.25128225  0.50067862  1
  Mn  Mn104  1  0.66314842  0.25097199  0.83261191  1
  Mn  Mn105  1  0.66581294  0.74846546  0.16399518  1
  Mn  Mn106  1  0.66852855  0.74879535  0.49853562  1
  Mn  Mn107  1  0.66767395  0.75061396  0.83182485  1
  Mn  Mn108  1  0.16415876  0.25028880  0.00093858  1
  Mn  Mn109  1  0.16761594  0.24990532  0.33247185  1
  Mn  Mn110  1  0.16535322  0.25071923  0.66733643  1
  Mn  Mn111  1  0.16288848  0.74947278  0.00206941  1
  Mn  Mn112  1  0.16871712  0.74938780  0.33572248  1
  Mn  Mn113  1  0.16513659  0.74914361  0.66867695  1
  Mn  Mn114  1  0.49954093  0.25000167  -0.00154414  1
  Mn  Mn115  1  0.49874180  0.25133820  0.33273786  1
  Mn  Mn116  1  0.50112289  0.25196812  0.66958486  1
  Mn  Mn117  1  0.50151055  0.75009906  -0.00002234  1
  Mn  Mn118  1  0.49964862  0.74946261  0.33247655  1
  Mn  Mn119  1  0.50169024  0.74709521  0.66745020  1
  Mn  Mn120  1  0.83168447  0.25113314  -0.00165178  1
  Mn  Mn121  1  0.83753610  0.24843109  0.33160176  1
  Mn  Mn122  1  0.83208086  0.25021983  0.66647164  1
  Mn  Mn123  1  0.83278626  0.75038809  -0.00291810  1
  Mn  Mn124  1  0.83491325  0.74965386  0.33107877  1
  Mn  Mn125  1  0.83334687  0.74974173  0.66592228  1
  Mn  Mn126  1  0.16412146  0.00022412  0.00111723  1
  Mn  Mn127  1  0.16718512  0.00032975  0.33352016  1
  Mn  Mn128  1  0.16493866  -0.00206618  0.66757697  1
  Mn  Mn129  1  0.16165007  0.49950393  0.00068975  1
  Mn  Mn130  1  0.16941514  0.49956046  0.33526312  1
  Mn  Mn131  1  0.16704858  0.50135309  0.66814643  1
  Mn  Mn132  1  0.49917445  0.00037126  -0.00128887  1
  Mn  Mn133  1  0.49946622  -0.00031438  0.33278205  1
  Mn  Mn134  1  0.50129816  -0.00050259  0.67036821  1
  Mn  Mn135  1  0.50110819  0.49910517  -0.00041073  1
  Mn  Mn136  1  0.49898093  0.49942008  0.33269584  1
  Mn  Mn137  1  0.50046574  0.50220203  0.66530929  1
  Mn  Mn138  1  0.83167859  0.00060299  -0.00153108  1
  Mn  Mn139  1  0.83676472  -0.00068422  0.33193482  1
  Mn  Mn140  1  0.83272008  -0.00284527  0.66499885  1
  Mn  Mn141  1  0.83312861  0.49909378  -0.00240170  1
  Mn  Mn142  1  0.83561725  0.50187434  0.33158540  1
  Mn  Mn143  1  0.83241127  0.50270984  0.66736168  1
  O  O144  1  0.16941622  0.12692519  0.02239440  1
  O  O145  1  0.16183517  0.12563016  0.34768000  1
  O  O146  1  0.17358969  0.12569675  0.67686166  1
  O  O147  1  0.15539661  0.62238623  0.02312968  1
  O  O148  1  0.16953312  0.62181868  0.36045941  1
  O  O149  1  0.16797097  0.62469756  0.69503889  1
  O  O150  1  0.50439914  0.12683401  0.01254617  1
  O  O151  1  0.49228519  0.12942866  0.34204771  1
  O  O152  1  0.51211594  0.12726645  0.69178952  1
  O  O153  1  0.50785696  0.62337987  0.02143576  1
  O  O154  1  0.50292527  0.62103068  0.35267205  1
  O  O155  1  0.51112450  0.62271035  0.69451617  1
  O  O156  1  0.82728558  0.12724086  0.02109128  1
  O  O157  1  0.84342729  0.12404166  0.35482093  1
  O  O158  1  0.83166524  0.12438013  0.67730697  1
  O  O159  1  0.83392519  0.62273372  0.00979177  1
  O  O160  1  0.84143304  0.62692186  0.35178400  1
  O  O161  1  0.83073570  0.62805776  0.69352607  1
  O  O162  1  0.16311827  0.37530701  0.30686111  1
  O  O163  1  0.17055265  0.37964701  0.64284719  1
  O  O164  1  0.15914540  0.37723376  0.97515007  1
  O  O165  1  0.17074876  0.87616517  0.30971056  1
  O  O166  1  0.15736659  0.86935874  0.63931050  1
  O  O167  1  0.16467237  0.87364175  0.98299871  1
  O  O168  1  0.49201453  0.37807822  0.30778411  1
  O  O169  1  0.49224309  0.38048393  0.64006007  1
  O  O170  1  0.50559513  0.37403483  0.97601395  1
  O  O171  1  0.49561395  0.87078249  0.31994209  1
  O  O172  1  0.50386872  0.87038481  0.65518324  1
  O  O173  1  0.50714633  0.87594977  0.97442728  1
  O  O174  1  0.84333460  0.37453801  0.31196412  1
  O  O175  1  0.82857638  0.37690146  0.65521389  1
  O  O176  1  0.82923806  0.37812784  0.96909562  1
  O  O177  1  0.83482236  0.87246228  0.30647722  1
  O  O178  1  0.83391462  0.87056284  0.63803986  1
  O  O179  1  0.82559135  0.87347522  0.98224759  1
  O  O180  1  -0.00146237  0.37057549  0.19570071  1
  O  O181  1  0.00696186  0.37659665  0.51106823  1
  O  O182  1  -0.00710663  0.38005998  0.85332354  1
  O  O183  1  -0.00656452  0.87619532  0.17610661  1
  O  O184  1  -0.00863594  0.87124848  0.52769613  1
  O  O185  1  -0.00017829  0.87234586  0.85083897  1
  O  O186  1  0.32257764  0.37611347  0.19287907  1
  O  O187  1  0.33531220  0.38039745  0.52962901  1
  O  O188  1  0.33187746  0.37506514  0.84639354  1
  O  O189  1  0.32423357  0.87316018  0.18366341  1
  O  O190  1  0.33022917  0.86886651  0.51050709  1
  O  O191  1  0.33692021  0.87512590  0.84504499  1
  O  O192  1  0.66689863  0.37707303  0.17666011  1
  O  O193  1  0.66356122  0.38055927  0.52047566  1
  O  O194  1  0.65909879  0.37811102  0.85926102  1
  O  O195  1  0.67103382  0.87175201  0.17363432  1
  O  O196  1  0.67532594  0.87114586  0.52191782  1
  O  O197  1  0.65845633  0.87134569  0.85976835  1
  O  O198  1  0.00234332  0.12998682  0.14261682  1
  O  O199  1  -0.00465686  0.12405395  0.47597422  1
  O  O200  1  -0.00009264  0.12071209  0.80894974  1
  O  O201  1  0.00856330  0.62324569  0.14195164  1
  O  O202  1  0.01048406  0.62611862  0.47251483  1
  O  O203  1  0.00564034  0.62676459  0.80818566  1
  O  O204  1  0.32788552  0.12850308  0.14353439  1
  O  O205  1  0.33145469  0.13244551  0.48198106  1
  O  O206  1  0.34037049  0.12736470  0.80626202  1
  O  O207  1  0.33468764  0.62290628  0.15680171  1
  O  O208  1  0.32362970  0.62057263  0.47465090  1
  O  O209  1  0.33202363  0.62207644  0.81105786  1
  O  O210  1  0.67754763  0.12741443  0.14132984  1
  O  O211  1  0.67402419  0.12375674  0.49504344  1
  O  O212  1  0.65881488  0.12742195  0.80467042  1
  O  O213  1  0.65956160  0.62286652  0.13947288  1
  O  O214  1  0.66663959  0.62491219  0.47559145  1
  O  O215  1  0.67306576  0.62446382  0.80542843  1
  O  O216  1  0.08377679  0.01882578  0.24995910  1
  O  O217  1  0.06868315  0.01325020  0.59588694  1
  O  O218  1  0.08200064  0.00737372  0.92100187  1
  O  O219  1  0.08717352  0.52050767  0.25427226  1
  O  O220  1  0.08185874  0.52503566  0.58799867  1
  O  O221  1  0.07544553  0.52258190  0.92112549  1
  O  O222  1  0.40780073  0.01118005  0.25478235  1
  O  O223  1  0.41214630  0.01781664  0.59647383  1
  O  O224  1  0.41204784  0.02359507  0.92091059  1
  O  O225  1  0.41300859  0.52048885  0.25767274  1
  O  O226  1  0.41770223  0.53126818  0.58511396  1
  O  O227  1  0.42112270  0.51227728  0.91130382  1
  O  O228  1  0.75916932  0.01350138  0.24228987  1
  O  O229  1  0.74836945  0.01333294  0.58723767  1
  O  O230  1  0.73618556  0.01468979  0.92378014  1
  O  O231  1  0.74443387  0.51480494  0.25196802  1
  O  O232  1  0.74720554  0.52390869  0.58640592  1
  O  O233  1  0.74611110  0.52077514  0.91822246  1
  O  O234  1  0.24610779  0.22651300  0.24936259  1
  O  O235  1  0.24916717  0.24418951  0.58392177  1
  O  O236  1  0.25162527  0.23627632  0.92015013  1
  O  O237  1  0.25021976  0.72778755  0.25427665  1
  O  O238  1  0.24662030  0.72724257  0.58338647  1
  O  O239  1  0.23991803  0.73598932  0.91360691  1
  O  O240  1  0.58272350  0.24802210  0.24095586  1
  O  O241  1  0.58470659  0.24323719  0.59115777  1
  O  O242  1  0.57561334  0.23100748  0.90645143  1
  O  O243  1  0.57832801  0.72860778  0.24396877  1
  O  O244  1  0.58275994  0.72724399  0.58131518  1
  O  O245  1  0.58173955  0.72446255  0.90908005  1
  O  O246  1  0.91747450  0.22415558  0.24341732  1
  O  O247  1  0.91129399  0.22994762  0.57666134  1
  O  O248  1  0.91354879  0.24305897  0.91827000  1
  O  O249  1  0.92323232  0.73207077  0.25072172  1
  O  O250  1  0.91429683  0.72062293  0.58050197  1
  O  O251  1  0.91240193  0.73007121  0.90787529  1
  O  O252  1  0.08012426  0.47096710  0.08417943  1
  O  O253  1  0.09125885  0.47986493  0.41929825  1
  O  O254  1  0.09375582  0.48519568  0.76171060  1
  O  O255  1  0.08506367  0.98559561  0.08823471  1
  O  O256  1  0.08923432  0.98035202  0.42730201  1
  O  O257  1  0.08802682  0.97523275  0.75277692  1
  O  O258  1  0.42241269  0.48537911  0.09690804  1
  O  O259  1  0.41836333  0.48075698  0.41796358  1
  O  O260  1  0.41935968  0.48297435  0.74761779  1
  O  O261  1  0.41863007  0.98994512  0.08547326  1
  O  O262  1  0.41316242  0.99656828  0.41740776  1
  O  O263  1  0.42932202  0.98851675  0.76248163  1
  O  O264  1  0.75358991  0.47843984  0.08117557  1
  O  O265  1  0.75449336  0.49844372  0.41832207  1
  O  O266  1  0.74946265  0.47801144  0.75621925  1
  O  O267  1  0.75240718  0.97988930  0.08349533  1
  O  O268  1  0.75839723  0.98819575  0.42359639  1
  O  O269  1  0.74898704  0.97941693  0.74895857  1
  O  O270  1  0.24305138  0.26617946  0.08971740  1
  O  O271  1  0.25459430  0.27564200  0.41528451  1
  O  O272  1  0.25507195  0.26842697  0.74786412  1
  O  O273  1  0.24475437  0.75679345  0.09298325  1
  O  O274  1  0.25005612  0.76527438  0.41735320  1
  O  O275  1  0.24530444  0.76262845  0.75167641  1
  O  O276  1  0.59084971  0.26673065  0.07318455  1
  O  O277  1  0.58091582  0.26495583  0.42068653  1
  O  O278  1  0.58477100  0.28123678  0.74762968  1
  O  O279  1  0.59142720  0.76511478  0.07237588  1
  O  O280  1  0.58653363  0.75162323  0.41275846  1
  O  O281  1  0.58979072  0.76934541  0.74744359  1
  O  O282  1  0.91838010  0.27515411  0.08610877  1
  O  O283  1  0.93041394  0.26328803  0.40346039  1
  O  O284  1  0.91514931  0.26128076  0.74905244  1
  O  O285  1  0.91587474  0.76262316  0.07623754  1
  O  O286  1  0.91771684  0.76162042  0.42337581  1
  O  O287  1  0.92358298  0.76537429  0.74051227  1
  O  O288  1  0.24108256  0.48884852  0.09151263  1
  O  O289  1  0.25076059  0.47108153  0.41655638  1
  O  O290  1  0.25404690  0.47889935  0.74402356  1
  O  O291  1  0.24408303  0.98993283  0.09013844  1
  O  O292  1  0.25053090  0.98696707  0.41366089  1
  O  O293  1  0.24943210  0.98722292  0.75378379  1
  O  O294  1  0.58677090  0.47744164  0.07856768  1
  O  O295  1  0.57895802  0.48845600  0.41903903  1
  O  O296  1  0.58449324  0.47676887  0.74605753  1
  O  O297  1  0.59132008  0.98879522  0.07125028  1
  O  O298  1  0.58676704  0.99397192  0.41884754  1
  O  O299  1  0.58729673  0.97386459  0.74978089  1
  O  O300  1  0.91579436  0.47470943  0.07765806  1
  O  O301  1  0.92845807  0.49184457  0.40969773  1
  O  O302  1  0.91454238  0.49221843  0.75421788  1
  O  O303  1  0.91014363  0.98982251  0.08777204  1
  O  O304  1  0.91687537  0.98075848  0.41891996  1
  O  O305  1  0.92169307  0.98317474  0.73876288  1
  O  O306  1  0.08090508  0.27512179  0.08766287  1
  O  O307  1  0.09005457  0.27106417  0.41760266  1
  O  O308  1  0.09174441  0.26876429  0.75819905  1
  O  O309  1  0.08530980  0.76863913  0.08750719  1
  O  O310  1  0.09342137  0.76714972  0.43035060  1
  O  O311  1  0.08566794  0.77196531  0.75422708  1
  O  O312  1  0.42294132  0.27005872  0.09524383  1
  O  O313  1  0.41840091  0.27692705  0.42571769  1
  O  O314  1  0.42520406  0.27305505  0.75802614  1
  O  O315  1  0.42406794  0.75746523  0.09153332  1
  O  O316  1  0.41761921  0.74611700  0.41856837  1
  O  O317  1  0.42519643  0.75466184  0.75485368  1
  O  O318  1  0.75568709  0.27617600  0.08356244  1
  O  O319  1  0.75842721  0.25417243  0.41850311  1
  O  O320  1  0.74946924  0.27184233  0.75608046  1
  O  O321  1  0.75266062  0.76600653  0.08335662  1
  O  O322  1  0.75930485  0.76083247  0.42570943  1
  O  O323  1  0.75056764  0.77258136  0.74909923  1
  O  O324  1  0.24865214  0.02309203  0.24929261  1
  O  O325  1  0.24867031  0.00632471  0.58401507  1
  O  O326  1  0.25247333  0.01389915  0.92279107  1
  O  O327  1  0.25057439  0.52164105  0.25592428  1
  O  O328  1  0.24636315  0.52634411  0.58507052  1
  O  O329  1  0.23811311  0.51333687  0.90927548  1
  O  O330  1  0.58529822  0.00428440  0.24330865  1
  O  O331  1  0.58905069  0.00871544  0.59200792  1
  O  O332  1  0.57623934  0.02173245  0.90867168  1
  O  O333  1  0.57930814  0.51823510  0.24661234  1
  O  O334  1  0.58251620  0.52275379  0.58230376  1
  O  O335  1  0.58405824  0.52501144  0.90985486  1
  O  O336  1  0.92094596  0.02449545  0.24900725  1
  O  O337  1  0.91064715  0.02016977  0.57688304  1
  O  O338  1  0.91255323  0.00819943  0.91807247  1
  O  O339  1  0.92251837  0.51403371  0.24940740  1
  O  O340  1  0.91609208  0.52548180  0.57897464  1
  O  O341  1  0.91520812  0.52157382  0.91414805  1
  O  O342  1  0.07983999  0.22951463  0.24752615  1
  O  O343  1  0.07288087  0.23370402  0.59117902  1
  O  O344  1  0.07693493  0.24122118  0.92437753  1
  O  O345  1  0.08662365  0.72833124  0.25506182  1
  O  O346  1  0.07783978  0.72419262  0.59119973  1
  O  O347  1  0.07760583  0.72987273  0.91668428  1
  O  O348  1  0.40224931  0.23964694  0.26248157  1
  O  O349  1  0.40841526  0.23478862  0.59953700  1
  O  O350  1  0.41121355  0.22736750  0.92192325  1
  O  O351  1  0.41453230  0.72970459  0.25418365  1
  O  O352  1  0.41453208  0.72215639  0.58505897  1
  O  O353  1  0.42053512  0.73499464  0.91574368  1
  O  O354  1  0.75934229  0.23921859  0.24246272  1
  O  O355  1  0.74566406  0.23669460  0.59042328  1
  O  O356  1  0.73461420  0.23699490  0.92398771  1
  O  O357  1  0.74004646  0.72939608  0.25442678  1
  O  O358  1  0.74882681  0.72448593  0.58553510  1
  O  O359  1  0.74524672  0.72893513  0.91762683  1
