# generated using pymatgen
data_Ba17Sr5La8Pr42Mn72O216
_symmetry_space_group_name_H-M   'P 1'
_cell_length_a   16.67093864
_cell_length_b   15.70646709
_cell_length_c   16.81768522
_cell_angle_alpha   89.99969693
_cell_angle_beta   90.02941990
_cell_angle_gamma   89.99418672
_symmetry_Int_Tables_number   1
_chemical_formula_structural   Ba17Sr5La8Pr42Mn72O216
_chemical_formula_sum   'Ba17 Sr5 La8 Pr42 Mn72 O216'
_cell_volume   4403.56814644
_cell_formula_units_Z   1
loop_
 _symmetry_equiv_pos_site_id
 _symmetry_equiv_pos_as_xyz
  1  'x, y, z'
loop_
 _atom_site_type_symbol
 _atom_site_label
 _atom_site_symmetry_multiplicity
 _atom_site_fract_x
 _atom_site_fract_y
 _atom_site_fract_z
 _atom_site_occupancy
  Ba  Ba0  1  0.33371618  0.62480053  0.66524886  1
  Ba  Ba1  1  0.16478355  0.62614553  0.50430292  1
  Ba  Ba2  1  0.66555140  0.37537266  0.33463418  1
  Ba  Ba3  1  0.66611415  0.37484464  0.00083440  1
  Ba  Ba4  1  0.33741276  0.87662245  -0.00054064  1
  Ba  Ba5  1  0.00222827  0.87590514  0.00432905  1
  Ba  Ba6  1  0.83494600  0.37629263  0.16743158  1
  Ba  Ba7  1  0.66683554  0.37496972  0.66594768  1
  Ba  Ba8  1  0.83070288  0.62573516  0.16636402  1
  Ba  Ba9  1  0.00076672  0.37454322  0.33467815  1
  Ba  Ba10  1  0.33257640  0.12477467  0.99616270  1
  Ba  Ba11  1  0.66801629  0.12373959  0.99838882  1
  Ba  Ba12  1  -0.00214345  0.12322510  0.66926315  1
  Ba  Ba13  1  0.83311398  0.12474460  0.83330962  1
  Ba  Ba14  1  0.16874262  0.62638114  0.16952520  1
  Ba  Ba15  1  0.83305150  0.37624919  0.83439477  1
  Ba  Ba16  1  0.66511294  0.62632572  0.33145126  1
  Sr  Sr17  1  0.33225940  0.12714955  0.32689808  1
  Sr  Sr18  1  0.66283381  0.62296584  0.99960728  1
  Sr  Sr19  1  0.49655764  0.62249562  0.83337427  1
  Sr  Sr20  1  0.00000654  0.37374980  0.00592542  1
  Sr  Sr21  1  0.00433795  0.87346761  0.33477317  1
  La  La22  1  0.83241275  0.12655485  0.50230761  1
  La  La23  1  0.33414924  0.12553591  0.66131104  1
  La  La24  1  0.66426905  0.62289836  0.66524501  1
  La  La25  1  -0.00282294  0.62580827  0.33090598  1
  La  La26  1  0.00220197  0.37466880  0.67072200  1
  La  La27  1  0.16706487  0.37430198  0.50069724  1
  La  La28  1  -0.00398674  0.12772314  0.99867921  1
  La  La29  1  0.50118464  0.37353586  0.83231669  1
  Pr  Pr30  1  0.17722715  0.87750764  0.83429110  1
  Pr  Pr31  1  -0.00087914  0.12543882  0.33547129  1
  Pr  Pr32  1  0.33327808  0.62477644  0.33170953  1
  Pr  Pr33  1  0.01015099  0.87577588  0.67399263  1
  Pr  Pr34  1  0.67127926  0.87118630  0.33396287  1
  Pr  Pr35  1  0.83131890  0.62485678  0.49864142  1
  Pr  Pr36  1  0.50151332  0.87744389  0.83046910  1
  Pr  Pr37  1  0.66985983  0.87308423  0.66810249  1
  Pr  Pr38  1  0.67032912  0.87319919  -0.00120081  1
  Pr  Pr39  1  0.16335827  0.12538128  0.50284712  1
  Pr  Pr40  1  0.33635758  0.87039795  0.66804279  1
  Pr  Pr41  1  0.50498189  0.12605660  0.49956871  1
  Pr  Pr42  1  0.82184314  0.62510837  0.83973415  1
  Pr  Pr43  1  0.66819837  0.12137145  0.32656185  1
  Pr  Pr44  1  0.50043934  0.62459192  0.16491500  1
  Pr  Pr45  1  0.49763962  0.87153929  0.49461360  1
  Pr  Pr46  1  -0.00571470  0.62653362  0.66658435  1
  Pr  Pr47  1  0.49190388  0.37740413  0.49441802  1
  Pr  Pr48  1  0.33455929  0.37834246  0.66555141  1
  Pr  Pr49  1  0.16027606  0.62552938  0.84028493  1
  Pr  Pr50  1  0.50195597  0.62270661  0.50345553  1
  Pr  Pr51  1  -0.01131891  0.62400988  1.00083757  1
  Pr  Pr52  1  0.50556454  0.87558064  0.16131671  1
  Pr  Pr53  1  0.33170071  0.87591211  0.33197420  1
  Pr  Pr54  1  0.17716388  0.87566650  0.16483662  1
  Pr  Pr55  1  0.83534017  0.12709354  0.16461615  1
  Pr  Pr56  1  0.50234061  0.12733509  0.83491578  1
  Pr  Pr57  1  0.83792780  0.87855208  0.49615010  1
  Pr  Pr58  1  0.50122458  0.37387584  0.16470925  1
  Pr  Pr59  1  0.16934963  0.87626405  0.50176406  1
  Pr  Pr60  1  0.33532490  0.37734008  0.00095844  1
  Pr  Pr61  1  0.83649284  0.87234242  0.16403434  1
  Pr  Pr62  1  0.83840555  0.87587589  0.83208286  1
  Pr  Pr63  1  0.32887770  0.62618742  0.99303540  1
  Pr  Pr64  1  0.16438269  0.12101434  0.16877349  1
  Pr  Pr65  1  0.15957579  0.12556210  0.83859341  1
  Pr  Pr66  1  0.67145801  0.12434817  0.66587722  1
  Pr  Pr67  1  0.83297272  0.37337236  0.49294295  1
  Pr  Pr68  1  0.17032986  0.37323993  0.83478390  1
  Pr  Pr69  1  0.50245973  0.12440476  0.16590252  1
  Pr  Pr70  1  0.32967011  0.37563949  0.33225593  1
  Pr  Pr71  1  0.16899715  0.37322164  0.16365072  1
  Mn  Mn72  1  0.00086589  -0.00034213  0.17109520  1
  Mn  Mn73  1  0.00125191  -0.00265783  0.50066533  1
  Mn  Mn74  1  0.00159178  -0.00151258  0.83689542  1
  Mn  Mn75  1  0.00280803  0.50079900  0.16719803  1
  Mn  Mn76  1  -0.00173771  0.50179440  0.50381955  1
  Mn  Mn77  1  0.00111639  0.50090161  0.83469805  1
  Mn  Mn78  1  0.33618604  0.00276125  0.16779287  1
  Mn  Mn79  1  0.33439755  0.00216338  0.49759735  1
  Mn  Mn80  1  0.33491510  0.00076885  0.82752685  1
  Mn  Mn81  1  0.33512652  0.49992446  0.16577923  1
  Mn  Mn82  1  0.33184750  0.49877183  0.49816893  1
  Mn  Mn83  1  0.33101204  0.49897014  0.83325766  1
  Mn  Mn84  1  0.66778485  -0.00178326  0.16584551  1
  Mn  Mn85  1  0.66481466  -0.00278373  0.49722898  1
  Mn  Mn86  1  0.66557363  -0.00301750  0.83118279  1
  Mn  Mn87  1  0.66485672  0.50069976  0.16632338  1
  Mn  Mn88  1  0.66674450  0.50132483  0.50072320  1
  Mn  Mn89  1  0.66288290  0.50128548  0.83263470  1
  Mn  Mn90  1  0.00260397  0.24743221  0.16763803  1
  Mn  Mn91  1  0.00011123  0.24896121  0.50249055  1
  Mn  Mn92  1  0.00109761  0.25289364  0.83710389  1
  Mn  Mn93  1  0.00193503  0.75184125  0.16994403  1
  Mn  Mn94  1  -0.00076689  0.75215349  0.50239980  1
  Mn  Mn95  1  0.00089315  0.75034292  0.83401777  1
  Mn  Mn96  1  0.33406332  0.24922996  0.16521327  1
  Mn  Mn97  1  0.33323990  0.24632602  0.49618957  1
  Mn  Mn98  1  0.33289166  0.25017620  0.82856696  1
  Mn  Mn99  1  0.33742781  0.74925322  0.16646202  1
  Mn  Mn100  1  0.33357794  0.75293262  0.49880974  1
  Mn  Mn101  1  0.33344891  0.74937898  0.83251448  1
  Mn  Mn102  1  0.66630465  0.24800638  0.16758540  1
  Mn  Mn103  1  0.66480729  0.24808473  0.49940904  1
  Mn  Mn104  1  0.66578504  0.25058067  0.83190126  1
  Mn  Mn105  1  0.66532290  0.75173259  0.16571506  1
  Mn  Mn106  1  0.66688928  0.75154202  0.50123652  1
  Mn  Mn107  1  0.66322933  0.75102837  0.83329020  1
  Mn  Mn108  1  0.16712848  0.25054451  0.00118311  1
  Mn  Mn109  1  0.16730280  0.24841702  0.33371459  1
  Mn  Mn110  1  0.16790112  0.24962681  0.66787367  1
  Mn  Mn111  1  0.16611520  0.75033512  0.00211879  1
  Mn  Mn112  1  0.16769394  0.75198206  0.33612029  1
  Mn  Mn113  1  0.16680398  0.75060106  0.67023786  1
  Mn  Mn114  1  0.49830151  0.24954838  -0.00149578  1
  Mn  Mn115  1  0.49903073  0.24813581  0.33288967  1
  Mn  Mn116  1  0.49902297  0.24751207  0.66458404  1
  Mn  Mn117  1  0.50048290  0.74921209  -0.00236206  1
  Mn  Mn118  1  0.49721536  0.75159793  0.33053299  1
  Mn  Mn119  1  0.50158255  0.75125096  0.66407496  1
  Mn  Mn120  1  0.83369278  0.25084434  0.00105726  1
  Mn  Mn121  1  0.83311012  0.24622850  0.33515169  1
  Mn  Mn122  1  0.83325793  0.25045076  0.66474383  1
  Mn  Mn123  1  0.83171164  0.75067420  -0.00117429  1
  Mn  Mn124  1  0.83547470  0.75365357  0.33373439  1
  Mn  Mn125  1  0.83433770  0.75094897  0.66706346  1
  Mn  Mn126  1  0.16756220  0.00026167  0.00250532  1
  Mn  Mn127  1  0.16716890  -0.00042849  0.33552669  1
  Mn  Mn128  1  0.16973646  0.00139140  0.66733406  1
  Mn  Mn129  1  0.16469766  0.50005653  0.00142707  1
  Mn  Mn130  1  0.16675073  0.49989556  0.33550910  1
  Mn  Mn131  1  0.16565160  0.49923849  0.67037984  1
  Mn  Mn132  1  0.50171062  -0.00031983  -0.00268210  1
  Mn  Mn133  1  0.49886219  -0.00150084  0.33200561  1
  Mn  Mn134  1  0.50046424  0.00028694  0.66300032  1
  Mn  Mn135  1  0.49752016  0.50094753  -0.00036167  1
  Mn  Mn136  1  0.49724757  0.50101623  0.33193404  1
  Mn  Mn137  1  0.49983865  0.49922842  0.66560619  1
  Mn  Mn138  1  0.83406015  -0.00251541  0.00038295  1
  Mn  Mn139  1  0.83521300  -0.00055468  0.33228297  1
  Mn  Mn140  1  0.83278231  -0.00332168  0.66358323  1
  Mn  Mn141  1  0.83169391  0.50062268  0.00048602  1
  Mn  Mn142  1  0.83350221  0.50019293  0.33468678  1
  Mn  Mn143  1  0.83472917  0.50358182  0.66639303  1
  O  O144  1  0.16495538  0.12624663  0.02337075  1
  O  O145  1  0.16671910  0.12301406  0.36071434  1
  O  O146  1  0.17688692  0.12525782  0.69384150  1
  O  O147  1  0.17710128  0.62529075  0.01244729  1
  O  O148  1  0.17700595  0.62880178  0.34898636  1
  O  O149  1  0.16362709  0.62714629  0.69294950  1
  O  O150  1  0.49891013  0.12524721  0.01848678  1
  O  O151  1  0.50619750  0.11985755  0.35792498  1
  O  O152  1  0.49411676  0.12201116  0.69229229  1
  O  O153  1  0.49133377  0.62530062  0.02128870  1
  O  O154  1  0.49204981  0.62855661  0.36073156  1
  O  O155  1  0.50446881  0.62984243  0.68060515  1
  O  O156  1  0.83671984  0.11984160  0.01740828  1
  O  O157  1  0.82888747  0.11906382  0.35884693  1
  O  O158  1  0.82673202  0.11717845  0.67605234  1
  O  O159  1  0.83549291  0.62886947  0.00608836  1
  O  O160  1  0.83967135  0.63054269  0.35440183  1
  O  O161  1  0.84261107  0.63095676  0.69633198  1
  O  O162  1  0.17078505  0.37133761  0.30840683  1
  O  O163  1  0.16039034  0.37188905  0.64544919  1
  O  O164  1  0.16649383  0.37528257  0.97842054  1
  O  O165  1  0.16958331  0.87703319  0.30845659  1
  O  O166  1  0.16315327  0.87743675  0.64653320  1
  O  O167  1  0.16758936  0.87428937  0.97914002  1
  O  O168  1  0.49106092  0.37589775  0.30952053  1
  O  O169  1  0.49423372  0.36886389  0.63826193  1
  O  O170  1  0.49252261  0.37446355  0.97725085  1
  O  O171  1  0.48923081  0.87590249  0.30349954  1
  O  O172  1  0.49976736  0.87774513  0.63699025  1
  O  O173  1  0.50585780  0.87399286  0.97528638  1
  O  O174  1  0.83391693  0.36994125  0.33070348  1
  O  O175  1  0.83845649  0.38098042  0.64067901  1
  O  O176  1  0.83808318  0.37866287  0.99445244  1
  O  O177  1  0.83154924  0.87941343  0.30788160  1
  O  O178  1  0.82525374  0.87271336  0.63830215  1
  O  O179  1  0.83168400  0.87196155  0.97799306  1
  O  O180  1  0.00823097  0.37132264  0.17743839  1
  O  O181  1  -0.00634103  0.37864639  0.52493053  1
  O  O182  1  0.00928113  0.37749298  0.85428168  1
  O  O183  1  -0.01121371  0.87766361  0.18741158  1
  O  O184  1  -0.00176242  0.87503207  0.52914417  1
  O  O185  1  -0.00457739  0.87300503  0.84771721  1
  O  O186  1  0.33538308  0.37322162  0.19021792  1
  O  O187  1  0.33951942  0.36776761  0.52173266  1
  O  O188  1  0.33326073  0.37561237  0.85657131  1
  O  O189  1  0.33641823  0.87807376  0.18770338  1
  O  O190  1  0.33830746  0.88078833  0.52540883  1
  O  O191  1  0.33437371  0.87544742  0.84308987  1
  O  O192  1  0.65710686  0.37123428  0.17652794  1
  O  O193  1  0.67457688  0.37855123  0.51051278  1
  O  O194  1  0.65724375  0.37591601  0.84026432  1
  O  O195  1  0.66019435  0.87746628  0.19114723  1
  O  O196  1  0.66491051  0.87547797  0.52548687  1
  O  O197  1  0.65556868  0.87316533  0.85459192  1
  O  O198  1  0.00873030  0.12157992  0.14444047  1
  O  O199  1  0.00555806  0.11844076  0.48032908  1
  O  O200  1  0.00777315  0.12497966  0.82574873  1
  O  O201  1  0.00370507  0.62913655  0.14785900  1
  O  O202  1  -0.00366212  0.62935097  0.47671719  1
  O  O203  1  0.00857918  0.62782968  0.80788734  1
  O  O204  1  0.33172985  0.12718203  0.15178163  1
  O  O205  1  0.32813904  0.12399069  0.47421768  1
  O  O206  1  0.33527792  0.12423441  0.80420924  1
  O  O207  1  0.34063489  0.62182580  0.13722576  1
  O  O208  1  0.33768034  0.62795430  0.47639504  1
  O  O209  1  0.32621554  0.62310539  0.82179714  1
  O  O210  1  0.66217572  0.12029339  0.15533708  1
  O  O211  1  0.66036735  0.11683752  0.46980476  1
  O  O212  1  0.65918512  0.11948708  0.80996059  1
  O  O213  1  0.65744811  0.63032244  0.15167235  1
  O  O214  1  0.66175935  0.62788705  0.48697549  1
  O  O215  1  0.66961631  0.63069882  0.81015725  1
  O  O216  1  0.08040983  0.02244744  0.25930727  1
  O  O217  1  0.08909179  0.01409433  0.58402036  1
  O  O218  1  0.08395112  0.01906166  0.92458239  1
  O  O219  1  0.08130026  0.51612169  0.26089622  1
  O  O220  1  0.07147851  0.51406584  0.59799757  1
  O  O221  1  0.07533336  0.52595014  0.92479775  1
  O  O222  1  0.41855645  0.02285202  0.25069113  1
  O  O223  1  0.41749214  0.02541646  0.57915505  1
  O  O224  1  0.41907267  0.01249938  0.90483564  1
  O  O225  1  0.41752558  0.52566263  0.24785183  1
  O  O226  1  0.42306249  0.51145519  0.57324414  1
  O  O227  1  0.40509442  0.51496038  0.92430448  1
  O  O228  1  0.75187929  0.01895656  0.24827014  1
  O  O229  1  0.74504383  0.01765700  0.58010822  1
  O  O230  1  0.74922850  -0.00153439  0.91402868  1
  O  O231  1  0.74962185  0.50525260  0.25308327  1
  O  O232  1  0.75130026  0.52644668  0.58576270  1
  O  O233  1  0.74689494  0.51569040  0.91454098  1
  O  O234  1  0.24551156  0.23396665  0.24419702  1
  O  O235  1  0.25059408  0.22999848  0.57921958  1
  O  O236  1  0.24147446  0.23616702  0.90594515  1
  O  O237  1  0.25935569  0.74218035  0.25585881  1
  O  O238  1  0.24948954  0.74915664  0.58390152  1
  O  O239  1  0.24137041  0.73731523  0.91093014  1
  O  O240  1  0.58633228  0.22797711  0.25691763  1
  O  O241  1  0.58522508  0.22203357  0.58864528  1
  O  O242  1  0.57863387  0.23748646  0.91310394  1
  O  O243  1  0.57274959  0.74061223  0.24088803  1
  O  O244  1  0.58178205  0.73389991  0.58109279  1
  O  O245  1  0.57539554  0.73246046  0.91034389  1
  O  O246  1  0.91657623  0.22394211  0.25124449  1
  O  O247  1  0.91049941  0.23589435  0.57769317  1
  O  O248  1  0.92135620  0.23949755  0.92080560  1
  O  O249  1  0.92026291  0.73724449  0.25491997  1
  O  O250  1  0.91043426  0.72884668  0.57944663  1
  O  O251  1  0.91066137  0.73225944  0.90493033  1
  O  O252  1  0.09245667  0.48367467  0.08963944  1
  O  O253  1  0.08703268  0.48438007  0.43090269  1
  O  O254  1  0.09319811  0.48254219  0.76317533  1
  O  O255  1  0.09169076  0.98292680  0.10146851  1
  O  O256  1  0.08943234  0.97950642  0.42370454  1
  O  O257  1  0.09078283  0.98206203  0.75691126  1
  O  O258  1  0.41690244  0.47372582  0.08548389  1
  O  O259  1  0.40926907  0.47933758  0.40925121  1
  O  O260  1  0.41538559  0.47894290  0.74840612  1
  O  O261  1  0.42790260  0.98903384  0.09031574  1
  O  O262  1  0.41818120  0.97721289  0.41656395  1
  O  O263  1  0.41932115  0.97613732  0.74352163  1
  O  O264  1  0.74774303  0.49798939  0.08199403  1
  O  O265  1  0.75515246  0.49437474  0.42484891  1
  O  O266  1  0.75326060  0.50029406  0.74794267  1
  O  O267  1  0.75176476  0.97454707  0.08406457  1
  O  O268  1  0.74978245  0.97469434  0.41414251  1
  O  O269  1  0.74943316  0.97454000  0.74848756  1
  O  O270  1  0.25267778  0.27478596  0.07880092  1
  O  O271  1  0.25096276  0.27257495  0.41466000  1
  O  O272  1  0.25339271  0.27634401  0.74405215  1
  O  O273  1  0.25453040  0.76503468  0.08714312  1
  O  O274  1  0.25154832  0.77788541  0.41853681  1
  O  O275  1  0.25276180  0.77210666  0.74710324  1
  O  O276  1  0.57274345  0.25749468  0.09360497  1
  O  O277  1  0.57152147  0.26415737  0.42862274  1
  O  O278  1  0.57223739  0.25911635  0.75419028  1
  O  O279  1  0.58819993  0.77147041  0.07641034  1
  O  O280  1  0.58068643  0.77508869  0.40999483  1
  O  O281  1  0.58713119  0.77359825  0.74329794  1
  O  O282  1  0.92260961  0.24882563  0.08517181  1
  O  O283  1  0.91639070  0.25257815  0.41908582  1
  O  O284  1  0.92439768  0.26551814  0.74595213  1
  O  O285  1  0.91557702  0.76129807  0.08513071  1
  O  O286  1  0.91544965  0.77370935  0.41916674  1
  O  O287  1  0.92369740  0.77432043  0.74009408  1
  O  O288  1  0.25409647  0.47730869  0.08100017  1
  O  O289  1  0.24907989  0.47510711  0.41713363  1
  O  O290  1  0.25266910  0.47438634  0.74863593  1
  O  O291  1  0.25027020  0.98703875  0.08633822  1
  O  O292  1  0.25224121  0.97443711  0.41648652  1
  O  O293  1  0.25677400  0.97632376  0.74056733  1
  O  O294  1  0.57356103  0.49058138  0.08742973  1
  O  O295  1  0.57086199  0.48834933  0.42428262  1
  O  O296  1  0.57687330  0.49043390  0.75189315  1
  O  O297  1  0.58936431  0.97795217  0.08031444  1
  O  O298  1  0.58237084  0.97013067  0.41366417  1
  O  O299  1  0.58487591  0.97607567  0.74287963  1
  O  O300  1  0.92470719  0.49867637  0.07514377  1
  O  O301  1  0.91324865  0.48929418  0.42516157  1
  O  O302  1  0.93017215  0.48664910  0.73985718  1
  O  O303  1  0.91096285  0.99045576  0.09317788  1
  O  O304  1  0.91694840  0.98181410  0.41543576  1
  O  O305  1  0.91737754  0.97768047  0.74633838  1
  O  O306  1  0.09411925  0.26199156  0.09281317  1
  O  O307  1  0.09013998  0.26166344  0.42546113  1
  O  O308  1  0.09039806  0.26608097  0.75942316  1
  O  O309  1  0.09219207  0.76966651  0.09583171  1
  O  O310  1  0.08844053  0.77157037  0.42840527  1
  O  O311  1  0.09181955  0.77365756  0.76108918  1
  O  O312  1  0.41392316  0.27191053  0.07904500  1
  O  O313  1  0.41262231  0.26907165  0.41080314  1
  O  O314  1  0.41255602  0.27074047  0.74088676  1
  O  O315  1  0.42900672  0.76623295  0.09269531  1
  O  O316  1  0.41363076  0.77570013  0.41162139  1
  O  O317  1  0.42171054  0.77009714  0.74713545  1
  O  O318  1  0.75189378  0.25002153  0.08937890  1
  O  O319  1  0.75372468  0.25546559  0.42083669  1
  O  O320  1  0.74688524  0.25277075  0.74416568  1
  O  O321  1  0.75004465  0.77380971  0.08572933  1
  O  O322  1  0.75268090  0.77262670  0.42045328  1
  O  O323  1  0.75634564  0.77446149  0.75467750  1
  O  O324  1  0.24542851  0.01498112  0.24805102  1
  O  O325  1  0.25020457  0.02130014  0.57886188  1
  O  O326  1  0.24399130  0.01303952  0.90054485  1
  O  O327  1  0.26009810  0.51081569  0.25397483  1
  O  O328  1  0.24979783  0.50049163  0.58311220  1
  O  O329  1  0.24059488  0.51281790  0.91129493  1
  O  O330  1  0.58197222  0.01701515  0.25031289  1
  O  O331  1  0.58156573  0.02460841  0.58216012  1
  O  O332  1  0.57663620  0.01386816  0.90547139  1
  O  O333  1  0.57521697  0.51305533  0.24795157  1
  O  O334  1  0.58524948  0.51700497  0.58438001  1
  O  O335  1  0.57501744  0.51309519  0.91587459  1
  O  O336  1  0.91727400  0.02891067  0.25213487  1
  O  O337  1  0.90932776  0.00984585  0.57461342  1
  O  O338  1  0.91893808  0.01056700  0.92172367  1
  O  O339  1  0.91979732  0.51330824  0.25599553  1
  O  O340  1  0.91238584  0.53016556  0.58132696  1
  O  O341  1  0.91266898  0.52384787  0.90752496  1
  O  O342  1  0.08206922  0.22333258  0.25555391  1
  O  O343  1  0.08688017  0.23430172  0.58482167  1
  O  O344  1  0.08235291  0.23134615  0.92395559  1
  O  O345  1  0.07958712  0.73818794  0.26249087  1
  O  O346  1  0.07339056  0.73903688  0.59993294  1
  O  O347  1  0.07555711  0.72714806  0.92421056  1
  O  O348  1  0.42505986  0.23144617  0.24210747  1
  O  O349  1  0.41961831  0.22400577  0.57648182  1
  O  O350  1  0.41973602  0.23583715  0.90501167  1
  O  O351  1  0.41494801  0.72274106  0.25112993  1
  O  O352  1  0.42264979  0.73872077  0.57365855  1
  O  O353  1  0.40926552  0.73282087  0.92135897  1
  O  O354  1  0.75122391  0.22627574  0.25199533  1
  O  O355  1  0.74669424  0.22716914  0.57968900  1
  O  O356  1  0.74894691  0.24494387  0.91475001  1
  O  O357  1  0.74731130  0.74988726  0.25219366  1
  O  O358  1  0.74854226  0.72723120  0.59234846  1
  O  O359  1  0.74329887  0.73871138  0.91722603  1
