# generated using pymatgen
data_Ba17Sr5La8Pr42Mn72O216
_symmetry_space_group_name_H-M   'P 1'
_cell_length_a   16.69312520
_cell_length_b   15.71461208
_cell_length_c   16.82541899
_cell_angle_alpha   89.99755187
_cell_angle_beta   89.99326965
_cell_angle_gamma   90.00011987
_symmetry_Int_Tables_number   1
_chemical_formula_structural   Ba17Sr5La8Pr42Mn72O216
_chemical_formula_sum   'Ba17 Sr5 La8 Pr42 Mn72 O216'
_cell_volume   4413.74460567
_cell_formula_units_Z   1
loop_
 _symmetry_equiv_pos_site_id
 _symmetry_equiv_pos_as_xyz
  1  'x, y, z'
loop_
 _atom_site_type_symbol
 _atom_site_label
 _atom_site_symmetry_multiplicity
 _atom_site_fract_x
 _atom_site_fract_y
 _atom_site_fract_z
 _atom_site_occupancy
  Ba  Ba0  1  0.83029465  0.12469825  0.16431677  1
  Ba  Ba1  1  0.33088030  0.12382807  0.66785946  1
  Ba  Ba2  1  0.83637241  0.37515545  0.16680665  1
  Ba  Ba3  1  0.33265563  0.62705287  0.66362451  1
  Ba  Ba4  1  0.32813066  0.12395518  1.00016037  1
  Ba  Ba5  1  0.16381097  0.12514869  0.83598240  1
  Ba  Ba6  1  0.50377353  0.37369552  0.49930451  1
  Ba  Ba7  1  -0.00049364  0.87274632  0.00133304  1
  Ba  Ba8  1  0.50537993  0.37475108  0.83196747  1
  Ba  Ba9  1  0.33561626  0.87485199  0.00061249  1
  Ba  Ba10  1  0.32973798  0.62513208  0.99996143  1
  Ba  Ba11  1  0.83545538  0.87472233  0.16547645  1
  Ba  Ba12  1  0.66269212  0.62703907  0.33314746  1
  Ba  Ba13  1  0.00164342  0.37759304  0.00357977  1
  Ba  Ba14  1  0.50386051  0.87499653  0.83188824  1
  Ba  Ba15  1  0.49723341  0.62484965  0.49775315  1
  Ba  Ba16  1  -0.00396873  0.12567095  0.66876421  1
  Sr  Sr17  1  0.82445696  0.62667405  0.50233066  1
  Sr  Sr18  1  0.84236633  0.87294457  0.49849865  1
  Sr  Sr19  1  0.16031995  0.12349723  0.16576445  1
  Sr  Sr20  1  0.84000411  0.87498702  0.83216212  1
  Sr  Sr21  1  0.34117807  0.87527911  0.67090659  1
  La  La22  1  0.66117480  0.62592880  0.66027872  1
  La  La23  1  0.00920749  0.37605817  0.67087270  1
  La  La24  1  0.67586898  0.87306130  0.66830050  1
  La  La25  1  0.67432268  0.37495323  0.33523558  1
  La  La26  1  0.34261603  0.37538401  0.66762165  1
  La  La27  1  0.32789119  0.62321984  0.33239302  1
  La  La28  1  0.48917472  0.62627686  0.17087094  1
  La  La29  1  0.16023591  0.62682851  0.16860663  1
  Pr  Pr30  1  0.33884777  0.37094752  0.00134953  1
  Pr  Pr31  1  0.67718809  0.87549949  0.33535500  1
  Pr  Pr32  1  0.50830046  0.87403347  0.15812741  1
  Pr  Pr33  1  -0.00893246  0.12389903  0.33345536  1
  Pr  Pr34  1  0.49206499  0.62489551  0.83197509  1
  Pr  Pr35  1  0.66292040  0.12500997  0.99556604  1
  Pr  Pr36  1  0.66227256  0.62552048  0.99760349  1
  Pr  Pr37  1  -0.00947920  0.62498280  1.00128465  1
  Pr  Pr38  1  0.17531318  0.87556390  0.83292394  1
  Pr  Pr39  1  0.15966951  0.62650822  0.83648932  1
  Pr  Pr40  1  0.17336538  0.37451910  0.16548160  1
  Pr  Pr41  1  -0.00514835  0.12376285  0.99938554  1
  Pr  Pr42  1  0.00941815  0.37378766  0.33557718  1
  Pr  Pr43  1  0.50541395  0.87342577  0.50278453  1
  Pr  Pr44  1  0.49071001  0.12438673  0.83540665  1
  Pr  Pr45  1  0.67305254  0.87626016  -0.00011548  1
  Pr  Pr46  1  0.34169007  0.87762997  0.33455992  1
  Pr  Pr47  1  0.17557503  0.87783592  0.50307484  1
  Pr  Pr48  1  0.00688020  0.87487534  0.67306024  1
  Pr  Pr49  1  0.83143647  0.12325788  0.83873180  1
  Pr  Pr50  1  0.84234083  0.37628908  0.83239882  1
  Pr  Pr51  1  0.32104195  0.12797110  0.33094616  1
  Pr  Pr52  1  0.49052069  0.12450839  0.50147153  1
  Pr  Pr53  1  0.17734963  0.37491654  0.83399439  1
  Pr  Pr54  1  0.15720467  0.12452878  0.50858672  1
  Pr  Pr55  1  0.82641266  0.62596002  0.83248358  1
  Pr  Pr56  1  0.67458253  0.37392399  0.00082618  1
  Pr  Pr57  1  0.65566352  0.12371684  0.32792978  1
  Pr  Pr58  1  0.82673774  0.62527226  0.16728698  1
  Pr  Pr59  1  0.34233763  0.37366493  0.33593415  1
  Pr  Pr60  1  0.67754975  0.37852355  0.66650930  1
  Pr  Pr61  1  0.17733530  0.37242056  0.50037341  1
  Pr  Pr62  1  0.50670657  0.37493572  0.16175472  1
  Pr  Pr63  1  0.84133008  0.37593990  0.49445033  1
  Pr  Pr64  1  0.17042626  0.87570426  0.16408175  1
  Pr  Pr65  1  0.48767407  0.12373618  0.16638895  1
  Pr  Pr66  1  0.82339434  0.12270370  0.50343342  1
  Pr  Pr67  1  0.66096878  0.12407066  0.66548100  1
  Pr  Pr68  1  -0.01061341  0.62549614  0.66280356  1
  Pr  Pr69  1  -0.01096175  0.62604079  0.33492167  1
  Pr  Pr70  1  0.00969703  0.87665542  0.33670829  1
  Pr  Pr71  1  0.15996021  0.62606828  0.50586433  1
  Mn  Mn72  1  0.00070218  0.00114217  0.16926011  1
  Mn  Mn73  1  -0.00003473  -0.00194557  0.50177102  1
  Mn  Mn74  1  -0.00056056  -0.00191533  0.83439195  1
  Mn  Mn75  1  0.00148531  0.50173587  0.17041120  1
  Mn  Mn76  1  0.00086789  0.49956937  0.50156060  1
  Mn  Mn77  1  0.00124549  0.50202875  0.83263934  1
  Mn  Mn78  1  0.33035572  0.00098634  0.17033257  1
  Mn  Mn79  1  0.33356807  -0.00132439  0.49913622  1
  Mn  Mn80  1  0.33335529  -0.00110270  0.83311373  1
  Mn  Mn81  1  0.33124678  0.49793248  0.16783635  1
  Mn  Mn82  1  0.33212465  0.49970552  0.49853619  1
  Mn  Mn83  1  0.33320485  0.50141766  0.83295698  1
  Mn  Mn84  1  0.66361231  0.00175349  0.16579425  1
  Mn  Mn85  1  0.66688279  0.00017834  0.49818948  1
  Mn  Mn86  1  0.66993954  0.00091950  0.83041741  1
  Mn  Mn87  1  0.66412822  0.49956631  0.16447456  1
  Mn  Mn88  1  0.66845296  0.49910954  0.50061006  1
  Mn  Mn89  1  0.66926143  0.50072355  0.83148617  1
  Mn  Mn90  1  0.00157200  0.24876774  0.16906258  1
  Mn  Mn91  1  -0.00037289  0.25152101  0.50072913  1
  Mn  Mn92  1  -0.00023973  0.25272430  0.83455951  1
  Mn  Mn93  1  0.00019730  0.74850662  0.17007388  1
  Mn  Mn94  1  0.00117056  0.75079824  0.50178909  1
  Mn  Mn95  1  0.00045583  0.74827200  0.83256958  1
  Mn  Mn96  1  0.33097508  0.24956404  0.16927960  1
  Mn  Mn97  1  0.33288404  0.24801424  0.49816476  1
  Mn  Mn98  1  0.33428499  0.25112644  0.83449447  1
  Mn  Mn99  1  0.33048078  0.75066497  0.17012963  1
  Mn  Mn100  1  0.33255191  0.75407129  0.49852025  1
  Mn  Mn101  1  0.33253872  0.74911218  0.83121473  1
  Mn  Mn102  1  0.66380989  0.24831230  0.16582189  1
  Mn  Mn103  1  0.66831292  0.24786191  0.49834677  1
  Mn  Mn104  1  0.67069881  0.25057623  0.83005780  1
  Mn  Mn105  1  0.66456312  0.74965288  0.16404621  1
  Mn  Mn106  1  0.66731046  0.75241998  0.50007615  1
  Mn  Mn107  1  0.66924778  0.74872717  0.83120616  1
  Mn  Mn108  1  0.16436099  0.25168308  0.00223898  1
  Mn  Mn109  1  0.16483785  0.24948064  0.33488892  1
  Mn  Mn110  1  0.16686724  0.25126059  0.66653852  1
  Mn  Mn111  1  0.16410063  0.74858779  0.00124946  1
  Mn  Mn112  1  0.16681895  0.75046775  0.33706111  1
  Mn  Mn113  1  0.16606778  0.74912073  0.66785245  1
  Mn  Mn114  1  0.50173137  0.25046061  -0.00043491  1
  Mn  Mn115  1  0.49966995  0.24798357  0.33121666  1
  Mn  Mn116  1  0.50342838  0.24911982  0.66595538  1
  Mn  Mn117  1  0.50198922  0.74855232  -0.00110084  1
  Mn  Mn118  1  0.49767467  0.75458905  0.33060043  1
  Mn  Mn119  1  0.50209003  0.75140760  0.66536322  1
  Mn  Mn120  1  0.83316789  0.25003303  -0.00191367  1
  Mn  Mn121  1  0.83411204  0.24910734  0.33542931  1
  Mn  Mn122  1  0.83325057  0.25032051  0.66518922  1
  Mn  Mn123  1  0.83076058  0.74800197  -0.00122043  1
  Mn  Mn124  1  0.83443924  0.75000608  0.33427737  1
  Mn  Mn125  1  0.83514586  0.75135698  0.66606970  1
  Mn  Mn126  1  0.16398389  -0.00117103  0.00202863  1
  Mn  Mn127  1  0.16638342  0.00068132  0.33528637  1
  Mn  Mn128  1  0.16633145  -0.00066348  0.66702192  1
  Mn  Mn129  1  0.16565803  0.50050446  0.00102224  1
  Mn  Mn130  1  0.16580976  0.49982541  0.33645563  1
  Mn  Mn131  1  0.16722284  0.50017280  0.66767900  1
  Mn  Mn132  1  0.50215790  0.00015169  -0.00086691  1
  Mn  Mn133  1  0.49899742  -0.00082297  0.33238230  1
  Mn  Mn134  1  0.50252001  0.00140943  0.66555187  1
  Mn  Mn135  1  0.50068631  0.49989105  -0.00034126  1
  Mn  Mn136  1  0.49876353  0.49930594  0.33005748  1
  Mn  Mn137  1  0.50261436  0.49834773  0.66617294  1
  Mn  Mn138  1  0.83282013  -0.00063700  -0.00133042  1
  Mn  Mn139  1  0.83430303  -0.00128534  0.33632190  1
  Mn  Mn140  1  0.83392776  0.00014865  0.66707752  1
  Mn  Mn141  1  0.83101094  0.50258190  -0.00090204  1
  Mn  Mn142  1  0.83386518  0.50139455  0.33335482  1
  Mn  Mn143  1  0.83512087  0.49984995  0.66455872  1
  O  O144  1  0.15906211  0.12641704  0.01487707  1
  O  O145  1  0.17122128  0.12668879  0.36501017  1
  O  O146  1  0.16486259  0.12589708  0.67517266  1
  O  O147  1  0.16215997  0.62333668  0.02313419  1
  O  O148  1  0.17517236  0.62667837  0.36413812  1
  O  O149  1  0.16479284  0.62236972  0.69142951  1
  O  O150  1  0.50977920  0.12698670  0.02313978  1
  O  O151  1  0.50693471  0.12279603  0.35965192  1
  O  O152  1  0.51113591  0.12641928  0.68901265  1
  O  O153  1  0.50847021  0.62290798  0.02614913  1
  O  O154  1  0.49238983  0.63016643  0.33969099  1
  O  O155  1  0.51064516  0.62352573  0.68340739  1
  O  O156  1  0.83795420  0.12583631  0.00373791  1
  O  O157  1  0.83944140  0.12394091  0.35964244  1
  O  O158  1  0.82800858  0.12654715  0.69255833  1
  O  O159  1  0.82528996  0.62422526  0.02152071  1
  O  O160  1  0.83826293  0.62687045  0.35336367  1
  O  O161  1  0.83791199  0.62437404  0.68902637  1
  O  O162  1  0.15886567  0.37247362  0.30853313  1
  O  O163  1  0.16318478  0.37729438  0.64410602  1
  O  O164  1  0.16604642  0.37949731  0.97970285  1
  O  O165  1  0.15931202  0.87433195  0.30754299  1
  O  O166  1  0.15724357  0.87365179  0.64623059  1
  O  O167  1  0.16276076  0.87012458  0.98165835  1
  O  O168  1  0.49451664  0.36971674  0.30730686  1
  O  O169  1  0.49636558  0.37160525  0.65731935  1
  O  O170  1  0.49272372  0.37490967  0.98798996  1
  O  O171  1  0.49239595  0.87869218  0.30148066  1
  O  O172  1  0.50627427  0.87948200  0.64870915  1
  O  O173  1  0.50612704  0.87428495  0.98970831  1
  O  O174  1  0.82929497  0.37466586  0.32384432  1
  O  O175  1  0.82839716  0.37425485  0.63821713  1
  O  O176  1  0.82613051  0.37838457  0.97727677  1
  O  O177  1  0.83135037  0.87315157  0.32206065  1
  O  O178  1  0.83354843  0.87607622  0.64745136  1
  O  O179  1  0.82526063  0.87199352  0.98300670  1
  O  O180  1  0.00404969  0.37739448  0.19169119  1
  O  O181  1  -0.00981492  0.37728974  0.52660409  1
  O  O182  1  -0.00687072  0.37998237  0.84647492  1
  O  O183  1  0.00435290  0.87316524  0.19243504  1
  O  O184  1  0.00031624  0.87178399  0.52785931  1
  O  O185  1  0.00082667  0.87006117  0.84425909  1
  O  O186  1  0.32640013  0.37310460  0.19455659  1
  O  O187  1  0.32632363  0.37019327  0.52111960  1
  O  O188  1  0.33124030  0.37808189  0.85468538  1
  O  O189  1  0.32360962  0.87770060  0.19166927  1
  O  O190  1  0.32551642  0.87767635  0.52025631  1
  O  O191  1  0.32996984  0.87178889  0.84022424  1
  O  O192  1  0.65803096  0.37223342  0.19052595  1
  O  O193  1  0.67528422  0.37118045  0.52049913  1
  O  O194  1  0.67355221  0.37621939  0.85833791  1
  O  O195  1  0.65711639  0.87767895  0.18899233  1
  O  O196  1  0.65869273  0.87987007  0.52263528  1
  O  O197  1  0.66891615  0.87274011  0.85689071  1
  O  O198  1  0.00557117  0.12475738  0.14674494  1
  O  O199  1  0.00911446  0.12667252  0.47727253  1
  O  O200  1  -0.00818520  0.12720597  0.82641244  1
  O  O201  1  0.01096229  0.62462056  0.14766579  1
  O  O202  1  0.01184819  0.62379550  0.47745096  1
  O  O203  1  0.00566991  0.62341763  0.80534963  1
  O  O204  1  0.33650441  0.12578373  0.15602705  1
  O  O205  1  0.33789490  0.12205262  0.47440009  1
  O  O206  1  0.33639018  0.12632115  0.82718619  1
  O  O207  1  0.33601542  0.62263632  0.15833270  1
  O  O208  1  0.32590120  0.63026310  0.47668642  1
  O  O209  1  0.33217987  0.62430893  0.82219040  1
  O  O210  1  0.65887285  0.12550458  0.14246594  1
  O  O211  1  0.67405688  0.12339763  0.47076162  1
  O  O212  1  0.68112304  0.12808733  0.80651216  1
  O  O213  1  0.66676121  0.62392196  0.14384090  1
  O  O214  1  0.66744501  0.62471538  0.49285086  1
  O  O215  1  0.67813262  0.62306969  0.80415877  1
  O  O216  1  0.07541029  0.01893588  0.26510159  1
  O  O217  1  0.07909558  0.01099341  0.58502150  1
  O  O218  1  0.07245242  0.01266338  0.92695720  1
  O  O219  1  0.07469251  0.52092213  0.26863258  1
  O  O220  1  0.07380278  0.51815247  0.59518283  1
  O  O221  1  0.07425373  0.52435795  0.92220176  1
  O  O222  1  0.40624953  0.02200540  0.26454862  1
  O  O223  1  0.41757245  0.01298912  0.57984812  1
  O  O224  1  0.42168981  0.01338472  0.91836737  1
  O  O225  1  0.40474492  0.51220292  0.25685605  1
  O  O226  1  0.40903657  0.50318950  0.58465822  1
  O  O227  1  0.41821785  0.51500163  0.91856832  1
  O  O228  1  0.73488524  0.01260414  0.25918050  1
  O  O229  1  0.74263797  0.02020259  0.59083408  1
  O  O230  1  0.74392806  0.01934404  0.91953714  1
  O  O231  1  0.74579443  0.51294285  0.24621971  1
  O  O232  1  0.74439334  0.51460484  0.59484901  1
  O  O233  1  0.74482993  0.52332592  0.91842317  1
  O  O234  1  0.24179825  0.23212773  0.24771091  1
  O  O235  1  0.24114158  0.23539621  0.56856739  1
  O  O236  1  0.24603139  0.25103838  0.91554269  1
  O  O237  1  0.23947687  0.72996213  0.24721976  1
  O  O238  1  0.23476605  0.73845848  0.57171940  1
  O  O239  1  0.23767030  0.73846405  0.90635572  1
  O  O240  1  0.57076396  0.22685416  0.24104116  1
  O  O241  1  0.58022210  0.22536227  0.57072650  1
  O  O242  1  0.58397395  0.22675231  0.90661202  1
  O  O243  1  0.56777223  0.73899505  0.23444760  1
  O  O244  1  0.58122036  0.74303638  0.57884477  1
  O  O245  1  0.58350933  0.72179699  0.90614989  1
  O  O246  1  0.91485800  0.23515607  0.25273758  1
  O  O247  1  0.90279814  0.23311174  0.56956927  1
  O  O248  1  0.90478032  0.24227895  0.90348453  1
  O  O249  1  0.91210127  0.72550209  0.24349073  1
  O  O250  1  0.91262131  0.72965391  0.57689054  1
  O  O251  1  0.91075510  0.72470584  0.91006220  1
  O  O252  1  0.09523629  0.48674191  0.10132320  1
  O  O253  1  0.09163791  0.47557433  0.43077771  1
  O  O254  1  0.09485787  0.47997385  0.75955204  1
  O  O255  1  0.09037532  0.98373531  0.09618377  1
  O  O256  1  0.09297142  0.97707179  0.42449667  1
  O  O257  1  0.08799816  0.98029450  0.75529950  1
  O  O258  1  0.42035972  0.48003923  0.09413629  1
  O  O259  1  0.41554802  0.48623670  0.41331254  1
  O  O260  1  0.42083450  0.49372183  0.75211456  1
  O  O261  1  0.42417313  0.98958409  0.10078906  1
  O  O262  1  0.42681115  0.97629837  0.42267695  1
  O  O263  1  0.42392636  0.99744792  0.75085235  1
  O  O264  1  0.74590470  0.48459561  0.08090205  1
  O  O265  1  0.75706695  0.48368781  0.42368738  1
  O  O266  1  0.76259542  0.47913694  0.75704645  1
  O  O267  1  0.74733424  0.98879201  0.07909282  1
  O  O268  1  0.75556116  0.98140808  0.42458119  1
  O  O269  1  0.75755068  0.97997585  0.75459274  1
  O  O270  1  0.25553052  0.27303196  0.08027441  1
  O  O271  1  0.25665605  0.27108761  0.40713142  1
  O  O272  1  0.25484667  0.27267530  0.74582531  1
  O  O273  1  0.25003569  0.76189470  0.08823068  1
  O  O274  1  0.25717769  0.77674625  0.40713908  1
  O  O275  1  0.25116807  0.76735556  0.74312976  1
  O  O276  1  0.58818421  0.27375926  0.07591997  1
  O  O277  1  0.59795682  0.26325886  0.40141380  1
  O  O278  1  0.60214033  0.26440776  0.73687935  1
  O  O279  1  0.59153166  0.76822332  0.07374498  1
  O  O280  1  0.58491360  0.77623842  0.40631327  1
  O  O281  1  0.59897210  0.76238651  0.74024716  1
  O  O282  1  0.92060802  0.25397867  0.07490736  1
  O  O283  1  0.92798726  0.27028002  0.41106752  1
  O  O284  1  0.92193444  0.27384582  0.73968726  1
  O  O285  1  0.91768757  0.74711485  0.07849293  1
  O  O286  1  0.93312446  0.76471329  0.40882366  1
  O  O287  1  0.92911187  0.76162216  0.73784889  1
  O  O288  1  0.25888523  0.47555164  0.07865863  1
  O  O289  1  0.25565603  0.47531087  0.40739803  1
  O  O290  1  0.25682205  0.47558121  0.74037774  1
  O  O291  1  0.24798103  0.98655917  0.08695872  1
  O  O292  1  0.25813303  0.98008803  0.40805102  1
  O  O293  1  0.24960432  0.98308504  0.74500522  1
  O  O294  1  0.58905698  0.47594227  0.07528294  1
  O  O295  1  0.59111529  0.48321977  0.40386419  1
  O  O296  1  0.59985424  0.48531922  0.74117396  1
  O  O297  1  0.58949307  0.98045945  0.07654704  1
  O  O298  1  0.59149919  0.97888945  0.40254793  1
  O  O299  1  0.59912017  0.98889076  0.73727147  1
  O  O300  1  0.91874643  0.50213625  0.07886946  1
  O  O301  1  0.92915524  0.48218972  0.41044332  1
  O  O302  1  0.92531269  0.48309465  0.73929776  1
  O  O303  1  0.92120849  0.99697002  0.07767448  1
  O  O304  1  0.93084562  0.98307012  0.41183342  1
  O  O305  1  0.92446524  0.98307135  0.74172877  1
  O  O306  1  0.09469453  0.26666848  0.09718595  1
  O  O307  1  0.09089235  0.27480265  0.42512878  1
  O  O308  1  0.08763264  0.27178577  0.75941257  1
  O  O309  1  0.09105528  0.76320807  0.09918826  1
  O  O310  1  0.09508769  0.77221385  0.42943428  1
  O  O311  1  0.09260457  0.76693962  0.75909600  1
  O  O312  1  0.42000880  0.26704218  0.09338798  1
  O  O313  1  0.41845232  0.26087098  0.41433629  1
  O  O314  1  0.41832933  0.25673704  0.75235299  1
  O  O315  1  0.42429515  0.76122908  0.10004923  1
  O  O316  1  0.42259985  0.77790067  0.41917747  1
  O  O317  1  0.42475805  0.75178591  0.75091004  1
  O  O318  1  0.74773004  0.26294688  0.07930619  1
  O  O319  1  0.76270862  0.26481564  0.42930000  1
  O  O320  1  0.76065774  0.27762522  0.75541592  1
  O  O321  1  0.74632737  0.76303071  0.07998998  1
  O  O322  1  0.75037864  0.76700441  0.42017520  1
  O  O323  1  0.76105312  0.76538906  0.75736271  1
  O  O324  1  0.24370692  0.02023990  0.25071829  1
  O  O325  1  0.23897962  0.01289849  0.57082338  1
  O  O326  1  0.24250276  -0.00002594  0.91438326  1
  O  O327  1  0.23922779  0.51655961  0.24184133  1
  O  O328  1  0.23561894  0.51285617  0.57154894  1
  O  O329  1  0.23743953  0.51224756  0.90298276  1
  O  O330  1  0.56976547  0.02281684  0.24116335  1
  O  O331  1  0.57721231  0.02350394  0.57107058  1
  O  O332  1  0.58438495  0.02595715  0.90661520  1
  O  O333  1  0.56902194  0.51157492  0.23436343  1
  O  O334  1  0.58492748  0.50564636  0.58195849  1
  O  O335  1  0.58298127  0.52393619  0.90766263  1
  O  O336  1  0.91618429  0.01419663  0.25168679  1
  O  O337  1  0.90539962  0.01767316  0.57274429  1
  O  O338  1  0.90858590  0.01196319  0.90954656  1
  O  O339  1  0.91198421  0.52414781  0.24464354  1
  O  O340  1  0.91132712  0.52062064  0.57592869  1
  O  O341  1  0.90911937  0.52270375  0.90854286  1
  O  O342  1  0.07433061  0.23091806  0.26763573  1
  O  O343  1  0.07810480  0.24327974  0.58474660  1
  O  O344  1  0.07225596  0.23884320  0.92904558  1
  O  O345  1  0.07575291  0.72859246  0.26769586  1
  O  O346  1  0.07444064  0.72780387  0.59419223  1
  O  O347  1  0.07424017  0.72434646  0.92190664  1
  O  O348  1  0.40858324  0.22834971  0.25682749  1
  O  O349  1  0.41542645  0.23447007  0.57917485  1
  O  O350  1  0.41868375  0.23798498  0.91909506  1
  O  O351  1  0.40068104  0.73875959  0.26244932  1
  O  O352  1  0.41434974  0.74982598  0.58133138  1
  O  O353  1  0.42034886  0.73410409  0.91726122  1
  O  O354  1  0.73663136  0.23518997  0.26206577  1
  O  O355  1  0.74159989  0.22697545  0.59093564  1
  O  O356  1  0.74421282  0.23031524  0.91950917  1
  O  O357  1  0.74603056  0.73826850  0.24504807  1
  O  O358  1  0.74482414  0.73906387  0.59527646  1
  O  O359  1  0.74451078  0.72627577  0.91895749  1
