# generated using pymatgen
data_Ba17Sr5La8Pr42Mn72O216
_symmetry_space_group_name_H-M   'P 1'
_cell_length_a   16.67280195
_cell_length_b   15.70664295
_cell_length_c   16.81808228
_cell_angle_alpha   90.00222915
_cell_angle_beta   89.93324215
_cell_angle_gamma   89.96348297
_symmetry_Int_Tables_number   1
_chemical_formula_structural   Ba17Sr5La8Pr42Mn72O216
_chemical_formula_sum   'Ba17 Sr5 La8 Pr42 Mn72 O216'
_cell_volume   4404.21034045
_cell_formula_units_Z   1
loop_
 _symmetry_equiv_pos_site_id
 _symmetry_equiv_pos_as_xyz
  1  'x, y, z'
loop_
 _atom_site_type_symbol
 _atom_site_label
 _atom_site_symmetry_multiplicity
 _atom_site_fract_x
 _atom_site_fract_y
 _atom_site_fract_z
 _atom_site_occupancy
  Ba  Ba0  1  0.83333543  0.62682826  0.50259815  1
  Ba  Ba1  1  0.00146158  0.12533274  0.33272627  1
  Ba  Ba2  1  0.49999980  0.37454732  0.49937749  1
  Ba  Ba3  1  0.50188472  0.62473765  0.83672796  1
  Ba  Ba4  1  0.49995474  0.12386334  0.50320437  1
  Ba  Ba5  1  0.16496051  0.12638344  0.49893939  1
  Ba  Ba6  1  -0.00103458  0.87143103  -0.00170012  1
  Ba  Ba7  1  0.50156691  0.12550275  0.83576850  1
  Ba  Ba8  1  0.49981664  0.12368084  0.16857069  1
  Ba  Ba9  1  0.66719237  0.62642634  0.66729280  1
  Ba  Ba10  1  0.16490828  0.37797218  0.49673094  1
  Ba  Ba11  1  0.83416846  0.12347658  0.50126495  1
  Ba  Ba12  1  0.66376508  0.37651092  0.33498826  1
  Ba  Ba13  1  0.16700638  0.12588230  0.16692426  1
  Ba  Ba14  1  0.00127136  0.12527591  0.66409821  1
  Ba  Ba15  1  0.16686185  0.87254226  0.83073487  1
  Ba  Ba16  1  -0.00032383  0.87260799  0.33077069  1
  Sr  Sr17  1  0.00294698  0.62550548  0.99711506  1
  Sr  Sr18  1  0.83368301  0.87460940  0.83338468  1
  Sr  Sr19  1  -0.00252427  0.37484010  0.33364974  1
  Sr  Sr20  1  0.66951595  0.12466010  0.66506702  1
  Sr  Sr21  1  0.16345020  0.62338105  0.49728873  1
  La  La22  1  0.67216390  0.12630003  0.99598325  1
  La  La23  1  0.83688066  0.62640892  0.16964306  1
  La  La24  1  0.83172327  0.87636344  0.16082393  1
  La  La25  1  0.83198716  0.37346689  0.49823255  1
  La  La26  1  0.16544935  0.62521709  0.83293899  1
  La  La27  1  0.83594336  0.12331603  0.17026444  1
  La  La28  1  0.33424360  0.87551938  0.66770109  1
  La  La29  1  0.83773563  0.62775243  0.83481346  1
  Pr  Pr30  1  0.50289614  0.87316660  0.50171824  1
  Pr  Pr31  1  -0.00317755  0.37482879  0.66339970  1
  Pr  Pr32  1  0.49928754  0.62613174  0.16983971  1
  Pr  Pr33  1  0.33349309  0.37169598  0.33766938  1
  Pr  Pr34  1  0.33642812  0.87407950  0.00194397  1
  Pr  Pr35  1  0.33159975  0.13199534  0.33364051  1
  Pr  Pr36  1  0.33280852  0.37262943  0.66587220  1
  Pr  Pr37  1  0.83804904  0.12235366  0.83284826  1
  Pr  Pr38  1  0.16587782  0.12589202  0.83591504  1
  Pr  Pr39  1  0.49972425  0.87713649  0.16793411  1
  Pr  Pr40  1  0.66221617  0.87494346  0.00242185  1
  Pr  Pr41  1  0.33059675  0.62550724  0.99546313  1
  Pr  Pr42  1  0.83378441  0.87638315  0.50307834  1
  Pr  Pr43  1  0.66846422  0.62222266  0.33435981  1
  Pr  Pr44  1  0.83274373  0.37565418  0.82966196  1
  Pr  Pr45  1  0.49994906  0.62189993  0.50525453  1
  Pr  Pr46  1  0.33727158  0.37556627  0.00161750  1
  Pr  Pr47  1  0.16744232  0.37506113  0.16664561  1
  Pr  Pr48  1  0.33027043  0.62274025  0.33276594  1
  Pr  Pr49  1  0.66915214  0.12964687  0.33357096  1
  Pr  Pr50  1  0.00525907  0.12302463  0.99635403  1
  Pr  Pr51  1  0.00422642  0.62714535  0.66330090  1
  Pr  Pr52  1  0.33168828  0.87775509  0.33373243  1
  Pr  Pr53  1  0.00356136  0.62047375  0.33241776  1
  Pr  Pr54  1  0.65864817  0.37515165  0.00402807  1
  Pr  Pr55  1  -0.00522877  0.87631131  0.66903398  1
  Pr  Pr56  1  0.16791504  0.37931616  0.82750924  1
  Pr  Pr57  1  0.16598542  0.87748124  0.15893863  1
  Pr  Pr58  1  -0.00127509  0.37867916  0.00439856  1
  Pr  Pr59  1  0.49862136  0.37270403  0.16969068  1
  Pr  Pr60  1  0.16003421  0.62550749  0.16678710  1
  Pr  Pr61  1  0.66685658  0.87751749  0.66796281  1
  Pr  Pr62  1  0.16393478  0.87572200  0.49913954  1
  Pr  Pr63  1  0.50410777  0.37593876  0.82857597  1
  Pr  Pr64  1  0.50256577  0.87415973  0.83161907  1
  Pr  Pr65  1  0.66357180  0.87667418  0.33613504  1
  Pr  Pr66  1  0.33172423  0.12291650  0.66418813  1
  Pr  Pr67  1  0.33191124  0.62673571  0.66296924  1
  Pr  Pr68  1  0.33129254  0.12473578  0.99690410  1
  Pr  Pr69  1  0.83132683  0.37391147  0.16369534  1
  Pr  Pr70  1  0.67081957  0.62437038  0.99281496  1
  Pr  Pr71  1  0.66475147  0.37289761  0.66262232  1
  Mn  Mn72  1  -0.00019294  -0.00121531  0.16432135  1
  Mn  Mn73  1  0.00043830  -0.00248787  0.50036664  1
  Mn  Mn74  1  0.00030567  -0.00001334  0.83220399  1
  Mn  Mn75  1  -0.00106868  0.49953299  0.16599468  1
  Mn  Mn76  1  -0.00155666  0.50146005  0.49866721  1
  Mn  Mn77  1  0.00009017  0.49878653  0.83381102  1
  Mn  Mn78  1  0.33387169  -0.00147618  0.16785202  1
  Mn  Mn79  1  0.33212753  -0.00338623  0.50082076  1
  Mn  Mn80  1  0.33371539  -0.00035649  0.83366949  1
  Mn  Mn81  1  0.33371734  0.50158369  0.16556417  1
  Mn  Mn82  1  0.33263206  0.50237827  0.49889969  1
  Mn  Mn83  1  0.33339073  0.49992081  0.83380637  1
  Mn  Mn84  1  0.66631595  -0.00024389  0.16766422  1
  Mn  Mn85  1  0.66576315  -0.00220783  0.50175186  1
  Mn  Mn86  1  0.66950291  0.00011597  0.83431249  1
  Mn  Mn87  1  0.66531956  0.50151328  0.16457199  1
  Mn  Mn88  1  0.66629649  0.50169997  0.50031194  1
  Mn  Mn89  1  0.66985932  0.49831259  0.83458695  1
  Mn  Mn90  1  -0.00114140  0.25451104  0.16472933  1
  Mn  Mn91  1  -0.00104264  0.25221662  0.49917594  1
  Mn  Mn92  1  0.00070493  0.25190524  0.83520150  1
  Mn  Mn93  1  -0.00047826  0.74742120  0.16653957  1
  Mn  Mn94  1  0.00076167  0.74958109  0.49999341  1
  Mn  Mn95  1  -0.00017235  0.74894722  0.83161161  1
  Mn  Mn96  1  0.33317911  0.25315897  0.16662980  1
  Mn  Mn97  1  0.33258246  0.24975927  0.50158803  1
  Mn  Mn98  1  0.33232382  0.25180070  0.83440949  1
  Mn  Mn99  1  0.33290389  0.74776685  0.16604682  1
  Mn  Mn100  1  0.33228933  0.75003015  0.49889142  1
  Mn  Mn101  1  0.33465380  0.74895563  0.83319800  1
  Mn  Mn102  1  0.66669821  0.25112065  0.16506685  1
  Mn  Mn103  1  0.66686702  0.24861612  0.50107369  1
  Mn  Mn104  1  0.67046344  0.25022514  0.83379635  1
  Mn  Mn105  1  0.66444946  0.74750165  0.16685574  1
  Mn  Mn106  1  0.66533640  0.75252134  0.49981432  1
  Mn  Mn107  1  0.66904332  0.75144159  0.83486332  1
  Mn  Mn108  1  0.16694201  0.25371061  -0.00186823  1
  Mn  Mn109  1  0.16569792  0.25185191  0.33123826  1
  Mn  Mn110  1  0.16719177  0.25358203  0.66829155  1
  Mn  Mn111  1  0.16904568  0.74774335  -0.00070872  1
  Mn  Mn112  1  0.16836259  0.74868086  0.33098008  1
  Mn  Mn113  1  0.16762542  0.74793813  0.66214032  1
  Mn  Mn114  1  0.49922270  0.24986343  0.00040888  1
  Mn  Mn115  1  0.49955455  0.24763336  0.33396088  1
  Mn  Mn116  1  0.50020489  0.25032790  0.66912717  1
  Mn  Mn117  1  0.50010773  0.75047868  0.00418902  1
  Mn  Mn118  1  0.49823796  0.74970147  0.33535181  1
  Mn  Mn119  1  0.49874302  0.75009815  0.66743791  1
  Mn  Mn120  1  0.83501961  0.25119752  -0.00193367  1
  Mn  Mn121  1  0.83279444  0.25151113  0.33174626  1
  Mn  Mn122  1  0.83278106  0.25231142  0.66680969  1
  Mn  Mn123  1  0.83201942  0.74888735  0.00082489  1
  Mn  Mn124  1  0.83139777  0.75017036  0.33318578  1
  Mn  Mn125  1  0.83395516  0.75051028  0.66933825  1
  Mn  Mn126  1  0.16805505  0.00018471  -0.00149488  1
  Mn  Mn127  1  0.16857901  -0.00292319  0.33077961  1
  Mn  Mn128  1  0.16758985  -0.00143702  0.66571075  1
  Mn  Mn129  1  0.16797820  0.49873391  -0.00177945  1
  Mn  Mn130  1  0.16688841  0.50175450  0.33085708  1
  Mn  Mn131  1  0.16723130  0.50028831  0.66501580  1
  Mn  Mn132  1  0.49984533  0.00009427  0.00135358  1
  Mn  Mn133  1  0.49927794  -0.00213888  0.33512784  1
  Mn  Mn134  1  0.50046488  -0.00064137  0.66904794  1
  Mn  Mn135  1  0.49950957  0.49919345  0.00322856  1
  Mn  Mn136  1  0.49727050  0.50469164  0.33427787  1
  Mn  Mn137  1  0.49910046  0.49995302  0.66798614  1
  Mn  Mn138  1  0.83270964  0.00035091  -0.00004419  1
  Mn  Mn139  1  0.83152061  -0.00286537  0.33171373  1
  Mn  Mn140  1  0.83285761  -0.00128094  0.66844257  1
  Mn  Mn141  1  0.83381279  0.49921163  -0.00154472  1
  Mn  Mn142  1  0.83261440  0.50154440  0.33286005  1
  Mn  Mn143  1  0.83420329  0.49922391  0.66758741  1
  O  O144  1  0.16674331  0.12824694  0.01166573  1
  O  O145  1  0.17267705  0.12293169  0.34074208  1
  O  O146  1  0.17155798  0.13070468  0.69187826  1
  O  O147  1  0.17295322  0.62071574  0.02321523  1
  O  O148  1  0.16374792  0.62609728  0.34881110  1
  O  O149  1  0.16198099  0.62170209  0.68966522  1
  O  O150  1  0.49599154  0.12623136  0.01274223  1
  O  O151  1  0.48739702  0.11840523  0.34463203  1
  O  O152  1  0.48995598  0.12454923  0.68063944  1
  O  O153  1  0.49986039  0.62589165  0.02606781  1
  O  O154  1  0.48740513  0.63081596  0.36113366  1
  O  O155  1  0.48992466  0.62534881  0.68010700  1
  O  O156  1  0.82695671  0.12904114  0.02579266  1
  O  O157  1  0.82407619  0.12290116  0.34187447  1
  O  O158  1  0.82733390  0.12739671  0.68740012  1
  O  O159  1  0.82185896  0.62235290  0.02468308  1
  O  O160  1  0.82707955  0.62685960  0.34595888  1
  O  O161  1  0.83530185  0.62320601  0.68980658  1
  O  O162  1  0.17806226  0.38072927  0.31100040  1
  O  O163  1  0.17889098  0.37913770  0.65353381  1
  O  O164  1  0.16896674  0.37687338  0.97068495  1
  O  O165  1  0.17896433  0.86867730  0.30357342  1
  O  O166  1  0.17686969  0.86782705  0.64360504  1
  O  O167  1  0.17625862  0.87363199  0.98920218  1
  O  O168  1  0.49458413  0.38057290  0.31259685  1
  O  O169  1  0.50490076  0.37592738  0.65747221  1
  O  O170  1  0.50055588  0.37326159  0.97371011  1
  O  O171  1  0.50764772  0.87069076  0.30912503  1
  O  O172  1  0.50325516  0.87361609  0.64763105  1
  O  O173  1  0.50095362  0.87514202  0.97622798  1
  O  O174  1  0.83270839  0.37930868  0.30762791  1
  O  O175  1  0.84311526  0.37767973  0.64678716  1
  O  O176  1  0.84370857  0.37462240  0.97135587  1
  O  O177  1  0.82393185  0.87101534  0.30388694  1
  O  O178  1  0.84415736  0.87246842  0.65170259  1
  O  O179  1  0.82745706  0.87410975  0.98437663  1
  O  O180  1  -0.00813610  0.37909800  0.18317091  1
  O  O181  1  -0.00860974  0.38053849  0.51761554  1
  O  O182  1  -0.00301187  0.37504393  0.86249287  1
  O  O183  1  -0.00195883  0.86863008  0.17214687  1
  O  O184  1  0.00109369  0.87014259  0.52209054  1
  O  O185  1  -0.00351953  0.87465739  0.84147457  1
  O  O186  1  0.33050565  0.38127976  0.19444608  1
  O  O187  1  0.33039311  0.37976434  0.51937267  1
  O  O188  1  0.32493570  0.37656888  0.85986620  1
  O  O189  1  0.32114952  0.86758474  0.18936626  1
  O  O190  1  0.32018055  0.87188441  0.52485055  1
  O  O191  1  0.33644191  0.87300542  0.85769985  1
  O  O192  1  0.66850851  0.37519094  0.18004802  1
  O  O193  1  0.66791739  0.37606216  0.51474687  1
  O  O194  1  0.67001252  0.37462368  0.86085821  1
  O  O195  1  0.66460018  0.86866089  0.19325035  1
  O  O196  1  0.65508700  0.87398464  0.52199682  1
  O  O197  1  0.66408621  0.87484326  0.85911228  1
  O  O198  1  -0.00475505  0.13132251  0.14209420  1
  O  O199  1  0.00030922  0.12155140  0.49153374  1
  O  O200  1  0.00486537  0.12835412  0.82020459  1
  O  O201  1  0.00262955  0.62220143  0.14602954  1
  O  O202  1  0.00068409  0.62636232  0.47626768  1
  O  O203  1  0.00176385  0.62107433  0.80764175  1
  O  O204  1  0.33497534  0.12905724  0.14111905  1
  O  O205  1  0.33481103  0.11794563  0.47829934  1
  O  O206  1  0.32969716  0.12900531  0.80865183  1
  O  O207  1  0.34461303  0.62359313  0.13589065  1
  O  O208  1  0.34591823  0.62843699  0.47617902  1
  O  O209  1  0.33456936  0.62247766  0.80977115  1
  O  O210  1  0.67189375  0.12922084  0.13944370  1
  O  O211  1  0.66960993  0.11841027  0.48043308  1
  O  O212  1  0.67696381  0.12730387  0.81444129  1
  O  O213  1  0.65854319  0.62579936  0.13488897  1
  O  O214  1  0.66395795  0.63112639  0.48104941  1
  O  O215  1  0.67339197  0.62393080  0.82416868  1
  O  O216  1  0.09039608  -0.00146428  0.24383431  1
  O  O217  1  0.08778553  -0.00337360  0.58004416  1
  O  O218  1  0.08550595  0.01835960  0.91395089  1
  O  O219  1  0.08581171  0.51732121  0.24526334  1
  O  O220  1  0.08158177  0.51452270  0.58500522  1
  O  O221  1  0.08666448  0.51695761  0.91050486  1
  O  O222  1  0.41905607  -0.00179308  0.25071661  1
  O  O223  1  0.41108575  0.00379167  0.59074004  1
  O  O224  1  0.40792111  0.01331984  0.92395273  1
  O  O225  1  0.41603388  0.52605062  0.24821192  1
  O  O226  1  0.41401823  0.51815619  0.58191327  1
  O  O227  1  0.41056720  0.51248472  0.92586335  1
  O  O228  1  0.75104482  0.01730042  0.24365641  1
  O  O229  1  0.75112463  -0.00419844  0.58324989  1
  O  O230  1  0.75733940  0.02224264  0.91291198  1
  O  O231  1  0.74945978  0.52235054  0.24378928  1
  O  O232  1  0.75035572  0.50108596  0.58498168  1
  O  O233  1  0.75740597  0.51716010  0.91230396  1
  O  O234  1  0.25481115  0.23983948  0.25085447  1
  O  O235  1  0.25501618  0.23551512  0.59160927  1
  O  O236  1  0.24816432  0.22800728  0.91350461  1
  O  O237  1  0.24872713  0.71877671  0.24158727  1
  O  O238  1  0.24950608  0.72345800  0.57841595  1
  O  O239  1  0.24922052  0.72590745  0.91235746  1
  O  O240  1  0.58576884  0.23555850  0.25339347  1
  O  O241  1  0.58729746  0.24198146  0.59078217  1
  O  O242  1  0.59566330  0.23733405  0.92338551  1
  O  O243  1  0.58228375  0.72200264  0.25135222  1
  O  O244  1  0.57290120  0.73624052  0.57564491  1
  O  O245  1  0.58983303  0.73757025  0.92743622  1
  O  O246  1  0.90955782  0.23944631  0.24056917  1
  O  O247  1  0.91457076  0.24734640  0.58520767  1
  O  O248  1  0.91907196  0.22331799  0.92003244  1
  O  O249  1  0.91890377  0.72776695  0.25201746  1
  O  O250  1  0.92456998  0.73632914  0.59463086  1
  O  O251  1  0.91549002  0.72908738  0.91871589  1
  O  O252  1  0.08525417  0.47730287  0.08226758  1
  O  O253  1  0.07666959  0.49271345  0.40771778  1
  O  O254  1  0.08028638  0.47584581  0.74910662  1
  O  O255  1  0.08529870  0.98920042  0.07946162  1
  O  O256  1  0.08787886  0.98164426  0.41631661  1
  O  O257  1  0.08053830  0.98441518  0.74276370  1
  O  O258  1  0.41789720  0.47277431  0.08788375  1
  O  O259  1  0.41018263  0.48494616  0.40957990  1
  O  O260  1  0.41495371  0.47494297  0.75416219  1
  O  O261  1  0.41468964  0.97402673  0.08606376  1
  O  O262  1  0.41524868  0.97107623  0.41918976  1
  O  O263  1  0.42049602  0.97694749  0.75552372  1
  O  O264  1  0.74862785  0.47580429  0.07419359  1
  O  O265  1  0.74846603  0.49219877  0.41567325  1
  O  O266  1  0.75010808  0.47503131  0.74891078  1
  O  O267  1  0.74385714  0.97990206  0.07803628  1
  O  O268  1  0.74598378  0.97463239  0.41403667  1
  O  O269  1  0.74588806  0.97888122  0.74674495  1
  O  O270  1  0.25074204  0.27659073  0.08189588  1
  O  O271  1  0.25478364  0.25953153  0.41036208  1
  O  O272  1  0.25191641  0.27445964  0.75234742  1
  O  O273  1  0.25954894  0.76295156  0.07710297  1
  O  O274  1  0.25786170  0.76402617  0.40677885  1
  O  O275  1  0.25624680  0.75615530  0.73880669  1
  O  O276  1  0.58094791  0.27222417  0.08628717  1
  O  O277  1  0.58515982  0.24772365  0.41381813  1
  O  O278  1  0.58451767  0.27025602  0.75597425  1
  O  O279  1  0.57970833  0.77493599  0.08830790  1
  O  O280  1  0.58407739  0.76965301  0.41440193  1
  O  O281  1  0.58450653  0.77027990  0.75199524  1
  O  O282  1  0.91559748  0.27510266  0.08013714  1
  O  O283  1  0.91324824  0.26709766  0.41403914  1
  O  O284  1  0.91576619  0.27061156  0.75461576  1
  O  O285  1  0.90565654  0.75656651  0.09080045  1
  O  O286  1  0.91111972  0.76693401  0.42561688  1
  O  O287  1  0.91425474  0.75955696  0.75424004  1
  O  O288  1  0.25362996  0.47722318  0.08124879  1
  O  O289  1  0.25479998  0.49464356  0.40835136  1
  O  O290  1  0.25095952  0.48485510  0.75195818  1
  O  O291  1  0.25192547  0.98312316  0.08232524  1
  O  O292  1  0.24869238  0.97397773  0.41703185  1
  O  O293  1  0.25825620  0.98693581  0.74520217  1
  O  O294  1  0.57768590  0.47604373  0.08889543  1
  O  O295  1  0.57928153  0.50454156  0.41694093  1
  O  O296  1  0.58565747  0.48057839  0.75662435  1
  O  O297  1  0.58066375  0.97732247  0.09053154  1
  O  O298  1  0.57893410  0.97801792  0.42067224  1
  O  O299  1  0.58276521  0.97916414  0.75558850  1
  O  O300  1  0.91164738  0.48113120  0.08423704  1
  O  O301  1  0.91075957  0.48538371  0.41870628  1
  O  O302  1  0.91509806  0.47825200  0.75621938  1
  O  O303  1  0.90724712  0.99016632  0.08695552  1
  O  O304  1  0.90998981  0.98148404  0.42165157  1
  O  O305  1  0.91206403  0.99260099  0.75553449  1
  O  O306  1  0.08247463  0.27734734  0.08011997  1
  O  O307  1  0.08265420  0.26174883  0.41067652  1
  O  O308  1  0.08504683  0.27649575  0.75415070  1
  O  O309  1  0.09352231  0.75847168  0.09089031  1
  O  O310  1  0.09223345  0.76674204  0.42006298  1
  O  O311  1  0.07865921  0.76160825  0.73869174  1
  O  O312  1  0.41527735  0.27754768  0.08786944  1
  O  O313  1  0.41233762  0.26203229  0.41303367  1
  O  O314  1  0.41671152  0.27566973  0.75682197  1
  O  O315  1  0.41990944  0.77584006  0.09053668  1
  O  O316  1  0.41834182  0.77996875  0.42158863  1
  O  O317  1  0.42034688  0.77241765  0.75487441  1
  O  O318  1  0.74988707  0.27538330  0.07603403  1
  O  O319  1  0.75319056  0.26287690  0.41830952  1
  O  O320  1  0.74930068  0.27829643  0.74904708  1
  O  O321  1  0.74281392  0.77061687  0.08127793  1
  O  O322  1  0.74558222  0.77427044  0.41558196  1
  O  O323  1  0.74849046  0.76998061  0.74815465  1
  O  O324  1  0.26204035  0.01492623  0.25807662  1
  O  O325  1  0.25389306  0.01693861  0.58680829  1
  O  O326  1  0.24891330  0.02288797  0.91426482  1
  O  O327  1  0.24962422  0.52703788  0.24210873  1
  O  O328  1  0.25394955  0.52295457  0.58482409  1
  O  O329  1  0.24992150  0.52352715  0.91363286  1
  O  O330  1  0.59338407  0.01484704  0.26264617  1
  O  O331  1  0.58672955  0.00872504  0.59184697  1
  O  O332  1  0.59451165  0.01314668  0.92593011  1
  O  O333  1  0.58022371  0.52716677  0.25347639  1
  O  O334  1  0.58113805  0.51410718  0.58145675  1
  O  O335  1  0.59193127  0.51093796  0.92782773  1
  O  O336  1  0.91297083  0.00926038  0.24626935  1
  O  O337  1  0.91819017  -0.00032574  0.58752497  1
  O  O338  1  0.91911897  0.02338165  0.92191613  1
  O  O339  1  0.91800327  0.52309784  0.25250985  1
  O  O340  1  0.92413526  0.51613809  0.59394724  1
  O  O341  1  0.91857011  0.52204765  0.91846470  1
  O  O342  1  0.08559180  0.25356420  0.24363777  1
  O  O343  1  0.08237498  0.25393146  0.59007591  1
  O  O344  1  0.08300092  0.23197603  0.91718526  1
  O  O345  1  0.08151222  0.72772418  0.25231211  1
  O  O346  1  0.08497014  0.72983391  0.58170335  1
  O  O347  1  0.08544095  0.73091972  0.91173468  1
  O  O348  1  0.41259465  0.24264266  0.25277621  1
  O  O349  1  0.40987983  0.24259302  0.59317176  1
  O  O350  1  0.40623733  0.23800981  0.92483144  1
  O  O351  1  0.41297377  0.73145810  0.25180037  1
  O  O352  1  0.40983470  0.73757846  0.58753115  1
  O  O353  1  0.41172604  0.73594004  0.93003905  1
  O  O354  1  0.74889664  0.23193066  0.24612050  1
  O  O355  1  0.74784881  0.24933249  0.58769907  1
  O  O356  1  0.75906278  0.23051403  0.91093245  1
  O  O357  1  0.74601226  0.72365743  0.24410458  1
  O  O358  1  0.75054706  0.75415623  0.58346398  1
  O  O359  1  0.75346724  0.73000509  0.91710127  1
