# generated using pymatgen
data_Ba17Sr5La8Pr42Mn72O216
_symmetry_space_group_name_H-M   'P 1'
_cell_length_a   16.67626889
_cell_length_b   15.70159023
_cell_length_c   16.81874566
_cell_angle_alpha   89.99340149
_cell_angle_beta   89.97066594
_cell_angle_gamma   89.99312041
_symmetry_Int_Tables_number   1
_chemical_formula_structural   Ba17Sr5La8Pr42Mn72O216
_chemical_formula_sum   'Ba17 Sr5 La8 Pr42 Mn72 O216'
_cell_volume   4403.88600326
_cell_formula_units_Z   1
loop_
 _symmetry_equiv_pos_site_id
 _symmetry_equiv_pos_as_xyz
  1  'x, y, z'
loop_
 _atom_site_type_symbol
 _atom_site_label
 _atom_site_symmetry_multiplicity
 _atom_site_fract_x
 _atom_site_fract_y
 _atom_site_fract_z
 _atom_site_occupancy
  Ba  Ba0  1  0.66891059  0.62596900  1.00134235  1
  Ba  Ba1  1  0.83384164  0.62306673  0.83728528  1
  Ba  Ba2  1  0.33481955  0.12280037  0.33253277  1
  Ba  Ba3  1  0.50167217  0.87390339  0.49916435  1
  Ba  Ba4  1  0.33502769  0.87539947  -0.00441455  1
  Ba  Ba5  1  0.49880034  0.37375826  0.16263757  1
  Ba  Ba6  1  0.83237092  0.37438318  0.83618875  1
  Ba  Ba7  1  0.16936345  0.12275345  0.50274783  1
  Ba  Ba8  1  -0.00083196  0.12616870  0.66401527  1
  Ba  Ba9  1  0.00037027  0.87905505  0.00102667  1
  Ba  Ba10  1  0.49518362  0.37501246  0.83131743  1
  Ba  Ba11  1  0.16436313  0.37518229  0.16383833  1
  Ba  Ba12  1  0.83257260  0.62541650  0.16978631  1
  Ba  Ba13  1  0.50174595  0.12551753  0.16728681  1
  Ba  Ba14  1  0.33442007  0.62646616  0.33164318  1
  Ba  Ba15  1  0.49792954  0.87516495  0.82817072  1
  Ba  Ba16  1  0.16773557  0.62581982  0.16688246  1
  Sr  Sr17  1  0.16376590  0.87615191  0.50122977  1
  Sr  Sr18  1  0.83309823  0.12249705  0.50519110  1
  Sr  Sr19  1  0.32880186  0.37464461  0.00217161  1
  Sr  Sr20  1  0.83509149  0.87839287  0.50180318  1
  Sr  Sr21  1  0.00599163  0.12541428  0.99707304  1
  La  La22  1  0.83404397  0.62691441  0.50420222  1
  La  La23  1  0.84030259  0.12339036  0.16999854  1
  La  La24  1  0.66429291  0.37479956  0.33333271  1
  La  La25  1  0.33762071  0.62130464  1.00014134  1
  La  La26  1  0.15949874  0.87560699  0.83120471  1
  La  La27  1  0.49562174  0.37655657  0.49462172  1
  La  La28  1  0.34212897  0.62608027  0.66271475  1
  La  La29  1  0.83268280  0.87328983  0.83380876  1
  Pr  Pr30  1  0.32084148  0.87538277  0.67241879  1
  Pr  Pr31  1  0.83467015  0.12514251  0.83848477  1
  Pr  Pr32  1  0.66343311  0.62763240  0.32841612  1
  Pr  Pr33  1  -0.00636755  0.37794731  0.33225260  1
  Pr  Pr34  1  0.66735538  0.87673389  0.66977852  1
  Pr  Pr35  1  0.66826375  0.87256356  0.00266395  1
  Pr  Pr36  1  0.50623195  0.62580880  0.49803912  1
  Pr  Pr37  1  0.00165454  0.62650884  0.33047224  1
  Pr  Pr38  1  0.67028865  0.87533036  0.33836781  1
  Pr  Pr39  1  0.66349511  0.37498188  0.67142153  1
  Pr  Pr40  1  0.16966113  0.12005285  0.16840262  1
  Pr  Pr41  1  0.17179698  0.12331360  0.83323063  1
  Pr  Pr42  1  -0.00694656  0.88130843  0.66890449  1
  Pr  Pr43  1  -0.00525534  0.37469667  0.00366919  1
  Pr  Pr44  1  0.67158118  0.12249249  0.33224454  1
  Pr  Pr45  1  0.00293258  0.62359377  0.99691536  1
  Pr  Pr46  1  0.17048210  0.62675942  0.83913553  1
  Pr  Pr47  1  0.83032652  0.36973825  0.50171196  1
  Pr  Pr48  1  0.83196412  0.37326801  0.16332609  1
  Pr  Pr49  1  0.50358119  0.12477854  0.49816203  1
  Pr  Pr50  1  0.32958496  0.87424288  0.33365005  1
  Pr  Pr51  1  0.15941732  0.37366935  0.83423175  1
  Pr  Pr52  1  0.34061149  0.12400277  0.65937447  1
  Pr  Pr53  1  -0.00086540  0.87134185  0.33762868  1
  Pr  Pr54  1  0.49916021  0.12477344  0.83554176  1
  Pr  Pr55  1  0.66540302  0.37913254  0.00309053  1
  Pr  Pr56  1  0.49882803  0.87625849  0.16334775  1
  Pr  Pr57  1  0.49962164  0.62631153  0.16627605  1
  Pr  Pr58  1  0.00114357  0.62261890  0.66601105  1
  Pr  Pr59  1  -0.00802022  0.37005926  0.66798495  1
  Pr  Pr60  1  0.83417523  0.87499557  0.16702360  1
  Pr  Pr61  1  0.66709120  0.12624778  0.66614854  1
  Pr  Pr62  1  0.66680569  0.62437742  0.66894831  1
  Pr  Pr63  1  0.17377837  0.62447989  0.50298159  1
  Pr  Pr64  1  0.66672573  0.12881765  0.99837465  1
  Pr  Pr65  1  0.17217394  0.87406986  0.16507112  1
  Pr  Pr66  1  0.50406322  0.62574587  0.83576895  1
  Pr  Pr67  1  0.32083384  0.37539546  0.67067975  1
  Pr  Pr68  1  0.00626187  0.12384263  0.33500725  1
  Pr  Pr69  1  0.15621913  0.37210337  0.49459197  1
  Pr  Pr70  1  0.33721313  0.12954510  1.00096580  1
  Pr  Pr71  1  0.32537578  0.37237635  0.32990640  1
  Mn  Mn72  1  0.00154585  0.00078832  0.16914124  1
  Mn  Mn73  1  -0.00132223  -0.00258791  0.50065164  1
  Mn  Mn74  1  -0.00096600  0.00208248  0.83406741  1
  Mn  Mn75  1  -0.00115784  0.50061795  0.16749268  1
  Mn  Mn76  1  -0.00158336  0.50105848  0.49970898  1
  Mn  Mn77  1  0.00210491  0.49806661  0.83147521  1
  Mn  Mn78  1  0.33492897  -0.00137143  0.16562214  1
  Mn  Mn79  1  0.33516606  -0.00287125  0.50001753  1
  Mn  Mn80  1  0.33128219  0.00228621  0.83016311  1
  Mn  Mn81  1  0.33368266  0.50020123  0.16505936  1
  Mn  Mn82  1  0.33329496  0.49972297  0.50094103  1
  Mn  Mn83  1  0.33041081  0.49957939  0.83096993  1
  Mn  Mn84  1  0.66975624  -0.00039753  0.16779955  1
  Mn  Mn85  1  0.66821496  0.00085747  0.50091628  1
  Mn  Mn86  1  0.66777740  0.00215956  0.83375738  1
  Mn  Mn87  1  0.66696682  0.50019291  0.16926253  1
  Mn  Mn88  1  0.66804582  0.50011426  0.50013116  1
  Mn  Mn89  1  0.66492703  0.49810865  0.83379471  1
  Mn  Mn90  1  0.00064386  0.24632374  0.16652988  1
  Mn  Mn91  1  -0.00303831  0.25063779  0.49891629  1
  Mn  Mn92  1  0.00067313  0.24769040  0.83452967  1
  Mn  Mn93  1  0.00002057  0.75167917  0.16797693  1
  Mn  Mn94  1  0.00053679  0.74831488  0.50131471  1
  Mn  Mn95  1  0.00003279  0.75070017  0.83114887  1
  Mn  Mn96  1  0.33245986  0.25058523  0.16532275  1
  Mn  Mn97  1  0.33441733  0.25258771  0.50136858  1
  Mn  Mn98  1  0.33079366  0.25050718  0.83059518  1
  Mn  Mn99  1  0.33486148  0.75143386  0.16553362  1
  Mn  Mn100  1  0.33359187  0.75144476  0.50041206  1
  Mn  Mn101  1  0.33067178  0.74814123  0.83090319  1
  Mn  Mn102  1  0.67036159  0.24796931  0.16692605  1
  Mn  Mn103  1  0.66581480  0.25038535  0.50121810  1
  Mn  Mn104  1  0.66583888  0.24926630  0.83255502  1
  Mn  Mn105  1  0.66694962  0.75247167  0.16983768  1
  Mn  Mn106  1  0.67038288  0.74936936  0.49980438  1
  Mn  Mn107  1  0.66680429  0.75190993  0.83358510  1
  Mn  Mn108  1  0.16664095  0.24758068  -0.00123620  1
  Mn  Mn109  1  0.16510919  0.24937192  0.33194572  1
  Mn  Mn110  1  0.16587723  0.25225411  0.66553761  1
  Mn  Mn111  1  0.16745921  0.75153853  -0.00045931  1
  Mn  Mn112  1  0.16518042  0.75192843  0.33568569  1
  Mn  Mn113  1  0.16258521  0.74682734  0.66799891  1
  Mn  Mn114  1  0.50031699  0.24917569  -0.00244258  1
  Mn  Mn115  1  0.50086784  0.25181904  0.33370689  1
  Mn  Mn116  1  0.49895719  0.25036779  0.66340981  1
  Mn  Mn117  1  0.50169785  0.75181151  -0.00115165  1
  Mn  Mn118  1  0.50162964  0.75228503  0.33040320  1
  Mn  Mn119  1  0.50146788  0.74949114  0.66400551  1
  Mn  Mn120  1  0.83334435  0.24718171  0.00279171  1
  Mn  Mn121  1  0.83463243  0.24903562  0.33442992  1
  Mn  Mn122  1  0.83015581  0.24960792  0.66774910  1
  Mn  Mn123  1  0.83604308  0.75196772  0.00158448  1
  Mn  Mn124  1  0.83364554  0.75083463  0.33795635  1
  Mn  Mn125  1  0.83292502  0.74948409  0.66740213  1
  Mn  Mn126  1  0.16895166  0.00098573  -0.00006111  1
  Mn  Mn127  1  0.16527764  -0.00173749  0.33383935  1
  Mn  Mn128  1  0.16517857  -0.00052812  0.66660744  1
  Mn  Mn129  1  0.16650974  0.50028536  -0.00242290  1
  Mn  Mn130  1  0.16489776  0.49858654  0.33529590  1
  Mn  Mn131  1  0.16408603  0.50080354  0.66721951  1
  Mn  Mn132  1  0.50250908  0.00030015  -0.00128071  1
  Mn  Mn133  1  0.50353808  -0.00182731  0.33221636  1
  Mn  Mn134  1  0.50030823  0.00077746  0.66442941  1
  Mn  Mn135  1  0.49991777  0.50009458  -0.00177650  1
  Mn  Mn136  1  0.49907058  0.49891438  0.33125767  1
  Mn  Mn137  1  0.50023437  0.50014272  0.66309820  1
  Mn  Mn138  1  0.83233468  0.00140270  0.00253714  1
  Mn  Mn139  1  0.83610967  0.00156553  0.33583114  1
  Mn  Mn140  1  0.83087810  -0.00028313  0.66829257  1
  Mn  Mn141  1  0.83524317  0.49909764  0.00293995  1
  Mn  Mn142  1  0.83150953  0.49793324  0.33788895  1
  Mn  Mn143  1  0.83226494  0.50170611  0.66663576  1
  O  O144  1  0.16603085  0.12274491  0.02337437  1
  O  O145  1  0.16200043  0.12493291  0.34681020  1
  O  O146  1  0.16947547  0.12736478  0.68712959  1
  O  O147  1  0.15438450  0.62717378  0.00778542  1
  O  O148  1  0.15861137  0.62391223  0.35815795  1
  O  O149  1  0.15244320  0.62218106  0.69654806  1
  O  O150  1  0.49644016  0.12375673  0.00952291  1
  O  O151  1  0.50515060  0.12577875  0.35390070  1
  O  O152  1  0.49197591  0.12508188  0.69051037  1
  O  O153  1  0.49622772  0.62742977  0.02006723  1
  O  O154  1  0.50479130  0.62458257  0.35463362  1
  O  O155  1  0.49832689  0.62292813  0.69094825  1
  O  O156  1  0.82113428  0.12377842  0.02715002  1
  O  O157  1  0.82932559  0.12609184  0.35758186  1
  O  O158  1  0.82305108  0.12330896  0.69212038  1
  O  O159  1  0.84136554  0.62313897  0.01195376  1
  O  O160  1  0.82911270  0.62009212  0.36151690  1
  O  O161  1  0.83064238  0.62486148  0.68194158  1
  O  O162  1  0.16616921  0.37435336  0.32366887  1
  O  O163  1  0.17308255  0.37987918  0.63776844  1
  O  O164  1  0.16739363  0.37315525  0.97778457  1
  O  O165  1  0.15801962  0.87612097  0.31069162  1
  O  O166  1  0.17264287  0.87013067  0.65132307  1
  O  O167  1  0.16980419  0.87706148  0.97591405  1
  O  O168  1  0.51229025  0.37688152  0.32000763  1
  O  O169  1  0.51009751  0.37685619  0.63860439  1
  O  O170  1  0.50987280  0.37193689  0.98774693  1
  O  O171  1  0.51729178  0.87411089  0.30913474  1
  O  O172  1  0.51185198  0.87698569  0.65472248  1
  O  O173  1  0.51039830  0.87780469  0.98501199  1
  O  O174  1  0.83754064  0.37238407  0.30704886  1
  O  O175  1  0.83256886  0.37914196  0.64565228  1
  O  O176  1  0.84274709  0.37189893  0.99241569  1
  O  O177  1  0.83618675  0.88076353  0.31017289  1
  O  O178  1  0.83346848  0.87272761  0.65058826  1
  O  O179  1  0.83004289  0.88036085  0.97839577  1
  O  O180  1  -0.00759299  0.37032696  0.18855101  1
  O  O181  1  0.00184407  0.37977167  0.52495553  1
  O  O182  1  0.00555554  0.36913292  0.85903919  1
  O  O183  1  -0.00421201  0.87760455  0.19368673  1
  O  O184  1  0.00004239  0.86725810  0.52596828  1
  O  O185  1  -0.00295799  0.87775828  0.84388588  1
  O  O186  1  0.33246713  0.37515209  0.18182405  1
  O  O187  1  0.34083721  0.37737032  0.52895538  1
  O  O188  1  0.32503744  0.37500893  0.85242987  1
  O  O189  1  0.33291638  0.87505564  0.18550359  1
  O  O190  1  0.33254172  0.87120213  0.52811452  1
  O  O191  1  0.32401414  0.87486822  0.83939703  1
  O  O192  1  0.67332046  0.37327030  0.18900969  1
  O  O193  1  0.66451473  0.37603740  0.52926239  1
  O  O194  1  0.66219998  0.37070539  0.85624151  1
  O  O195  1  0.66763381  0.87710971  0.19505443  1
  O  O196  1  0.66833690  0.87292078  0.52651488  1
  O  O197  1  0.66687068  0.88063619  0.85635798  1
  O  O198  1  0.00143327  0.12307207  0.14542284  1
  O  O199  1  -0.00515809  0.12837964  0.47985463  1
  O  O200  1  -0.00045983  0.12542386  0.82017293  1
  O  O201  1  -0.00060443  0.62884852  0.14289873  1
  O  O202  1  -0.00539106  0.62248208  0.47233542  1
  O  O203  1  0.00803141  0.62652142  0.81070144  1
  O  O204  1  0.32650092  0.12273198  0.14922660  1
  O  O205  1  0.33800343  0.12629537  0.48923521  1
  O  O206  1  0.33039143  0.12742267  0.80285496  1
  O  O207  1  0.34147797  0.62797448  0.14881674  1
  O  O208  1  0.32814698  0.62595155  0.48721393  1
  O  O209  1  0.32616836  0.62283796  0.80544249  1
  O  O210  1  0.67834260  0.12198151  0.14277628  1
  O  O211  1  0.66749204  0.12851968  0.47532596  1
  O  O212  1  0.67616274  0.12535533  0.80939289  1
  O  O213  1  0.66380661  0.62687861  0.15785349  1
  O  O214  1  0.67487326  0.62224067  0.47118780  1
  O  O215  1  0.66240518  0.62450922  0.81455408  1
  O  O216  1  0.08297413  0.02185216  0.25052508  1
  O  O217  1  0.08471582  0.00241170  0.58380041  1
  O  O218  1  0.09193317  0.01490079  0.91043962  1
  O  O219  1  0.07756433  0.51247739  0.25280270  1
  O  O220  1  0.08718168  0.52391657  0.57703517  1
  O  O221  1  0.09236962  0.51367919  0.90407056  1
  O  O222  1  0.42248641  -0.00140148  0.24746060  1
  O  O223  1  0.42426426  0.02000982  0.57740991  1
  O  O224  1  0.41704307  0.02028124  0.90589739  1
  O  O225  1  0.42475009  0.51466425  0.24143150  1
  O  O226  1  0.42610540  0.52135627  0.57284266  1
  O  O227  1  0.41651120  0.52306016  0.90663476  1
  O  O228  1  0.75652547  0.01982310  0.24862228  1
  O  O229  1  0.74362753  0.01580507  0.59124850  1
  O  O230  1  0.74987049  0.02315285  0.91693397  1
  O  O231  1  0.74346288  0.51077801  0.26202007  1
  O  O232  1  0.75185440  0.52067939  0.58005241  1
  O  O233  1  0.74949839  0.49933794  0.92419790  1
  O  O234  1  0.24986115  0.24113945  0.25094772  1
  O  O235  1  0.26201431  0.23955363  0.59575087  1
  O  O236  1  0.25414896  0.22385371  0.91782147  1
  O  O237  1  0.24968460  0.75001437  0.25293297  1
  O  O238  1  0.24884491  0.72584238  0.59446255  1
  O  O239  1  0.25506128  0.72699759  0.91907103  1
  O  O240  1  0.59843100  0.23468742  0.25771454  1
  O  O241  1  0.58523978  0.22388759  0.58487214  1
  O  O242  1  0.58451353  0.22447893  0.91280805  1
  O  O243  1  0.58026797  0.72831822  0.24664391  1
  O  O244  1  0.58762669  0.72244734  0.57752830  1
  O  O245  1  0.57989301  0.73571859  0.91088496  1
  O  O246  1  0.92528717  0.22587619  0.25694522  1
  O  O247  1  0.91278214  0.24564952  0.58057255  1
  O  O248  1  0.91469690  0.22954163  0.92243608  1
  O  O249  1  0.91861292  0.73577536  0.25925865  1
  O  O250  1  0.92102870  0.72629847  0.58555900  1
  O  O251  1  0.92699800  0.73652424  0.92031074  1
  O  O252  1  0.07372627  0.48680756  0.06780901  1
  O  O253  1  0.07606296  0.47800256  0.41456047  1
  O  O254  1  0.07789601  0.47098018  0.74070927  1
  O  O255  1  0.08909054  0.98490071  0.09268811  1
  O  O256  1  0.07801580  0.98422841  0.41115809  1
  O  O257  1  0.07875986  0.98136236  0.74522920  1
  O  O258  1  0.41347656  0.49265238  0.07244140  1
  O  O259  1  0.41222989  0.47713581  0.40666474  1
  O  O260  1  0.40409205  0.48493112  0.73586210  1
  O  O261  1  0.42041773  0.98707251  0.08444500  1
  O  O262  1  0.41461887  0.98093056  0.40854516  1
  O  O263  1  0.40388129  0.98646791  0.73585409  1
  O  O264  1  0.75192263  0.47992311  0.08853876  1
  O  O265  1  0.74932124  0.46917976  0.41994042  1
  O  O266  1  0.74166005  0.48651833  0.74341026  1
  O  O267  1  0.74860309  0.97216382  0.08424317  1
  O  O268  1  0.74930071  0.98281990  0.41353221  1
  O  O269  1  0.75003914  0.97527907  0.75389250  1
  O  O270  1  0.24787951  0.25516963  0.08080661  1
  O  O271  1  0.24738216  0.27293347  0.42516518  1
  O  O272  1  0.23978499  0.27178993  0.75701989  1
  O  O273  1  0.24964228  0.76292008  0.08693526  1
  O  O274  1  0.24777542  0.76925040  0.41777787  1
  O  O275  1  0.23659851  0.76293466  0.75782862  1
  O  O276  1  0.59191233  0.25603830  0.07744118  1
  O  O277  1  0.57921562  0.26878115  0.42564922  1
  O  O278  1  0.58175969  0.25973511  0.74419519  1
  O  O279  1  0.58797392  0.77196782  0.08563896  1
  O  O280  1  0.59272591  0.75941690  0.40943402  1
  O  O281  1  0.58959312  0.75883691  0.74198320  1
  O  O282  1  0.90990799  0.26128583  0.09374828  1
  O  O283  1  0.91288374  0.27619113  0.41798878  1
  O  O284  1  0.91615994  0.26173490  0.74870826  1
  O  O285  1  0.91296884  0.76988419  0.09186935  1
  O  O286  1  0.91924909  0.76628104  0.41931980  1
  O  O287  1  0.91394674  0.76850179  0.75126712  1
  O  O288  1  0.24918415  0.49721242  0.07882487  1
  O  O289  1  0.24226861  0.48150768  0.42920330  1
  O  O290  1  0.23927830  0.47881828  0.75632957  1
  O  O291  1  0.24743741  0.98490145  0.08633196  1
  O  O292  1  0.24988311  0.97823196  0.41415342  1
  O  O293  1  0.23818360  0.98548818  0.75832629  1
  O  O294  1  0.59016340  0.48810426  0.08067353  1
  O  O295  1  0.58189389  0.48478533  0.42128348  1
  O  O296  1  0.58284641  0.48697443  0.74190961  1
  O  O297  1  0.58839573  0.98106360  0.08736530  1
  O  O298  1  0.58871743  0.98892579  0.41418117  1
  O  O299  1  0.58901704  0.99474952  0.74425604  1
  O  O300  1  0.91437365  0.47962374  0.09047073  1
  O  O301  1  0.91085770  0.47369982  0.42359159  1
  O  O302  1  0.92044981  0.48660043  0.74667289  1
  O  O303  1  0.90917655  0.98776092  0.09532635  1
  O  O304  1  0.91866771  0.98035464  0.41416825  1
  O  O305  1  0.91122344  0.98497480  0.75220655  1
  O  O306  1  0.07244239  0.26438127  0.07215862  1
  O  O307  1  0.07363629  0.26809043  0.40973843  1
  O  O308  1  0.08063939  0.27444596  0.74180237  1
  O  O309  1  0.08714973  0.76962877  0.08858579  1
  O  O310  1  0.08021598  0.76768760  0.41720224  1
  O  O311  1  0.07410425  0.77306232  0.74045739  1
  O  O312  1  0.41083362  0.25514758  0.07353641  1
  O  O313  1  0.41072669  0.27410579  0.41540697  1
  O  O314  1  0.40431283  0.26762623  0.73486942  1
  O  O315  1  0.42365567  0.76527452  0.08496602  1
  O  O316  1  0.41528339  0.76962987  0.40413707  1
  O  O317  1  0.40271531  0.76123892  0.73867167  1
  O  O318  1  0.74815255  0.27364506  0.08092904  1
  O  O319  1  0.74501676  0.27437556  0.41589925  1
  O  O320  1  0.74179830  0.26820826  0.74537195  1
  O  O321  1  0.75011643  0.77297232  0.08939519  1
  O  O322  1  0.75338419  0.77217129  0.42137660  1
  O  O323  1  0.74763600  0.77122357  0.75066827  1
  O  O324  1  0.24452630  0.00639466  0.24583715  1
  O  O325  1  0.25911890  0.00973951  0.59623743  1
  O  O326  1  0.25559196  0.02766133  0.91789245  1
  O  O327  1  0.25290701  0.50290100  0.25880022  1
  O  O328  1  0.25223639  0.52425004  0.59543502  1
  O  O329  1  0.25300540  0.52252599  0.91825783  1
  O  O330  1  0.59482441  0.01874313  0.25559361  1
  O  O331  1  0.58341710  0.02630176  0.58266164  1
  O  O332  1  0.58695966  0.02638641  0.91429554  1
  O  O333  1  0.58366969  0.52028961  0.25202965  1
  O  O334  1  0.58841385  0.52881134  0.58190312  1
  O  O335  1  0.57779485  0.51593238  0.91134003  1
  O  O336  1  0.92109503  0.02459772  0.25647935  1
  O  O337  1  0.91287974  0.00745018  0.58460117  1
  O  O338  1  0.91273105  0.02013333  0.91851521  1
  O  O339  1  0.91959764  0.51514529  0.26469674  1
  O  O340  1  0.92044858  0.52148414  0.58448771  1
  O  O341  1  0.92996182  0.51002972  0.92636715  1
  O  O342  1  0.08620358  0.22778291  0.24206536  1
  O  O343  1  0.08699722  0.24770601  0.57732156  1
  O  O344  1  0.09436696  0.23178506  0.90688198  1
  O  O345  1  0.07741858  0.73601292  0.25728567  1
  O  O346  1  0.08534492  0.72058322  0.58005367  1
  O  O347  1  0.08923421  0.73858654  0.90627475  1
  O  O348  1  0.41625709  0.24733588  0.25063198  1
  O  O349  1  0.42601369  0.23089602  0.57448453  1
  O  O350  1  0.41772900  0.22914951  0.90681785  1
  O  O351  1  0.42456517  0.74282037  0.24201739  1
  O  O352  1  0.42383805  0.72766154  0.57686871  1
  O  O353  1  0.41683127  0.72908315  0.90883010  1
  O  O354  1  0.75885663  0.22940681  0.24711069  1
  O  O355  1  0.74706845  0.23480287  0.58350762  1
  O  O356  1  0.75099214  0.22918651  0.91814549  1
  O  O357  1  0.74182297  0.74102210  0.26123091  1
  O  O358  1  0.74859522  0.72807802  0.58595980  1
  O  O359  1  0.75061401  0.74979113  0.91717936  1
