# generated using pymatgen
data_Ba17Sr5La8Pr42Mn72O216
_symmetry_space_group_name_H-M   'P 1'
_cell_length_a   16.68845769
_cell_length_b   15.71021109
_cell_length_c   16.82949248
_cell_angle_alpha   90.00272416
_cell_angle_beta   90.00526233
_cell_angle_gamma   90.01066328
_symmetry_Int_Tables_number   1
_chemical_formula_structural   Ba17Sr5La8Pr42Mn72O216
_chemical_formula_sum   'Ba17 Sr5 La8 Pr42 Mn72 O216'
_cell_volume   4412.34265876
_cell_formula_units_Z   1
loop_
 _symmetry_equiv_pos_site_id
 _symmetry_equiv_pos_as_xyz
  1  'x, y, z'
loop_
 _atom_site_type_symbol
 _atom_site_label
 _atom_site_symmetry_multiplicity
 _atom_site_fract_x
 _atom_site_fract_y
 _atom_site_fract_z
 _atom_site_occupancy
  Ba  Ba0  1  0.50529727  0.87361116  0.16522811  1
  Ba  Ba1  1  0.33319983  0.12517862  0.99748712  1
  Ba  Ba2  1  0.33104777  0.62354226  0.33283939  1
  Ba  Ba3  1  0.50169853  0.37439011  0.49934460  1
  Ba  Ba4  1  0.66363904  0.12184081  0.66708499  1
  Ba  Ba5  1  0.83705642  0.37448742  0.50250540  1
  Ba  Ba6  1  0.34197039  0.87442428  0.33301674  1
  Ba  Ba7  1  0.00185665  0.37487891  0.66816330  1
  Ba  Ba8  1  0.16659571  0.37727148  0.83517341  1
  Ba  Ba9  1  0.66561012  0.37604076  -0.00099885  1
  Ba  Ba10  1  0.16651057  0.12257930  0.50095623  1
  Ba  Ba11  1  0.00140753  0.37524735  0.00087560  1
  Ba  Ba12  1  0.16382947  0.62726254  0.49980762  1
  Ba  Ba13  1  0.66624395  0.37338602  0.66893806  1
  Ba  Ba14  1  -0.00302851  0.62555661  1.00079636  1
  Ba  Ba15  1  0.33611676  0.37597067  0.33134961  1
  Ba  Ba16  1  -0.00580111  0.12435014  1.00136882  1
  Sr  Sr17  1  0.67245892  0.87628573  0.66733659  1
  Sr  Sr18  1  0.33523907  0.37709752  -0.00192243  1
  Sr  Sr19  1  0.16172953  0.62521295  0.83223109  1
  Sr  Sr20  1  0.49260597  0.62418797  0.82965233  1
  Sr  Sr21  1  0.82501183  0.12699446  0.16387198  1
  La  La22  1  0.67207263  0.37476547  0.33861739  1
  La  La23  1  0.00589321  0.37290892  0.33785285  1
  La  La24  1  0.33651614  0.87308103  0.66399752  1
  La  La25  1  0.49534103  0.62319380  0.16411617  1
  La  La26  1  0.17942427  0.87515389  0.16561730  1
  La  La27  1  0.65560027  0.62702557  0.66461173  1
  La  La28  1  0.82543845  0.62292479  0.16596992  1
  La  La29  1  -0.00543084  0.12670068  0.66900323  1
  Pr  Pr30  1  0.66302940  0.12636233  0.33287807  1
  Pr  Pr31  1  0.01410109  0.87743868  0.33789668  1
  Pr  Pr32  1  0.49944531  0.12849534  0.16525729  1
  Pr  Pr33  1  -0.00777229  0.62157012  0.66817238  1
  Pr  Pr34  1  0.32468176  0.62266123  0.66135389  1
  Pr  Pr35  1  0.01101786  0.87457121  0.66921079  1
  Pr  Pr36  1  0.17514828  0.87258916  0.83829444  1
  Pr  Pr37  1  0.33231502  0.12947577  0.32616326  1
  Pr  Pr38  1  0.15991307  0.12999999  0.17197764  1
  Pr  Pr39  1  0.15841110  0.62146396  0.17348464  1
  Pr  Pr40  1  0.17037077  0.37533788  0.50116977  1
  Pr  Pr41  1  0.34260676  0.87303816  0.00467163  1
  Pr  Pr42  1  0.84423266  0.87882225  0.49998418  1
  Pr  Pr43  1  0.66177947  0.12105598  0.99621630  1
  Pr  Pr44  1  0.48922325  0.62351224  0.50285126  1
  Pr  Pr45  1  0.49647464  0.12585824  0.83300430  1
  Pr  Pr46  1  0.84248853  0.87642399  0.16312963  1
  Pr  Pr47  1  0.67734335  0.87421545  0.33411497  1
  Pr  Pr48  1  0.49371768  0.12505869  0.49954685  1
  Pr  Pr49  1  0.32548299  0.62615147  0.99733232  1
  Pr  Pr50  1  -0.00749689  0.62623675  0.32974950  1
  Pr  Pr51  1  0.15822073  0.12619588  0.83844841  1
  Pr  Pr52  1  0.17693297  0.37641868  0.15900663  1
  Pr  Pr53  1  0.84059062  0.37521863  0.82870215  1
  Pr  Pr54  1  0.84240673  0.87564841  0.83130941  1
  Pr  Pr55  1  0.83835639  0.37309445  0.16453808  1
  Pr  Pr56  1  0.51355486  0.87523689  0.49216799  1
  Pr  Pr57  1  0.33058216  0.37684064  0.66868280  1
  Pr  Pr58  1  0.01336693  0.87471034  0.00448138  1
  Pr  Pr59  1  -0.01346955  0.12299259  0.32926056  1
  Pr  Pr60  1  0.18101892  0.87516791  0.49805967  1
  Pr  Pr61  1  0.65705040  0.62707094  0.99541662  1
  Pr  Pr62  1  0.50410162  0.87691678  0.83095237  1
  Pr  Pr63  1  0.33054019  0.12743758  0.66543551  1
  Pr  Pr64  1  0.82296686  0.12914499  0.83687809  1
  Pr  Pr65  1  0.49539883  0.37150176  0.82623627  1
  Pr  Pr66  1  0.50029727  0.37816414  0.16288514  1
  Pr  Pr67  1  0.82486394  0.62240443  0.83462912  1
  Pr  Pr68  1  0.67636830  0.87316549  0.00264882  1
  Pr  Pr69  1  0.66024227  0.62375448  0.33448818  1
  Pr  Pr70  1  0.82686205  0.62576879  0.50352401  1
  Pr  Pr71  1  0.82949303  0.12640782  0.50263975  1
  Mn  Mn72  1  0.00047283  -0.00082934  0.16925744  1
  Mn  Mn73  1  0.00199301  0.00081173  0.50132338  1
  Mn  Mn74  1  -0.00062330  -0.00359676  0.83508071  1
  Mn  Mn75  1  -0.00200762  0.49946016  0.17033403  1
  Mn  Mn76  1  -0.00008199  0.50134935  0.49882780  1
  Mn  Mn77  1  -0.00153271  0.50381913  0.83373198  1
  Mn  Mn78  1  0.33597044  0.00161320  0.16475482  1
  Mn  Mn79  1  0.33723615  0.00123841  0.49870374  1
  Mn  Mn80  1  0.33281626  -0.00303841  0.83166730  1
  Mn  Mn81  1  0.33354737  0.50038661  0.16259447  1
  Mn  Mn82  1  0.33210549  0.49850219  0.50017496  1
  Mn  Mn83  1  0.33221296  0.50316069  0.83279574  1
  Mn  Mn84  1  0.66858726  0.00012874  0.16600017  1
  Mn  Mn85  1  0.66997133  -0.00092940  0.49856858  1
  Mn  Mn86  1  0.66548883  -0.00311383  0.83424549  1
  Mn  Mn87  1  0.66586648  0.50038946  0.16745575  1
  Mn  Mn88  1  0.66719123  0.50143510  0.49927310  1
  Mn  Mn89  1  0.66290642  0.50166807  0.83332116  1
  Mn  Mn90  1  -0.00175077  0.24861925  0.17058814  1
  Mn  Mn91  1  0.00190524  0.24741543  0.49913624  1
  Mn  Mn92  1  -0.00161923  0.24803079  0.83396195  1
  Mn  Mn93  1  -0.00014332  0.75273118  0.16933812  1
  Mn  Mn94  1  -0.00095520  0.75132676  0.50123157  1
  Mn  Mn95  1  -0.00115586  0.75163605  0.83470578  1
  Mn  Mn96  1  0.33475326  0.25022288  0.16345466  1
  Mn  Mn97  1  0.33293669  0.24876396  0.49837874  1
  Mn  Mn98  1  0.33131641  0.24948755  0.83102198  1
  Mn  Mn99  1  0.33484903  0.74830222  0.16442591  1
  Mn  Mn100  1  0.33661116  0.75084061  0.50117057  1
  Mn  Mn101  1  0.33334055  0.75003346  0.83272938  1
  Mn  Mn102  1  0.66572542  0.25052138  0.16748370  1
  Mn  Mn103  1  0.66798382  0.24942406  0.49895656  1
  Mn  Mn104  1  0.66354711  0.25005556  0.83600685  1
  Mn  Mn105  1  0.66896898  0.74890577  0.16659425  1
  Mn  Mn106  1  0.66924392  0.75074541  0.50040423  1
  Mn  Mn107  1  0.66493285  0.75138314  0.83243354  1
  Mn  Mn108  1  0.16674481  0.24907807  0.00198358  1
  Mn  Mn109  1  0.16654305  0.24973439  0.33428007  1
  Mn  Mn110  1  0.16663094  0.24698244  0.66838233  1
  Mn  Mn111  1  0.16821146  0.74914612  0.00109882  1
  Mn  Mn112  1  0.16633141  0.75048000  0.33397741  1
  Mn  Mn113  1  0.16546783  0.75190559  0.66838878  1
  Mn  Mn114  1  0.49941056  0.25176871  -0.00153476  1
  Mn  Mn115  1  0.50294186  0.24956943  0.33158832  1
  Mn  Mn116  1  0.49708724  0.24736389  0.66549734  1
  Mn  Mn117  1  0.50028805  0.74842408  -0.00453334  1
  Mn  Mn118  1  0.50529228  0.74877465  0.33245731  1
  Mn  Mn119  1  0.49884812  0.75292874  0.66493471  1
  Mn  Mn120  1  0.83006088  0.25050763  0.00127844  1
  Mn  Mn121  1  0.83267923  0.24889289  0.33206005  1
  Mn  Mn122  1  0.83248066  0.24796987  0.66853619  1
  Mn  Mn123  1  0.83262899  0.74981732  -0.00078573  1
  Mn  Mn124  1  0.83524601  0.75146801  0.33416582  1
  Mn  Mn125  1  0.83240077  0.75265767  0.66751786  1
  Mn  Mn126  1  0.16850524  -0.00001227  0.00173622  1
  Mn  Mn127  1  0.16975806  0.00158547  0.33446549  1
  Mn  Mn128  1  0.16766703  -0.00217282  0.67073433  1
  Mn  Mn129  1  0.16677838  0.50134962  0.00077891  1
  Mn  Mn130  1  0.16389845  0.49806090  0.33342477  1
  Mn  Mn131  1  0.16448983  0.50240557  0.66697654  1
  Mn  Mn132  1  0.50172773  -0.00068403  -0.00223920  1
  Mn  Mn133  1  0.50548879  0.00099002  0.33245085  1
  Mn  Mn134  1  0.49821075  -0.00204305  0.66347086  1
  Mn  Mn135  1  0.49738285  0.50080263  -0.00403326  1
  Mn  Mn136  1  0.50269865  0.50117728  0.33165355  1
  Mn  Mn137  1  0.49772968  0.50142864  0.66743529  1
  Mn  Mn138  1  0.83267377  -0.00129134  -0.00125601  1
  Mn  Mn139  1  0.83354856  -0.00197372  0.33123110  1
  Mn  Mn140  1  0.83439513  -0.00252149  0.66708361  1
  Mn  Mn141  1  0.83010596  0.50016920  0.00032511  1
  Mn  Mn142  1  0.83375725  0.50220757  0.33352500  1
  Mn  Mn143  1  0.83077614  0.50282457  0.66956133  1
  O  O144  1  0.16373518  0.12129827  0.02474625  1
  O  O145  1  0.18018630  0.12544202  0.34442644  1
  O  O146  1  0.17848971  0.11792072  0.69538887  1
  O  O147  1  0.17058036  0.62829653  0.02686966  1
  O  O148  1  0.15778442  0.62568925  0.34020092  1
  O  O149  1  0.17599887  0.63099192  0.68180276  1
  O  O150  1  0.50648317  0.12308854  0.02131154  1
  O  O151  1  0.50917252  0.12330977  0.35556022  1
  O  O152  1  0.49048743  0.11993280  0.68973134  1
  O  O153  1  0.50452586  0.62477216  0.02086202  1
  O  O154  1  0.50876647  0.62624887  0.35693552  1
  O  O155  1  0.49921788  0.62929383  0.67995718  1
  O  O156  1  0.82361612  0.12182674  0.01409455  1
  O  O157  1  0.83644525  0.11962175  0.35835841  1
  O  O158  1  0.83723546  0.11834375  0.69064946  1
  O  O159  1  0.82644582  0.62647875  0.02231644  1
  O  O160  1  0.84311134  0.63017082  0.36039635  1
  O  O161  1  0.83627167  0.63144301  0.69017850  1
  O  O162  1  0.15840869  0.37180683  0.30666330  1
  O  O163  1  0.16947419  0.37386346  0.64729997  1
  O  O164  1  0.17007682  0.37564798  0.99639851  1
  O  O165  1  0.16504973  0.87676518  0.31247910  1
  O  O166  1  0.15808522  0.87488454  0.64085292  1
  O  O167  1  0.16935108  0.87407511  0.98312941  1
  O  O168  1  0.51004968  0.37527950  0.30876705  1
  O  O169  1  0.49410878  0.37366959  0.65794455  1
  O  O170  1  0.49697186  0.37969513  0.97137158  1
  O  O171  1  0.51157940  0.87403894  0.32349062  1
  O  O172  1  0.49308257  0.87658133  0.63530759  1
  O  O173  1  0.49506776  0.87326448  0.97553649  1
  O  O174  1  0.82872926  0.37670840  0.30871903  1
  O  O175  1  0.83400759  0.37638328  0.66388540  1
  O  O176  1  0.83174195  0.37751408  0.97679316  1
  O  O177  1  0.82616906  0.87425566  0.30533783  1
  O  O178  1  0.83236337  0.87484964  0.64349003  1
  O  O179  1  0.82540446  0.87299531  0.97501843  1
  O  O180  1  -0.01175943  0.37383821  0.19269848  1
  O  O181  1  0.00576500  0.37151925  0.51182311  1
  O  O182  1  -0.01100379  0.37713106  0.84012316  1
  O  O183  1  -0.00778858  0.87665660  0.19317275  1
  O  O184  1  -0.00870527  0.87530302  0.52662947  1
  O  O185  1  -0.01107936  0.87414277  0.86068009  1
  O  O186  1  0.33100744  0.37435228  0.17489909  1
  O  O187  1  0.32959810  0.37195871  0.52181871  1
  O  O188  1  0.33835321  0.37693004  0.84787421  1
  O  O189  1  0.33132771  0.87399253  0.17534174  1
  O  O190  1  0.33716142  0.87669904  0.51643383  1
  O  O191  1  0.32721379  0.87312860  0.86270349  1
  O  O192  1  0.65816948  0.37755606  0.19468838  1
  O  O193  1  0.66834061  0.37641179  0.50834618  1
  O  O194  1  0.65239125  0.37458545  0.84222461  1
  O  O195  1  0.67152206  0.87552875  0.19089360  1
  O  O196  1  0.66015562  0.87426861  0.51750216  1
  O  O197  1  0.65420728  0.87347371  0.85931215  1
  O  O198  1  0.01012345  0.12083274  0.15728957  1
  O  O199  1  -0.00116346  0.12358059  0.47218255  1
  O  O200  1  0.00762179  0.11639333  0.81598012  1
  O  O201  1  0.01026828  0.62944285  0.15865174  1
  O  O202  1  -0.00459263  0.63081810  0.47344999  1
  O  O203  1  -0.00166542  0.63234950  0.81380967  1
  O  O204  1  0.34085670  0.12684761  0.15572847  1
  O  O205  1  0.33858067  0.12359973  0.47333411  1
  O  O206  1  0.33993278  0.11993163  0.80775399  1
  O  O207  1  0.33606321  0.62475517  0.14422899  1
  O  O208  1  0.33787102  0.62659965  0.49390910  1
  O  O209  1  0.33496998  0.63052239  0.80362951  1
  O  O210  1  0.66564870  0.12338172  0.14003178  1
  O  O211  1  0.67577193  0.12185484  0.47748861  1
  O  O212  1  0.67237767  0.12196546  0.82442638  1
  O  O213  1  0.67407454  0.62338937  0.13921507  1
  O  O214  1  0.67569955  0.62825544  0.47889925  1
  O  O215  1  0.67429886  0.63005295  0.80846970  1
  O  O216  1  0.07665428  0.01593474  0.26647325  1
  O  O217  1  0.07377928  0.01606128  0.60241212  1
  O  O218  1  0.07772286  0.00401436  0.92472018  1
  O  O219  1  0.06952688  0.51293860  0.26272158  1
  O  O220  1  0.07469082  0.51877286  0.58998204  1
  O  O221  1  0.08136092  0.51073119  0.92008685  1
  O  O222  1  0.41589094  0.02119510  0.25827682  1
  O  O223  1  0.41065013  0.02449236  0.58681714  1
  O  O224  1  0.41763997  0.01048078  0.90989984  1
  O  O225  1  0.42042181  0.51098982  0.24401237  1
  O  O226  1  0.41048205  0.51547659  0.59097032  1
  O  O227  1  0.40885404  0.52368693  0.92086811  1
  O  O228  1  0.74047732  0.01832555  0.26058889  1
  O  O229  1  0.75104883  0.01114570  0.57991368  1
  O  O230  1  0.73799670  0.00970392  0.92903003  1
  O  O231  1  0.74479341  0.52356388  0.25734205  1
  O  O232  1  0.74483355  0.52356992  0.59180333  1
  O  O233  1  0.74089239  0.52236047  0.92186710  1
  O  O234  1  0.24732300  0.23468185  0.24652592  1
  O  O235  1  0.25212506  0.23445374  0.58723020  1
  O  O236  1  0.24496423  0.23145144  0.90636272  1
  O  O237  1  0.23930064  0.73776400  0.23511674  1
  O  O238  1  0.24897774  0.74774483  0.58385853  1
  O  O239  1  0.24561641  0.73079873  0.91123780  1
  O  O240  1  0.58164335  0.22392444  0.24651496  1
  O  O241  1  0.57592312  0.23170750  0.57832056  1
  O  O242  1  0.58176221  0.22726783  0.91830665  1
  O  O243  1  0.58205388  0.72474221  0.23996034  1
  O  O244  1  0.57488425  0.73211889  0.56835179  1
  O  O245  1  0.57441872  0.73097180  0.90554762  1
  O  O246  1  0.91085893  0.22886972  0.24708022  1
  O  O247  1  0.91629143  0.22643805  0.57816677  1
  O  O248  1  0.90531019  0.23674742  0.90846039  1
  O  O249  1  0.90595298  0.73157131  0.23920072  1
  O  O250  1  0.90477696  0.73290842  0.57108416  1
  O  O251  1  0.90011587  0.73543439  0.90383360  1
  O  O252  1  0.09118040  0.48801213  0.10159076  1
  O  O253  1  0.09029189  0.47804753  0.42179408  1
  O  O254  1  0.08406047  0.50262833  0.74977673  1
  O  O255  1  0.09179791  0.97658833  0.09363800  1
  O  O256  1  0.09143451  0.97640092  0.42925030  1
  O  O257  1  0.09174777  0.97426954  0.76234470  1
  O  O258  1  0.42265026  0.48421075  0.08398236  1
  O  O259  1  0.42210420  0.49600364  0.41990913  1
  O  O260  1  0.41903371  0.48308322  0.75436594  1
  O  O261  1  0.42153705  0.98761922  0.08037794  1
  O  O262  1  0.43659239  0.98882636  0.42679682  1
  O  O263  1  0.41700644  0.97219305  0.75057050  1
  O  O264  1  0.75650288  0.48092320  0.09706227  1
  O  O265  1  0.75657937  0.49281587  0.41745874  1
  O  O266  1  0.75673987  0.48882479  0.76358809  1
  O  O267  1  0.75849484  0.97757771  0.09155450  1
  O  O268  1  0.76130026  0.97494809  0.42063860  1
  O  O269  1  0.75587522  0.98150475  0.76358117  1
  O  O270  1  0.25040062  0.25969927  0.08518051  1
  O  O271  1  0.24840032  0.26774246  0.41867875  1
  O  O272  1  0.25533232  0.26456577  0.74340320  1
  O  O273  1  0.26025880  0.76631920  0.07305592  1
  O  O274  1  0.25398680  0.76318646  0.41770583  1
  O  O275  1  0.25477811  0.77544658  0.74729564  1
  O  O276  1  0.57882707  0.26619922  0.09096193  1
  O  O277  1  0.59281906  0.26049336  0.40615184  1
  O  O278  1  0.57255311  0.25303244  0.75737956  1
  O  O279  1  0.59468059  0.76243422  0.06637887  1
  O  O280  1  0.60234480  0.76429107  0.40619252  1
  O  O281  1  0.58789293  0.76795316  0.73884142  1
  O  O282  1  0.91369522  0.26177106  0.08575013  1
  O  O283  1  0.92504730  0.26067855  0.40564656  1
  O  O284  1  0.91573044  0.25140300  0.75062458  1
  O  O285  1  0.92570372  0.77320876  0.07680766  1
  O  O286  1  0.92632364  0.77686922  0.40508316  1
  O  O287  1  0.92512495  0.77163611  0.73948934  1
  O  O288  1  0.25496886  0.49070620  0.07830595  1
  O  O289  1  0.24738465  0.48434274  0.41681171  1
  O  O290  1  0.25781931  0.48901099  0.74129123  1
  O  O291  1  0.25698092  0.98061296  0.07417438  1
  O  O292  1  0.25557585  0.98559525  0.41548197  1
  O  O293  1  0.25412545  0.96980765  0.74695571  1
  O  O294  1  0.58036095  0.48706123  0.08686132  1
  O  O295  1  0.59399674  0.48979702  0.40513774  1
  O  O296  1  0.58228397  0.49633028  0.74735443  1
  O  O297  1  0.59705003  0.98309209  0.06965462  1
  O  O298  1  0.60008616  0.98547316  0.40368356  1
  O  O299  1  0.58189642  0.98066103  0.74641968  1
  O  O300  1  0.91558430  0.48946981  0.08856973  1
  O  O301  1  0.92692466  0.48612302  0.40449186  1
  O  O302  1  0.91572266  0.49879436  0.74883961  1
  O  O303  1  0.92196794  0.97616122  0.07197364  1
  O  O304  1  0.92459262  0.97847100  0.40429176  1
  O  O305  1  0.92750984  0.97779780  0.74183082  1
  O  O306  1  0.08929207  0.26300364  0.10228268  1
  O  O307  1  0.08980382  0.26882308  0.42244025  1
  O  O308  1  0.08597187  0.24793501  0.75338487  1
  O  O309  1  0.09145078  0.77263789  0.09549847  1
  O  O310  1  0.08954801  0.77695433  0.42982977  1
  O  O311  1  0.08971049  0.77400677  0.75934473  1
  O  O312  1  0.42122176  0.26851532  0.08285834  1
  O  O313  1  0.42054856  0.25326682  0.41286255  1
  O  O314  1  0.41139159  0.26633776  0.74451796  1
  O  O315  1  0.42065532  0.75905615  0.08046674  1
  O  O316  1  0.43263703  0.75921361  0.43061957  1
  O  O317  1  0.42112385  0.77713775  0.75719585  1
  O  O318  1  0.75391514  0.26889323  0.09423791  1
  O  O319  1  0.75465617  0.25940472  0.41449291  1
  O  O320  1  0.75396241  0.26035802  0.76381556  1
  O  O321  1  0.76083314  0.77043604  0.09367560  1
  O  O322  1  0.76444975  0.77078970  0.43059789  1
  O  O323  1  0.75886754  0.77107970  0.76318906  1
  O  O324  1  0.24429058  0.01616379  0.23975407  1
  O  O325  1  0.25004468  0.00663272  0.58689917  1
  O  O326  1  0.23902872  0.01502227  0.90473154  1
  O  O327  1  0.23688791  0.51006886  0.24028105  1
  O  O328  1  0.24719987  0.50766476  0.58354729  1
  O  O329  1  0.24961122  0.52262206  0.91313286  1
  O  O330  1  0.57867092  0.02400931  0.24043335  1
  O  O331  1  0.57345618  0.01384186  0.56814092  1
  O  O332  1  0.57572113  0.02042809  0.90873577  1
  O  O333  1  0.58181281  0.52669290  0.24474647  1
  O  O334  1  0.57696867  0.52153567  0.57802025  1
  O  O335  1  0.57983945  0.52270480  0.91431168  1
  O  O336  1  0.90664720  0.01733127  0.24308979  1
  O  O337  1  0.91211965  0.02086692  0.57126444  1
  O  O338  1  0.90038294  0.01358459  0.90140991  1
  O  O339  1  0.90817889  0.52405849  0.24534997  1
  O  O340  1  0.91005735  0.52362100  0.57962913  1
  O  O341  1  0.90500782  0.51522477  0.90807858  1
  O  O342  1  0.07577307  0.22814795  0.26263972  1
  O  O343  1  0.07949532  0.22934150  0.59186785  1
  O  O344  1  0.08134378  0.23709438  0.91788194  1
  O  O345  1  0.06915421  0.74209308  0.26326087  1
  O  O346  1  0.06703462  0.73509035  0.59899785  1
  O  O347  1  0.07855899  0.74755732  0.92511509  1
  O  O348  1  0.41888779  0.23314517  0.24873413  1
  O  O349  1  0.41389497  0.22642166  0.58235239  1
  O  O350  1  0.42157671  0.23674296  0.90460349  1
  O  O351  1  0.41713856  0.73478096  0.24695918  1
  O  O352  1  0.40820557  0.73300286  0.59379237  1
  O  O353  1  0.40697734  0.73168953  0.92285608  1
  O  O354  1  0.74253664  0.23207830  0.25599037  1
  O  O355  1  0.75371525  0.23441632  0.58375414  1
  O  O356  1  0.74300614  0.23282567  0.92356885  1
  O  O357  1  0.74407995  0.72869526  0.26489807  1
  O  O358  1  0.73969915  0.73143968  0.59390204  1
  O  O359  1  0.73648464  0.73343558  0.92756695  1
