# generated using pymatgen
data_Ba17Sr5La8Pr42Mn72O216
_symmetry_space_group_name_H-M   'P 1'
_cell_length_a   16.67454878
_cell_length_b   15.70669570
_cell_length_c   16.81745415
_cell_angle_alpha   89.99671539
_cell_angle_beta   90.03027899
_cell_angle_gamma   89.98641631
_symmetry_Int_Tables_number   1
_chemical_formula_structural   Ba17Sr5La8Pr42Mn72O216
_chemical_formula_sum   'Ba17 Sr5 La8 Pr42 Mn72 O216'
_cell_volume   4404.52520119
_cell_formula_units_Z   1
loop_
 _symmetry_equiv_pos_site_id
 _symmetry_equiv_pos_as_xyz
  1  'x, y, z'
loop_
 _atom_site_type_symbol
 _atom_site_label
 _atom_site_symmetry_multiplicity
 _atom_site_fract_x
 _atom_site_fract_y
 _atom_site_fract_z
 _atom_site_occupancy
  Ba  Ba0  1  0.83385108  0.87408646  0.17089609  1
  Ba  Ba1  1  0.00283328  0.87724605  0.66700659  1
  Ba  Ba2  1  -0.00100985  0.12525828  1.00206597  1
  Ba  Ba3  1  0.00116867  0.37553658  0.00404210  1
  Ba  Ba4  1  0.49726968  0.62523864  0.16507155  1
  Ba  Ba5  1  0.83263983  0.62537088  0.83604832  1
  Ba  Ba6  1  0.82832826  0.62402826  0.50301503  1
  Ba  Ba7  1  0.50211894  0.87800089  0.49617439  1
  Ba  Ba8  1  0.83402963  0.37592390  0.16742301  1
  Ba  Ba9  1  0.49831296  0.37415077  0.16587883  1
  Ba  Ba10  1  0.49724065  0.62380295  0.83247154  1
  Ba  Ba11  1  0.00253763  0.87548562  0.33644748  1
  Ba  Ba12  1  0.50096038  0.87618145  0.16569676  1
  Ba  Ba13  1  0.33104279  0.62425694  0.33238985  1
  Ba  Ba14  1  0.83352490  0.12688560  0.50375688  1
  Ba  Ba15  1  0.16445235  0.12427009  0.16864137  1
  Ba  Ba16  1  0.66515373  0.62518226  1.00022334  1
  Sr  Sr17  1  -0.00738777  0.62367450  1.00374373  1
  Sr  Sr18  1  0.33752940  0.37344636  0.33060834  1
  Sr  Sr19  1  0.82918348  0.62392333  0.16863683  1
  Sr  Sr20  1  -0.00294090  0.12593899  0.66761980  1
  Sr  Sr21  1  0.67062509  0.87280122  0.33469616  1
  La  La22  1  0.32578630  0.62519339  0.66056957  1
  La  La23  1  0.49701354  0.12576118  0.83132324  1
  La  La24  1  0.00597625  0.37439073  0.33419175  1
  La  La25  1  0.49335760  0.62684609  0.49732955  1
  La  La26  1  0.00247825  0.37412787  0.67068473  1
  La  La27  1  0.33761444  0.87480215  -0.00078447  1
  La  La28  1  -0.00743758  0.62667920  0.33193878  1
  La  La29  1  0.16083078  0.62376625  0.16759986  1
  Pr  Pr30  1  0.51297333  0.87552661  0.82724594  1
  Pr  Pr31  1  0.67237137  0.37903003  0.33370238  1
  Pr  Pr32  1  0.15794884  0.62391079  0.50250436  1
  Pr  Pr33  1  0.16913314  0.87245794  0.16436166  1
  Pr  Pr34  1  0.33311733  0.12648660  0.99827555  1
  Pr  Pr35  1  0.84011185  0.87668058  0.49331691  1
  Pr  Pr36  1  0.84190506  0.37668901  0.83886804  1
  Pr  Pr37  1  0.50931068  0.37376415  0.83073506  1
  Pr  Pr38  1  0.34091685  0.37311282  0.66748505  1
  Pr  Pr39  1  0.16235316  0.12522692  0.50057253  1
  Pr  Pr40  1  0.32806659  0.12483398  0.66149071  1
  Pr  Pr41  1  0.67746571  0.87576872  0.66584838  1
  Pr  Pr42  1  0.17267739  0.87489387  0.49854102  1
  Pr  Pr43  1  -0.01112110  0.62492092  0.66611161  1
  Pr  Pr44  1  0.49492785  0.12519542  0.49850998  1
  Pr  Pr45  1  0.83264064  0.12796033  0.17263416  1
  Pr  Pr46  1  0.16443109  0.12428844  0.83735803  1
  Pr  Pr47  1  0.33544577  0.37623664  0.00223472  1
  Pr  Pr48  1  0.34124024  0.87592931  0.66912459  1
  Pr  Pr49  1  0.66133461  0.12477144  0.66010044  1
  Pr  Pr50  1  0.15997701  0.62531270  0.83646212  1
  Pr  Pr51  1  0.66132259  0.62788242  0.32760839  1
  Pr  Pr52  1  0.50572550  0.37438017  0.49184398  1
  Pr  Pr53  1  0.00463308  0.87086505  0.00478209  1
  Pr  Pr54  1  0.17429838  0.37555801  0.49745756  1
  Pr  Pr55  1  0.66417893  0.12512833  0.99946528  1
  Pr  Pr56  1  0.17018764  0.37600382  0.16416851  1
  Pr  Pr57  1  0.65340014  0.62444051  0.66276753  1
  Pr  Pr58  1  0.17212141  0.87837722  0.82980320  1
  Pr  Pr59  1  0.33299703  0.62334843  0.99901705  1
  Pr  Pr60  1  0.66241651  0.12269128  0.32910454  1
  Pr  Pr61  1  0.33363264  0.12484484  0.32884293  1
  Pr  Pr62  1  0.67230798  0.87039556  0.00343110  1
  Pr  Pr63  1  0.67687478  0.37312069  0.66907373  1
  Pr  Pr64  1  0.84305570  0.87322162  0.83614212  1
  Pr  Pr65  1  0.83328997  0.12375338  0.83469380  1
  Pr  Pr66  1  0.49657215  0.12575462  0.16610345  1
  Pr  Pr67  1  0.33640810  0.87686477  0.33084876  1
  Pr  Pr68  1  -0.00820337  0.12242209  0.33002747  1
  Pr  Pr69  1  0.84505331  0.37410088  0.49787729  1
  Pr  Pr70  1  0.16954527  0.37087081  0.83219130  1
  Pr  Pr71  1  0.67083754  0.37917705  0.00249766  1
  Mn  Mn72  1  -0.00005125  -0.00170295  0.16751750  1
  Mn  Mn73  1  0.00214242  0.00271628  0.50212022  1
  Mn  Mn74  1  0.00177967  0.00133113  0.83467390  1
  Mn  Mn75  1  -0.00050626  0.50180361  0.16983732  1
  Mn  Mn76  1  0.00259788  0.49878417  0.50325768  1
  Mn  Mn77  1  0.00237193  0.49864629  0.83472883  1
  Mn  Mn78  1  0.33246044  0.00052984  0.16447303  1
  Mn  Mn79  1  0.33133571  0.00215529  0.49813622  1
  Mn  Mn80  1  0.33504736  0.00172183  0.83154607  1
  Mn  Mn81  1  0.33096105  0.49919921  0.16550357  1
  Mn  Mn82  1  0.33257241  0.49813304  0.50036466  1
  Mn  Mn83  1  0.33176494  0.49766150  0.83107825  1
  Mn  Mn84  1  0.66602997  0.00014201  0.16365493  1
  Mn  Mn85  1  0.66698182  0.00180070  0.49887991  1
  Mn  Mn86  1  0.66960434  0.00273884  0.83197233  1
  Mn  Mn87  1  0.66549724  0.49933737  0.16825198  1
  Mn  Mn88  1  0.66403675  0.49816920  0.50161572  1
  Mn  Mn89  1  0.66786131  0.49610133  0.83191161  1
  Mn  Mn90  1  0.00002095  0.24903072  0.17027816  1
  Mn  Mn91  1  0.00456406  0.25078890  0.50243796  1
  Mn  Mn92  1  0.00123318  0.24988191  0.83291705  1
  Mn  Mn93  1  0.00002417  0.74939648  0.16844740  1
  Mn  Mn94  1  0.00099420  0.74931893  0.50280093  1
  Mn  Mn95  1  0.00329058  0.75041872  0.83624116  1
  Mn  Mn96  1  0.33143950  0.24978809  0.16506981  1
  Mn  Mn97  1  0.33335691  0.24950041  0.49855993  1
  Mn  Mn98  1  0.33425561  0.25008488  0.83146864  1
  Mn  Mn99  1  0.33094788  0.75107618  0.16456119  1
  Mn  Mn100  1  0.33118063  0.75074583  0.49979803  1
  Mn  Mn101  1  0.33299400  0.75026848  0.83123306  1
  Mn  Mn102  1  0.66491000  0.24899265  0.16470113  1
  Mn  Mn103  1  0.66619094  0.25094353  0.50005878  1
  Mn  Mn104  1  0.66927608  0.24741011  0.83171310  1
  Mn  Mn105  1  0.66619111  0.75121868  0.16779006  1
  Mn  Mn106  1  0.66507216  0.74964192  0.50018238  1
  Mn  Mn107  1  0.66879876  0.75230953  0.83181980  1
  Mn  Mn108  1  0.16839383  0.24965237  -0.00076897  1
  Mn  Mn109  1  0.16840562  0.25065614  0.33522892  1
  Mn  Mn110  1  0.16763954  0.25006695  0.66583783  1
  Mn  Mn111  1  0.16732862  0.74888428  -0.00203681  1
  Mn  Mn112  1  0.16722234  0.75016408  0.33417999  1
  Mn  Mn113  1  0.16742729  0.75008120  0.66768325  1
  Mn  Mn114  1  0.49965057  0.24839617  -0.00340709  1
  Mn  Mn115  1  0.50114503  0.24984461  0.33249007  1
  Mn  Mn116  1  0.50018187  0.24983131  0.66341058  1
  Mn  Mn117  1  0.49815545  0.75119420  -0.00465671  1
  Mn  Mn118  1  0.49992178  0.75167958  0.33335418  1
  Mn  Mn119  1  0.49909556  0.75143336  0.66566497  1
  Mn  Mn120  1  0.83107640  0.24675073  0.00168465  1
  Mn  Mn121  1  0.83220522  0.25139591  0.33645553  1
  Mn  Mn122  1  0.83367660  0.25125785  0.66906009  1
  Mn  Mn123  1  0.83421645  0.75040241  0.00107743  1
  Mn  Mn124  1  0.83151167  0.74891027  0.33645234  1
  Mn  Mn125  1  0.83201871  0.75089025  0.66757910  1
  Mn  Mn126  1  0.16778071  -0.00060204  -0.00146679  1
  Mn  Mn127  1  0.16810891  0.00039960  0.33559195  1
  Mn  Mn128  1  0.16833628  0.00237945  0.66622272  1
  Mn  Mn129  1  0.16747065  0.50110218  -0.00075495  1
  Mn  Mn130  1  0.16684779  0.49935623  0.33439654  1
  Mn  Mn131  1  0.16704622  0.49786872  0.66767731  1
  Mn  Mn132  1  0.49985574  0.00196643  -0.00458483  1
  Mn  Mn133  1  0.50066380  0.00201024  0.33146052  1
  Mn  Mn134  1  0.50129487  0.00123192  0.66518924  1
  Mn  Mn135  1  0.49789700  0.49846376  -0.00362107  1
  Mn  Mn136  1  0.50035688  0.49768502  0.33351039  1
  Mn  Mn137  1  0.49767709  0.49631056  0.66400869  1
  Mn  Mn138  1  0.83280836  0.00086661  0.00106960  1
  Mn  Mn139  1  0.83118645  0.00130739  0.33595518  1
  Mn  Mn140  1  0.83396562  0.00006725  0.66857090  1
  Mn  Mn141  1  0.83337746  0.50060943  0.00167858  1
  Mn  Mn142  1  0.83302896  0.49917051  0.33615253  1
  Mn  Mn143  1  0.83147242  0.49852636  0.66773286  1
  O  O144  1  0.17745018  0.12383940  0.01174184  1
  O  O145  1  0.17849757  0.12611899  0.35814459  1
  O  O146  1  0.17796169  0.12745114  0.69387398  1
  O  O147  1  0.17921495  0.62609534  0.02308011  1
  O  O148  1  0.16552934  0.62263579  0.35861313  1
  O  O149  1  0.17695325  0.61917370  0.69310069  1
  O  O150  1  0.50239267  0.12507349  0.02189431  1
  O  O151  1  0.50037769  0.12763419  0.35453877  1
  O  O152  1  0.50345644  0.12561525  0.68889506  1
  O  O153  1  0.49312742  0.62467121  0.00552550  1
  O  O154  1  0.50749182  0.62105808  0.35267173  1
  O  O155  1  0.49956974  0.62318341  0.67607362  1
  O  O156  1  0.82601048  0.12262201  0.02690962  1
  O  O157  1  0.83080311  0.12852379  0.34690606  1
  O  O158  1  0.82966308  0.12606131  0.69039251  1
  O  O159  1  0.83551318  0.62821320  0.01210425  1
  O  O160  1  0.82951374  0.62163752  0.34703758  1
  O  O161  1  0.83693900  0.62185677  0.67918556  1
  O  O162  1  0.15960836  0.37511656  0.30936872  1
  O  O163  1  0.16060957  0.37413325  0.63990139  1
  O  O164  1  0.17315256  0.37605472  0.97587848  1
  O  O165  1  0.17077319  0.87688519  0.31021543  1
  O  O166  1  0.17290200  0.88072673  0.64194242  1
  O  O167  1  0.16165156  0.87352817  0.97273860  1
  O  O168  1  0.50048681  0.37135766  0.32423607  1
  O  O169  1  0.49297227  0.37070788  0.63640637  1
  O  O170  1  0.49133935  0.36951432  0.97415584  1
  O  O171  1  0.49150157  0.88111531  0.32410184  1
  O  O172  1  0.49704174  0.87897950  0.65278154  1
  O  O173  1  0.49119348  0.88139509  0.97042558  1
  O  O174  1  0.83219066  0.37410502  0.32430986  1
  O  O175  1  0.82810863  0.37637215  0.64123738  1
  O  O176  1  0.82499907  0.36924586  0.98308721  1
  O  O177  1  0.83206135  0.87611745  0.33124343  1
  O  O178  1  0.82629827  0.87558681  0.63991394  1
  O  O179  1  0.82593942  0.87982241  0.97910600  1
  O  O180  1  0.00759496  0.37483902  0.18971240  1
  O  O181  1  0.00663528  0.37544810  0.52568800  1
  O  O182  1  0.00308601  0.37410975  0.84631217  1
  O  O183  1  0.01047921  0.87486247  0.17913268  1
  O  O184  1  -0.00058516  0.87601617  0.51027594  1
  O  O185  1  0.00513506  0.87854686  0.85700400  1
  O  O186  1  0.32570700  0.37316721  0.18041885  1
  O  O187  1  0.33329474  0.37170189  0.52429489  1
  O  O188  1  0.32486151  0.37237099  0.85897258  1
  O  O189  1  0.32647050  0.87803103  0.18662784  1
  O  O190  1  0.32643169  0.87932393  0.52577610  1
  O  O191  1  0.32571141  0.88072045  0.85583946  1
  O  O192  1  0.66443937  0.37096495  0.18802358  1
  O  O193  1  0.65392539  0.37327490  0.52774147  1
  O  O194  1  0.66038338  0.36714302  0.85744422  1
  O  O195  1  0.66561911  0.87923679  0.18090525  1
  O  O196  1  0.66925729  0.87686530  0.52212162  1
  O  O197  1  0.66084697  0.88634427  0.85914587  1
  O  O198  1  -0.00654438  0.12204605  0.16049913  1
  O  O199  1  0.00959213  0.12987516  0.47532512  1
  O  O200  1  0.00108914  0.12648285  0.81659704  1
  O  O201  1  0.00800127  0.62705405  0.15367992  1
  O  O202  1  0.00799123  0.62070525  0.48014751  1
  O  O203  1  0.00805450  0.62171746  0.80871939  1
  O  O204  1  0.33488623  0.12450752  0.14310516  1
  O  O205  1  0.32848742  0.12714837  0.47295748  1
  O  O206  1  0.33466908  0.12606412  0.80309765  1
  O  O207  1  0.32364866  0.62493804  0.14445130  1
  O  O208  1  0.33393286  0.62221423  0.49209746  1
  O  O209  1  0.32921504  0.61927083  0.80359732  1
  O  O210  1  0.66716783  0.12458032  0.14250150  1
  O  O211  1  0.66557030  0.12933980  0.47507877  1
  O  O212  1  0.67591312  0.12546949  0.80088005  1
  O  O213  1  0.66822148  0.62406373  0.16333121  1
  O  O214  1  0.66061386  0.61955986  0.47703506  1
  O  O215  1  0.66702764  0.61875228  0.80677925  1
  O  O216  1  0.07918338  0.01776995  0.26395557  1
  O  O217  1  0.08433364  0.02299829  0.58754225  1
  O  O218  1  0.08899303  0.01601328  0.91460667  1
  O  O219  1  0.07570106  0.51823387  0.26307107  1
  O  O220  1  0.07787579  0.52413050  0.59493102  1
  O  O221  1  0.08344592  0.52015991  0.92072790  1
  O  O222  1  0.41747581  0.02346486  0.24690029  1
  O  O223  1  0.41065628  0.02385095  0.58229675  1
  O  O224  1  0.41334926  0.02776549  0.91541073  1
  O  O225  1  0.41083082  0.50459413  0.25287441  1
  O  O226  1  0.40233150  0.51136079  0.59644979  1
  O  O227  1  0.40318432  0.51035998  0.92215249  1
  O  O228  1  0.74519720  0.02132381  0.25291592  1
  O  O229  1  0.73902288  0.01554833  0.59603158  1
  O  O230  1  0.74572626  0.02722415  0.91729048  1
  O  O231  1  0.74232599  0.50721191  0.26269168  1
  O  O232  1  0.73009333  0.51253264  0.59687957  1
  O  O233  1  0.74500592  0.49898161  0.91745760  1
  O  O234  1  0.25232074  0.23743511  0.25389018  1
  O  O235  1  0.24851543  0.23053871  0.58145904  1
  O  O236  1  0.25405493  0.22727513  0.91060423  1
  O  O237  1  0.23718668  0.73907444  0.23754888  1
  O  O238  1  0.23797438  0.73236043  0.57324001  1
  O  O239  1  0.24185311  0.73142650  0.90590673  1
  O  O240  1  0.58095928  0.22432593  0.24414945  1
  O  O241  1  0.57656680  0.22599909  0.57336676  1
  O  O242  1  0.58180157  0.22525832  0.90716119  1
  O  O243  1  0.58174163  0.74023148  0.25135740  1
  O  O244  1  0.57427895  0.73014572  0.57529644  1
  O  O245  1  0.57618922  0.75043668  0.90664389  1
  O  O246  1  0.91469129  0.23304991  0.25187591  1
  O  O247  1  0.91825614  0.24560634  0.58501060  1
  O  O248  1  0.90684460  0.23711326  0.91090439  1
  O  O249  1  0.91442033  0.73373076  0.25039489  1
  O  O250  1  0.91538039  0.73785822  0.58575224  1
  O  O251  1  0.91718679  0.75050960  0.91720496  1
  O  O252  1  0.09446285  0.48943372  0.09644290  1
  O  O253  1  0.09224527  0.47946048  0.42677146  1
  O  O254  1  0.09340121  0.47761577  0.75629931  1
  O  O255  1  0.08756712  0.98044197  0.08251916  1
  O  O256  1  0.09659921  0.98989364  0.42865389  1
  O  O257  1  0.09675233  0.98938737  0.75668556  1
  O  O258  1  0.41164851  0.48871336  0.07845886  1
  O  O259  1  0.42800387  0.48784126  0.42913641  1
  O  O260  1  0.42234986  0.47075676  0.75650346  1
  O  O261  1  0.41138682  0.99015241  0.07604353  1
  O  O262  1  0.41035779  0.99474106  0.41087317  1
  O  O263  1  0.42196828  0.98198091  0.75575222  1
  O  O264  1  0.74663223  0.48789792  0.08372733  1
  O  O265  1  0.75368638  0.47429480  0.43048086  1
  O  O266  1  0.75583849  0.47133646  0.75670052  1
  O  O267  1  0.74748611  0.98447500  0.07942874  1
  O  O268  1  0.75553101  0.98440271  0.42614035  1
  O  O269  1  0.75654175  0.97513833  0.75808900  1
  O  O270  1  0.25044594  0.27050516  0.08045853  1
  O  O271  1  0.25220698  0.27263136  0.41750547  1
  O  O272  1  0.25337705  0.27373010  0.74522193  1
  O  O273  1  0.25272809  0.77499104  0.07379083  1
  O  O274  1  0.25709902  0.77449367  0.40961697  1
  O  O275  1  0.26092613  0.77175766  0.73916661  1
  O  O276  1  0.58633600  0.26339955  0.07285638  1
  O  O277  1  0.59254965  0.26934437  0.41162401  1
  O  O278  1  0.59020205  0.26960228  0.74420693  1
  O  O279  1  0.58530991  0.76560894  0.07183385  1
  O  O280  1  0.59192887  0.75818729  0.41101149  1
  O  O281  1  0.59374410  0.76853912  0.74046295  1
  O  O282  1  0.91414991  0.25359388  0.08768091  1
  O  O283  1  0.92556758  0.27039315  0.41848400  1
  O  O284  1  0.91901381  0.27163991  0.74866301  1
  O  O285  1  0.92583074  0.76476896  0.07801609  1
  O  O286  1  0.91941310  0.75510724  0.41810049  1
  O  O287  1  0.92121694  0.76261099  0.75287943  1
  O  O288  1  0.25336928  0.47864439  0.07542725  1
  O  O289  1  0.25433981  0.47791895  0.41282485  1
  O  O290  1  0.25668800  0.47117268  0.74105503  1
  O  O291  1  0.24882799  0.97661231  0.07997254  1
  O  O292  1  0.25240897  0.97486945  0.41630749  1
  O  O293  1  0.25888020  0.98054453  0.74355267  1
  O  O294  1  0.58477371  0.48357851  0.07388964  1
  O  O295  1  0.59184519  0.47588057  0.41284925  1
  O  O296  1  0.58931472  0.47564930  0.73889853  1
  O  O297  1  0.58837399  0.98669163  0.06862643  1
  O  O298  1  0.59045337  0.99569402  0.40735818  1
  O  O299  1  0.59383667  0.98303454  0.74461615  1
  O  O300  1  0.92016141  0.49604618  0.08565807  1
  O  O301  1  0.92409829  0.47930976  0.41716452  1
  O  O302  1  0.92377450  0.48113073  0.74740141  1
  O  O303  1  0.92117338  0.98160462  0.07350818  1
  O  O304  1  0.92001400  0.99624270  0.41802484  1
  O  O305  1  0.91531691  0.98633128  0.75407405  1
  O  O306  1  0.08777051  0.26250787  0.09331318  1
  O  O307  1  0.09138214  0.27274844  0.42360830  1
  O  O308  1  0.08848879  0.26848830  0.74816195  1
  O  O309  1  0.09216379  0.76610059  0.08814708  1
  O  O310  1  0.09718954  0.76146728  0.43103233  1
  O  O311  1  0.09947720  0.76472569  0.76320012  1
  O  O312  1  0.40960279  0.25915937  0.07570867  1
  O  O313  1  0.42314492  0.26199335  0.42518094  1
  O  O314  1  0.42013004  0.27190003  0.75316510  1
  O  O315  1  0.41289990  0.76292691  0.07920491  1
  O  O316  1  0.41860781  0.75655326  0.42224074  1
  O  O317  1  0.42399194  0.77404717  0.75760264  1
  O  O318  1  0.74310201  0.26307696  0.07880980  1
  O  O319  1  0.75376773  0.27538929  0.42663654  1
  O  O320  1  0.75711329  0.27512968  0.75904856  1
  O  O321  1  0.75018497  0.76223932  0.08290583  1
  O  O322  1  0.75669653  0.76593600  0.43021876  1
  O  O323  1  0.75710543  0.77730129  0.75486933  1
  O  O324  1  0.25669054  0.01398046  0.25743164  1
  O  O325  1  0.24614684  0.02614928  0.57903924  1
  O  O326  1  0.25131138  0.02097552  0.91070295  1
  O  O327  1  0.23629617  0.51060535  0.23800684  1
  O  O328  1  0.23871927  0.51411638  0.57581176  1
  O  O329  1  0.24531595  0.52129686  0.90790773  1
  O  O330  1  0.57971891  0.02478949  0.24277454  1
  O  O331  1  0.57899447  0.02440648  0.57522446  1
  O  O332  1  0.58058825  0.02789870  0.90518661  1
  O  O333  1  0.58401185  0.50918589  0.25440102  1
  O  O334  1  0.56946858  0.51720332  0.57075253  1
  O  O335  1  0.57675873  0.49862045  0.90709936  1
  O  O336  1  0.90944330  0.01750967  0.24998100  1
  O  O337  1  0.91559367  0.01065524  0.58528936  1
  O  O338  1  0.90679762  0.01387378  0.91149084  1
  O  O339  1  0.91725725  0.51512226  0.25305315  1
  O  O340  1  0.91644677  0.50728455  0.58413368  1
  O  O341  1  0.91482751  0.50259287  0.91382846  1
  O  O342  1  0.07494750  0.23390456  0.26582039  1
  O  O343  1  0.08615106  0.22750477  0.58475776  1
  O  O344  1  0.09134654  0.23830357  0.91048059  1
  O  O345  1  0.07875733  0.72996079  0.25910383  1
  O  O346  1  0.07752952  0.72537914  0.59501322  1
  O  O347  1  0.08020568  0.72745289  0.92406692  1
  O  O348  1  0.41488722  0.22858465  0.24761911  1
  O  O349  1  0.41026503  0.22382772  0.58465100  1
  O  O350  1  0.41639167  0.22546642  0.91403709  1
  O  O351  1  0.40899163  0.74716337  0.25414604  1
  O  O352  1  0.40328205  0.73896120  0.59307452  1
  O  O353  1  0.40180630  0.73731766  0.92319207  1
  O  O354  1  0.74400329  0.23074622  0.25030497  1
  O  O355  1  0.73760499  0.23809738  0.59530901  1
  O  O356  1  0.74575369  0.22348064  0.91686189  1
  O  O357  1  0.74413314  0.73893883  0.26150641  1
  O  O358  1  0.73272346  0.73412735  0.59687136  1
  O  O359  1  0.74613442  0.74936418  0.91718992  1
