# generated using pymatgen
data_Ba17Sr5La8Pr42Mn72O216
_symmetry_space_group_name_H-M   'P 1'
_cell_length_a   16.67522980
_cell_length_b   15.70505826
_cell_length_c   16.81855841
_cell_angle_alpha   89.99957594
_cell_angle_beta   89.99790737
_cell_angle_gamma   90.00208556
_symmetry_Int_Tables_number   1
_chemical_formula_structural   Ba17Sr5La8Pr42Mn72O216
_chemical_formula_sum   'Ba17 Sr5 La8 Pr42 Mn72 O216'
_cell_volume   4404.53582469
_cell_formula_units_Z   1
loop_
 _symmetry_equiv_pos_site_id
 _symmetry_equiv_pos_as_xyz
  1  'x, y, z'
loop_
 _atom_site_type_symbol
 _atom_site_label
 _atom_site_symmetry_multiplicity
 _atom_site_fract_x
 _atom_site_fract_y
 _atom_site_fract_z
 _atom_site_occupancy
  Ba  Ba0  1  0.83117712  0.37804731  0.49730877  1
  Ba  Ba1  1  0.00088211  0.12357135  0.32872235  1
  Ba  Ba2  1  0.83223023  0.12757531  0.16612250  1
  Ba  Ba3  1  0.49997918  0.12421566  0.50370782  1
  Ba  Ba4  1  0.66909733  0.12416332  0.66618688  1
  Ba  Ba5  1  0.33451363  0.37734733  0.33693047  1
  Ba  Ba6  1  0.16814139  0.37586246  0.49675066  1
  Ba  Ba7  1  0.16765213  0.37575043  0.83099491  1
  Ba  Ba8  1  0.50073737  0.12456108  0.83653266  1
  Ba  Ba9  1  0.66400820  0.12523669  0.33160700  1
  Ba  Ba10  1  0.33361702  0.87502310  0.00432555  1
  Ba  Ba11  1  -0.00403247  0.12521494  0.99732466  1
  Ba  Ba12  1  0.16719256  0.87431471  0.83105585  1
  Ba  Ba13  1  0.49843018  0.62593453  0.17059389  1
  Ba  Ba14  1  0.33270842  0.37489341  0.00339810  1
  Ba  Ba15  1  0.16480471  0.62541907  0.83377360  1
  Ba  Ba16  1  -0.00020680  0.87371629  0.33300458  1
  Sr  Sr17  1  0.83061543  0.37276885  0.16691681  1
  Sr  Sr18  1  0.83221096  0.12579814  0.83564003  1
  Sr  Sr19  1  0.16685956  0.62608760  0.16317999  1
  Sr  Sr20  1  0.83296739  0.62490591  0.83506981  1
  Sr  Sr21  1  0.49603899  0.12493876  0.17161205  1
  La  La22  1  -0.00086452  0.37652239  0.66704458  1
  La  La23  1  0.16594418  0.12540940  0.83462603  1
  La  La24  1  0.83448529  0.87595983  0.83229857  1
  La  La25  1  0.67003911  0.87832358  0.66773898  1
  La  La26  1  0.16422812  0.37529358  0.16271277  1
  La  La27  1  0.83604545  0.62403924  0.16597282  1
  La  La28  1  0.66822383  0.62534146  0.66217621  1
  La  La29  1  -0.00391952  0.37777386  -0.00084819  1
  Pr  Pr30  1  0.49532650  0.62591560  0.50542637  1
  Pr  Pr31  1  0.66311496  0.62346151  0.99382734  1
  Pr  Pr32  1  0.49431902  0.62637726  0.84150014  1
  Pr  Pr33  1  -0.00533051  0.37317510  0.33381826  1
  Pr  Pr34  1  0.32286175  0.62663192  0.66889486  1
  Pr  Pr35  1  0.67077182  0.37031324  0.66792144  1
  Pr  Pr36  1  0.17209072  0.87390916  0.49422251  1
  Pr  Pr37  1  0.67007574  0.62316129  0.32839125  1
  Pr  Pr38  1  0.34049182  0.87100528  0.33490249  1
  Pr  Pr39  1  0.00011305  0.87206701  0.66766121  1
  Pr  Pr40  1  0.66727003  0.12708317  0.99460973  1
  Pr  Pr41  1  0.32586774  0.62322501  0.33396832  1
  Pr  Pr42  1  0.84282379  0.62625373  0.50196889  1
  Pr  Pr43  1  0.50497667  0.37621437  0.83297636  1
  Pr  Pr44  1  0.32680833  0.12537747  1.00039120  1
  Pr  Pr45  1  0.33126161  0.12627933  0.33369241  1
  Pr  Pr46  1  0.50945857  0.87775207  0.50252294  1
  Pr  Pr47  1  0.16807155  0.12440751  0.16672283  1
  Pr  Pr48  1  0.00456764  0.12625657  0.66292866  1
  Pr  Pr49  1  0.83008863  0.87492034  0.49560938  1
  Pr  Pr50  1  0.66706307  0.37341419  -0.00095977  1
  Pr  Pr51  1  0.33964702  0.37363924  0.67396721  1
  Pr  Pr52  1  0.50425109  0.37424481  0.16619540  1
  Pr  Pr53  1  0.66691529  0.87626039  0.33062283  1
  Pr  Pr54  1  0.50377631  0.37267492  0.50172717  1
  Pr  Pr55  1  0.50660283  0.87537808  0.83571145  1
  Pr  Pr56  1  0.50784460  0.87537898  0.16607983  1
  Pr  Pr57  1  -0.00098672  0.62409586  0.99495100  1
  Pr  Pr58  1  -0.00235548  0.87097931  0.00220417  1
  Pr  Pr59  1  0.66759044  0.87699948  -0.00006318  1
  Pr  Pr60  1  0.83892267  0.12368125  0.50139559  1
  Pr  Pr61  1  0.83375882  0.37326249  0.82835107  1
  Pr  Pr62  1  0.34372851  0.87466610  0.67579732  1
  Pr  Pr63  1  0.16421207  0.62369290  0.49832505  1
  Pr  Pr64  1  0.00703157  0.62316136  0.66664918  1
  Pr  Pr65  1  0.83297607  0.88045941  0.16429647  1
  Pr  Pr66  1  0.32842556  0.12251222  0.66541405  1
  Pr  Pr67  1  0.66240617  0.37255579  0.33163323  1
  Pr  Pr68  1  0.16317533  0.87571943  0.16023779  1
  Pr  Pr69  1  0.16712070  0.12525451  0.49610737  1
  Pr  Pr70  1  0.32275413  0.62461904  1.00019249  1
  Pr  Pr71  1  0.00540235  0.62218422  0.32961693  1
  Mn  Mn72  1  -0.00027810  -0.00133300  0.16450261  1
  Mn  Mn73  1  0.00206445  -0.00076080  0.50084898  1
  Mn  Mn74  1  -0.00119124  -0.00101044  0.83018291  1
  Mn  Mn75  1  -0.00117109  0.50097709  0.16556362  1
  Mn  Mn76  1  0.00042165  0.50068479  0.49755420  1
  Mn  Mn77  1  -0.00300923  0.50068940  0.83291794  1
  Mn  Mn78  1  0.33286645  -0.00099031  0.17057334  1
  Mn  Mn79  1  0.33367287  -0.00425891  0.50200655  1
  Mn  Mn80  1  0.33490797  -0.00030311  0.83527926  1
  Mn  Mn81  1  0.33201320  0.50110707  0.16894795  1
  Mn  Mn82  1  0.33560763  0.50341656  0.50443912  1
  Mn  Mn83  1  0.33628339  0.50092543  0.83574268  1
  Mn  Mn84  1  0.66551489  -0.00002622  0.16520627  1
  Mn  Mn85  1  0.67007112  -0.00106053  0.49964924  1
  Mn  Mn86  1  0.66808672  -0.00112726  0.83457667  1
  Mn  Mn87  1  0.66790912  0.50104847  0.16394976  1
  Mn  Mn88  1  0.66477643  0.50269849  0.49706410  1
  Mn  Mn89  1  0.66622784  0.50144473  0.82986618  1
  Mn  Mn90  1  -0.00036523  0.25255959  0.16535615  1
  Mn  Mn91  1  0.00077517  0.24971915  0.49750940  1
  Mn  Mn92  1  -0.00133818  0.25037024  0.83002720  1
  Mn  Mn93  1  -0.00174455  0.74824566  0.16609260  1
  Mn  Mn94  1  0.00153998  0.75060696  0.50034070  1
  Mn  Mn95  1  -0.00284864  0.75012787  0.83344166  1
  Mn  Mn96  1  0.33280785  0.24989035  0.16912371  1
  Mn  Mn97  1  0.33371843  0.24904674  0.50301789  1
  Mn  Mn98  1  0.33559281  0.24888165  0.83496038  1
  Mn  Mn99  1  0.33141537  0.74915038  0.17011681  1
  Mn  Mn100  1  0.33516342  0.75116524  0.50366663  1
  Mn  Mn101  1  0.33533505  0.75115212  0.83660981  1
  Mn  Mn102  1  0.66480274  0.25175085  0.16491381  1
  Mn  Mn103  1  0.66852007  0.25104828  0.49966599  1
  Mn  Mn104  1  0.66769074  0.25088332  0.83402398  1
  Mn  Mn105  1  0.66900585  0.74849808  0.16462894  1
  Mn  Mn106  1  0.66706515  0.74792767  0.49674374  1
  Mn  Mn107  1  0.66684718  0.74887259  0.83110522  1
  Mn  Mn108  1  0.16339784  0.25005422  -0.00074727  1
  Mn  Mn109  1  0.16693894  0.24970368  0.33024451  1
  Mn  Mn110  1  0.16869039  0.24933579  0.66412695  1
  Mn  Mn111  1  0.16374340  0.75051084  0.00072766  1
  Mn  Mn112  1  0.16839507  0.75072383  0.33082738  1
  Mn  Mn113  1  0.16660852  0.75065920  0.66174469  1
  Mn  Mn114  1  0.49983922  0.24932914  0.00384865  1
  Mn  Mn115  1  0.49796292  0.25026672  0.33428644  1
  Mn  Mn116  1  0.49972478  0.25094842  0.66843720  1
  Mn  Mn117  1  0.50001793  0.74935460  0.00331916  1
  Mn  Mn118  1  0.50145813  0.74992790  0.33825814  1
  Mn  Mn119  1  0.50250118  0.74787753  0.67095086  1
  Mn  Mn120  1  0.83188037  0.25247142  -0.00248139  1
  Mn  Mn121  1  0.83206032  0.25185980  0.33262032  1
  Mn  Mn122  1  0.83597044  0.24914193  0.66538703  1
  Mn  Mn123  1  0.83030352  0.74855762  -0.00017647  1
  Mn  Mn124  1  0.83255464  0.74809709  0.33243944  1
  Mn  Mn125  1  0.83479080  0.74781434  0.66581803  1
  Mn  Mn126  1  0.16367331  -0.00035227  -0.00136878  1
  Mn  Mn127  1  0.17013186  -0.00335871  0.33068009  1
  Mn  Mn128  1  0.16681832  -0.00146038  0.66240410  1
  Mn  Mn129  1  0.16386738  0.49931809  0.00052031  1
  Mn  Mn130  1  0.16542804  0.50121942  0.32971586  1
  Mn  Mn131  1  0.16867361  0.49927318  0.66384407  1
  Mn  Mn132  1  0.50033284  0.00120829  0.00508624  1
  Mn  Mn133  1  0.49836635  -0.00215671  0.33451815  1
  Mn  Mn134  1  0.50042365  -0.00127196  0.66897125  1
  Mn  Mn135  1  0.49930097  0.50038948  0.00192443  1
  Mn  Mn136  1  0.50124612  0.50196004  0.33771992  1
  Mn  Mn137  1  0.50172420  0.50377461  0.67022151  1
  Mn  Mn138  1  0.83215889  -0.00047967  -0.00297755  1
  Mn  Mn139  1  0.83228735  -0.00161353  0.33250249  1
  Mn  Mn140  1  0.83796167  -0.00107134  0.66576373  1
  Mn  Mn141  1  0.83021575  0.50052885  -0.00092355  1
  Mn  Mn142  1  0.83234587  0.50213110  0.33177309  1
  Mn  Mn143  1  0.83315806  0.50280075  0.66654188  1
  O  O144  1  0.16836708  0.12418617  0.01997167  1
  O  O145  1  0.16996954  0.11893310  0.35328830  1
  O  O146  1  0.16771742  0.12308225  0.68963572  1
  O  O147  1  0.16127008  0.62544932  0.01307217  1
  O  O148  1  0.16131349  0.62772565  0.35509018  1
  O  O149  1  0.16577733  0.62534989  0.67881502  1
  O  O150  1  0.51444342  0.12574962  0.02271612  1
  O  O151  1  0.49168075  0.12013430  0.34736447  1
  O  O152  1  0.49690689  0.12399785  0.67811040  1
  O  O153  1  0.51472865  0.62417496  0.01488825  1
  O  O154  1  0.51049137  0.62769243  0.36205959  1
  O  O155  1  0.51427792  0.62671608  0.69850801  1
  O  O156  1  0.82487649  0.12585260  0.00869352  1
  O  O157  1  0.83155677  0.12232502  0.35514753  1
  O  O158  1  0.84336761  0.12369455  0.68551076  1
  O  O159  1  0.82975939  0.62489132  0.02402303  1
  O  O160  1  0.82508780  0.62682048  0.35865182  1
  O  O161  1  0.82786020  0.62572007  0.68704700  1
  O  O162  1  0.16373330  0.37970532  0.30923182  1
  O  O163  1  0.17351381  0.37560498  0.65364355  1
  O  O164  1  0.16110555  0.37473896  0.98930786  1
  O  O165  1  0.17810346  0.87257237  0.30581690  1
  O  O166  1  0.15773980  0.87384430  0.63707902  1
  O  O167  1  0.15901127  0.87547696  0.98891276  1
  O  O168  1  0.50348770  0.37959585  0.31147510  1
  O  O169  1  0.49008591  0.38199151  0.64555419  1
  O  O170  1  0.50139098  0.37766595  0.97676285  1
  O  O171  1  0.49653255  0.87226665  0.31060630  1
  O  O172  1  0.49400754  0.86958227  0.64611999  1
  O  O173  1  0.50236896  0.87270312  0.97906020  1
  O  O174  1  0.84071202  0.38215217  0.31724541  1
  O  O175  1  0.83106048  0.37860532  0.65271481  1
  O  O176  1  0.82901775  0.37945909  0.97245547  1
  O  O177  1  0.82816729  0.86919255  0.30982478  1
  O  O178  1  0.83734600  0.86990360  0.63808081  1
  O  O179  1  0.83101231  0.87043105  0.97537179  1
  O  O180  1  0.00646670  0.38113251  0.19073184  1
  O  O181  1  0.00019926  0.37701833  0.52182327  1
  O  O182  1  -0.00565836  0.37804096  0.85151278  1
  O  O183  1  -0.00194781  0.87146316  0.17643855  1
  O  O184  1  0.00157324  0.87297866  0.52452425  1
  O  O185  1  -0.00425286  0.87306178  0.85596401  1
  O  O186  1  0.32507897  0.37576903  0.18018604  1
  O  O187  1  0.33746824  0.38203825  0.52892419  1
  O  O188  1  0.34298088  0.37741055  0.84453968  1
  O  O189  1  0.32181010  0.87364615  0.19096024  1
  O  O190  1  0.32248675  0.87176227  0.53283098  1
  O  O191  1  0.33978365  0.87472147  0.84581782  1
  O  O192  1  0.66139254  0.37998958  0.18760093  1
  O  O193  1  0.66339991  0.38203469  0.52528133  1
  O  O194  1  0.67021561  0.37866942  0.85390943  1
  O  O195  1  0.66772560  0.87044496  0.18710205  1
  O  O196  1  0.67354893  0.87040917  0.52391753  1
  O  O197  1  0.67032788  0.87227269  0.85508299  1
  O  O198  1  0.00736374  0.12288124  0.15465206  1
  O  O199  1  -0.00127367  0.12351949  0.48518255  1
  O  O200  1  -0.00113706  0.12319454  0.80717108  1
  O  O201  1  -0.00788903  0.62514552  0.13788407  1
  O  O202  1  0.00247929  0.62737724  0.47445731  1
  O  O203  1  -0.00541195  0.62555228  0.81086238  1
  O  O204  1  0.33469437  0.12299157  0.14511139  1
  O  O205  1  0.33292252  0.11580056  0.47747359  1
  O  O206  1  0.32940470  0.12163078  0.81064260  1
  O  O207  1  0.33410025  0.62674357  0.14391993  1
  O  O208  1  0.34436244  0.62961056  0.47758174  1
  O  O209  1  0.34124015  0.62729535  0.81372117  1
  O  O210  1  0.66240248  0.12537901  0.14161929  1
  O  O211  1  0.67370255  0.12081044  0.49026787  1
  O  O212  1  0.66890397  0.12371970  0.82499699  1
  O  O213  1  0.67203781  0.62565522  0.13690740  1
  O  O214  1  0.65527015  0.62709244  0.47077714  1
  O  O215  1  0.65901373  0.62561665  0.80563544  1
  O  O216  1  0.09288046  0.00448431  0.23930579  1
  O  O217  1  0.08575102  0.02404350  0.58093850  1
  O  O218  1  0.08566510  0.01624836  0.90548476  1
  O  O219  1  0.08172256  0.52318845  0.24546324  1
  O  O220  1  0.08386450  0.52005942  0.57585758  1
  O  O221  1  0.07478680  0.51148261  0.92094214  1
  O  O222  1  0.40464326  0.00784766  0.26538509  1
  O  O223  1  0.40517494  0.00810237  0.59512288  1
  O  O224  1  0.41201137  0.01947856  0.93481223  1
  O  O225  1  0.41265306  0.51987358  0.26608719  1
  O  O226  1  0.41434122  0.53054164  0.59805535  1
  O  O227  1  0.41263031  0.52571788  0.92585891  1
  O  O228  1  0.74562068  0.00383776  0.24671430  1
  O  O229  1  0.76367341  0.00987582  0.57573979  1
  O  O230  1  0.74463384  0.01044719  0.92057032  1
  O  O231  1  0.75467419  0.52217515  0.24247388  1
  O  O232  1  0.74971331  0.52683237  0.57484231  1
  O  O233  1  0.74212846  0.52219439  0.91538756  1
  O  O234  1  0.25055236  0.22546942  0.25018478  1
  O  O235  1  0.24838180  0.22350742  0.58097473  1
  O  O236  1  0.24825192  0.22978875  0.91676732  1
  O  O237  1  0.24998755  0.72498471  0.25244172  1
  O  O238  1  0.24522974  0.72567587  0.57369238  1
  O  O239  1  0.25143702  0.73653759  0.92053198  1
  O  O240  1  0.57771525  0.24493819  0.24397069  1
  O  O241  1  0.58248636  0.25212311  0.58583620  1
  O  O242  1  0.58663357  0.24314716  0.92168258  1
  O  O243  1  0.59151512  0.73812500  0.25436559  1
  O  O244  1  0.58136766  0.73183105  0.58217626  1
  O  O245  1  0.57848040  0.73500102  0.91031157  1
  O  O246  1  0.92027621  0.24881892  0.25007192  1
  O  O247  1  0.92209835  0.23115535  0.58562241  1
  O  O248  1  0.91139398  0.24541777  0.91018833  1
  O  O249  1  0.91783404  0.72477986  0.25367780  1
  O  O250  1  0.92097761  0.72455089  0.58944574  1
  O  O251  1  0.91428601  0.73090646  0.92213821  1
  O  O252  1  0.07783027  0.48225295  0.08214516  1
  O  O253  1  0.07524544  0.48692143  0.40554298  1
  O  O254  1  0.07692489  0.48896314  0.73960789  1
  O  O255  1  0.07733429  0.97940457  0.07757625  1
  O  O256  1  0.09319331  0.98260912  0.42105297  1
  O  O257  1  0.07752438  0.98432906  0.73872406  1
  O  O258  1  0.42230996  0.48516153  0.09467104  1
  O  O259  1  0.42705301  0.48930977  0.43496887  1
  O  O260  1  0.43019659  0.48756715  0.76227085  1
  O  O261  1  0.42521975  0.98249588  0.10049039  1
  O  O262  1  0.42069532  0.96899236  0.42770720  1
  O  O263  1  0.42447105  0.97937232  0.75770199  1
  O  O264  1  0.74557515  0.48021832  0.07739005  1
  O  O265  1  0.73956886  0.48823767  0.40219775  1
  O  O266  1  0.74804823  0.48177232  0.74806839  1
  O  O267  1  0.75003610  0.97778080  0.08144061  1
  O  O268  1  0.74808168  0.97504095  0.41469357  1
  O  O269  1  0.75348580  0.97811725  0.74700933  1
  O  O270  1  0.24294918  0.25621872  0.09028280  1
  O  O271  1  0.25030682  0.25183818  0.41649061  1
  O  O272  1  0.25878370  0.25939940  0.74146683  1
  O  O273  1  0.24182247  0.76067964  0.08790545  1
  O  O274  1  0.25880662  0.76721795  0.41341846  1
  O  O275  1  0.25788438  0.76239230  0.73472555  1
  O  O276  1  0.58389310  0.27807350  0.08164179  1
  O  O277  1  0.58322424  0.27033310  0.41555959  1
  O  O278  1  0.58612025  0.27375571  0.74992793  1
  O  O279  1  0.58733027  0.77189238  0.08043989  1
  O  O280  1  0.58550065  0.77966880  0.41806000  1
  O  O281  1  0.58842403  0.77802337  0.74585659  1
  O  O282  1  0.91495320  0.27011764  0.07845280  1
  O  O283  1  0.91733305  0.26275832  0.41656054  1
  O  O284  1  0.91694478  0.27367537  0.74698099  1
  O  O285  1  0.91099576  0.76966157  0.08509510  1
  O  O286  1  0.90977288  0.76205465  0.42802518  1
  O  O287  1  0.91549792  0.77169203  0.75221510  1
  O  O288  1  0.24272825  0.49367091  0.08560997  1
  O  O289  1  0.25020638  0.50277860  0.41728066  1
  O  O290  1  0.26524581  0.49206535  0.74269772  1
  O  O291  1  0.24314012  0.98990057  0.09104766  1
  O  O292  1  0.25743833  0.97359234  0.41357453  1
  O  O293  1  0.25608084  0.98373961  0.73444566  1
  O  O294  1  0.58461057  0.47823202  0.07994674  1
  O  O295  1  0.58280604  0.47324309  0.41881041  1
  O  O296  1  0.58913878  0.47165395  0.74291269  1
  O  O297  1  0.58699253  0.97358824  0.08136848  1
  O  O298  1  0.58533111  0.97768182  0.41445538  1
  O  O299  1  0.58678556  0.97704576  0.75193355  1
  O  O300  1  0.91577087  0.48137331  0.08460195  1
  O  O301  1  0.91668673  0.49552545  0.41676632  1
  O  O302  1  0.91476653  0.48091985  0.75190974  1
  O  O303  1  0.91399365  0.97902184  0.07875163  1
  O  O304  1  0.91057604  0.98428906  0.42825630  1
  O  O305  1  0.91727462  0.97162870  0.74761005  1
  O  O306  1  0.07675091  0.27073494  0.07768441  1
  O  O307  1  0.07802147  0.26573017  0.40648871  1
  O  O308  1  0.07791969  0.26219495  0.73770691  1
  O  O309  1  0.07823763  0.76674183  0.08221113  1
  O  O310  1  0.09406871  0.76689070  0.42159702  1
  O  O311  1  0.07788350  0.76197356  0.74073946  1
  O  O312  1  0.42375397  0.26414850  0.09577716  1
  O  O313  1  0.42202728  0.26665295  0.43017409  1
  O  O314  1  0.42510842  0.27012997  0.75667470  1
  O  O315  1  0.42303086  0.76777908  0.09740136  1
  O  O316  1  0.42409738  0.77372345  0.43351708  1
  O  O317  1  0.42840198  0.76651407  0.76107960  1
  O  O318  1  0.74380899  0.26834926  0.07736587  1
  O  O319  1  0.74394336  0.26762382  0.41039668  1
  O  O320  1  0.75181307  0.26829589  0.74958862  1
  O  O321  1  0.75022174  0.77453274  0.08229422  1
  O  O322  1  0.74604756  0.77063850  0.41083996  1
  O  O323  1  0.75051376  0.76983420  0.74491476  1
  O  O324  1  0.25054093  0.02641092  0.24997662  1
  O  O325  1  0.24415085  0.02215975  0.57485261  1
  O  O326  1  0.24829084  0.01984403  0.91619892  1
  O  O327  1  0.24943773  0.52121190  0.25194053  1
  O  O328  1  0.25041150  0.52646481  0.57995463  1
  O  O329  1  0.25209456  0.51400293  0.91927052  1
  O  O330  1  0.57591310  0.00295565  0.24461817  1
  O  O331  1  0.58550296  -0.00294423  0.58397570  1
  O  O332  1  0.58445439  0.00598835  0.92148977  1
  O  O333  1  0.59206777  0.51603187  0.25565933  1
  O  O334  1  0.57917629  0.52418108  0.58273101  1
  O  O335  1  0.57834781  0.51575499  0.90728860  1
  O  O336  1  0.91487219  0.00210391  0.24593021  1
  O  O337  1  0.92421499  0.01819646  0.58903325  1
  O  O338  1  0.91057405  0.00665765  0.90997493  1
  O  O339  1  0.91974973  0.52399597  0.25258328  1
  O  O340  1  0.92094479  0.52350614  0.58602982  1
  O  O341  1  0.91488660  0.51919364  0.92055114  1
  O  O342  1  0.09387300  0.23999903  0.23804110  1
  O  O343  1  0.08728729  0.22949161  0.57785825  1
  O  O344  1  0.08572030  0.23530911  0.90581083  1
  O  O345  1  0.07965288  0.73269583  0.24928784  1
  O  O346  1  0.08263004  0.72624534  0.58191210  1
  O  O347  1  0.07418158  0.73740091  0.92183484  1
  O  O348  1  0.40956520  0.23516502  0.25946751  1
  O  O349  1  0.40650045  0.23829954  0.59837596  1
  O  O350  1  0.41118114  0.23020295  0.93080609  1
  O  O351  1  0.40894854  0.73545674  0.26932462  1
  O  O352  1  0.41280926  0.72683392  0.59720280  1
  O  O353  1  0.41422457  0.72552414  0.92980846  1
  O  O354  1  0.74658645  0.24889053  0.24808074  1
  O  O355  1  0.75855939  0.23639277  0.57957569  1
  O  O356  1  0.74594973  0.23947427  0.91785608  1
  O  O357  1  0.75214029  0.72548233  0.24421378  1
  O  O358  1  0.75185704  0.72569223  0.57381218  1
  O  O359  1  0.74322552  0.72911071  0.91923101  1
