# generated using pymatgen
data_Ba17Sr5La8Pr42Mn72O216
_symmetry_space_group_name_H-M   'P 1'
_cell_length_a   16.67912292
_cell_length_b   15.70994120
_cell_length_c   16.81902143
_cell_angle_alpha   89.99377795
_cell_angle_beta   90.05170575
_cell_angle_gamma   89.97554635
_symmetry_Int_Tables_number   1
_chemical_formula_structural   Ba17Sr5La8Pr42Mn72O216
_chemical_formula_sum   'Ba17 Sr5 La8 Pr42 Mn72 O216'
_cell_volume   4407.05300319
_cell_formula_units_Z   1
loop_
 _symmetry_equiv_pos_site_id
 _symmetry_equiv_pos_as_xyz
  1  'x, y, z'
loop_
 _atom_site_type_symbol
 _atom_site_label
 _atom_site_symmetry_multiplicity
 _atom_site_fract_x
 _atom_site_fract_y
 _atom_site_fract_z
 _atom_site_occupancy
  Ba  Ba0  1  -0.00138102  0.87657225  0.00076581  1
  Ba  Ba1  1  0.66368514  0.37588892  0.66746232  1
  Ba  Ba2  1  0.16512126  0.12556259  0.83198373  1
  Ba  Ba3  1  0.83482681  0.37232486  0.16667115  1
  Ba  Ba4  1  0.83151455  0.87396906  0.83192076  1
  Ba  Ba5  1  0.49813667  0.37454542  0.49962353  1
  Ba  Ba6  1  0.66702809  0.37357663  0.00212286  1
  Ba  Ba7  1  0.49933424  0.12347450  0.83518046  1
  Ba  Ba8  1  0.66648114  0.87678468  0.33750232  1
  Ba  Ba9  1  0.83216385  0.37671835  0.83117450  1
  Ba  Ba10  1  0.33384989  0.12453527  0.66548905  1
  Ba  Ba11  1  0.00150489  0.62556969  1.00008610  1
  Ba  Ba12  1  0.16786139  0.62362744  0.16744878  1
  Ba  Ba13  1  -0.00145706  0.12573506  0.66303156  1
  Ba  Ba14  1  0.83557494  0.62458819  0.83369614  1
  Ba  Ba15  1  0.50366864  0.62560226  0.16765683  1
  Ba  Ba16  1  0.33626307  0.62483141  0.99920864  1
  Sr  Sr17  1  0.32807053  0.87201998  0.33395023  1
  Sr  Sr18  1  0.16745238  0.37540926  0.16535842  1
  Sr  Sr19  1  0.00615546  0.37694104  0.33206113  1
  Sr  Sr20  1  -0.00011213  0.37470838  0.66590397  1
  Sr  Sr21  1  0.66179612  0.87374475  0.67073125  1
  La  La22  1  0.32827964  0.87735247  0.66606036  1
  La  La23  1  0.66896523  0.12396638  0.66966754  1
  La  La24  1  0.66655028  0.37677663  0.34014170  1
  La  La25  1  0.48961869  0.87555600  0.49779664  1
  La  La26  1  0.67356132  0.62538442  0.33138588  1
  La  La27  1  0.83187601  0.12722021  0.82940071  1
  La  La28  1  0.83753595  0.37267248  0.49411851  1
  La  La29  1  0.49795547  0.37565578  0.16779385  1
  Pr  Pr30  1  0.67371490  0.62391100  1.00068758  1
  Pr  Pr31  1  -0.00419856  0.62411957  0.66606929  1
  Pr  Pr32  1  0.67536552  0.62565435  0.66911515  1
  Pr  Pr33  1  0.16773127  0.12648451  0.50739400  1
  Pr  Pr34  1  0.83032806  0.12404960  0.50280797  1
  Pr  Pr35  1  0.32725180  0.38024189  0.33508406  1
  Pr  Pr36  1  0.83633701  0.87632737  0.49753156  1
  Pr  Pr37  1  0.33243387  0.12656941  0.99106817  1
  Pr  Pr38  1  0.32836306  0.87763491  0.00053452  1
  Pr  Pr39  1  0.34251883  0.62510600  0.32433938  1
  Pr  Pr40  1  0.50804372  0.12027854  0.50862949  1
  Pr  Pr41  1  0.83579982  0.12399403  0.16531284  1
  Pr  Pr42  1  0.83593835  0.62629966  0.49928153  1
  Pr  Pr43  1  0.50340407  0.12325880  0.16764288  1
  Pr  Pr44  1  0.16844213  0.62373103  0.84178871  1
  Pr  Pr45  1  0.50910464  0.62791983  0.50104009  1
  Pr  Pr46  1  0.16262200  0.37650393  0.83310416  1
  Pr  Pr47  1  0.66965458  0.12501152  0.33600004  1
  Pr  Pr48  1  0.16328528  0.87183570  0.83258095  1
  Pr  Pr49  1  0.49298690  0.87327618  0.83277931  1
  Pr  Pr50  1  0.49529146  0.37624749  0.82721945  1
  Pr  Pr51  1  0.33669204  0.62544734  0.66494349  1
  Pr  Pr52  1  0.83704856  0.62371946  0.16572833  1
  Pr  Pr53  1  -0.00058110  0.87506068  0.67152145  1
  Pr  Pr54  1  0.33367975  0.37347011  -0.00227583  1
  Pr  Pr55  1  0.16375114  0.88005652  0.49847358  1
  Pr  Pr56  1  0.33566213  0.12647842  0.33139537  1
  Pr  Pr57  1  0.50974117  0.62595052  0.84028094  1
  Pr  Pr58  1  0.16496939  0.36973395  0.49771905  1
  Pr  Pr59  1  0.16658662  0.87288567  0.16374471  1
  Pr  Pr60  1  0.82820105  0.87522173  0.15903049  1
  Pr  Pr61  1  0.32877403  0.37359313  0.66747798  1
  Pr  Pr62  1  -0.00591012  0.12779047  0.99316084  1
  Pr  Pr63  1  0.48885924  0.87276408  0.16806119  1
  Pr  Pr64  1  0.00131206  0.37667590  0.00201566  1
  Pr  Pr65  1  0.16779132  0.62391752  0.50077326  1
  Pr  Pr66  1  0.16463417  0.12502543  0.16644332  1
  Pr  Pr67  1  0.67409828  0.12628554  0.99880161  1
  Pr  Pr68  1  0.00150609  0.62262032  0.32478589  1
  Pr  Pr69  1  -0.00047251  0.12930182  0.33347559  1
  Pr  Pr70  1  0.66002741  0.87668183  0.00584441  1
  Pr  Pr71  1  0.00330759  0.87353209  0.33142980  1
  Mn  Mn72  1  0.00033219  0.00278811  0.16801250  1
  Mn  Mn73  1  -0.00048550  -0.00217140  0.49712613  1
  Mn  Mn74  1  -0.00036824  0.00067162  0.83260302  1
  Mn  Mn75  1  0.00154953  0.49742136  0.16687682  1
  Mn  Mn76  1  0.00159189  0.50152546  0.49793657  1
  Mn  Mn77  1  0.00215812  0.49846994  0.83126037  1
  Mn  Mn78  1  0.33197825  0.00232123  0.16587120  1
  Mn  Mn79  1  0.33165117  -0.00080965  0.49613846  1
  Mn  Mn80  1  0.33176091  -0.00157262  0.83432321  1
  Mn  Mn81  1  0.33415137  0.49686468  0.16668301  1
  Mn  Mn82  1  0.33239522  0.50362547  0.49867163  1
  Mn  Mn83  1  0.33333397  0.50039948  0.82983589  1
  Mn  Mn84  1  0.66462387  0.00116740  0.16931379  1
  Mn  Mn85  1  0.66779244  -0.00378578  0.50350003  1
  Mn  Mn86  1  0.66472293  -0.00124167  0.83568071  1
  Mn  Mn87  1  0.66825587  0.49996320  0.16961892  1
  Mn  Mn88  1  0.66815901  0.50301014  0.50021889  1
  Mn  Mn89  1  0.66470997  0.50036829  0.83471909  1
  Mn  Mn90  1  0.00313225  0.24872563  0.16481632  1
  Mn  Mn91  1  0.00002150  0.25178403  0.49627430  1
  Mn  Mn92  1  -0.00092275  0.25040083  0.83219143  1
  Mn  Mn93  1  -0.00069169  0.75113203  0.16864079  1
  Mn  Mn94  1  0.00215428  0.74933017  0.49814221  1
  Mn  Mn95  1  0.00198581  0.75052377  0.83127925  1
  Mn  Mn96  1  0.33358951  0.24817915  0.16443419  1
  Mn  Mn97  1  0.33359516  0.25073866  0.49656318  1
  Mn  Mn98  1  0.33206801  0.25156536  0.83297177  1
  Mn  Mn99  1  0.33239350  0.75151380  0.16834320  1
  Mn  Mn100  1  0.33127088  0.74678372  0.49802715  1
  Mn  Mn101  1  0.33284446  0.75053280  0.83028014  1
  Mn  Mn102  1  0.66524405  0.24561988  0.17048867  1
  Mn  Mn103  1  0.66857007  0.24870734  0.50082212  1
  Mn  Mn104  1  0.66365130  0.24904423  0.83413261  1
  Mn  Mn105  1  0.66702243  0.75231112  0.16884876  1
  Mn  Mn106  1  0.66776867  0.75177173  0.50265155  1
  Mn  Mn107  1  0.66499326  0.75221848  0.83594978  1
  Mn  Mn108  1  0.16706389  0.25043170  0.00218918  1
  Mn  Mn109  1  0.16788919  0.24812461  0.33315789  1
  Mn  Mn110  1  0.16563637  0.25288605  0.66484781  1
  Mn  Mn111  1  0.16785989  0.75066932  -0.00085061  1
  Mn  Mn112  1  0.16690935  0.75145040  0.33604007  1
  Mn  Mn113  1  0.16660648  0.74678872  0.66628969  1
  Mn  Mn114  1  0.49912935  0.25051593  0.00234885  1
  Mn  Mn115  1  0.49997760  0.24622661  0.33396536  1
  Mn  Mn116  1  0.49864199  0.24961558  0.66577897  1
  Mn  Mn117  1  0.50071341  0.75105736  0.00051784  1
  Mn  Mn118  1  0.50011477  0.75314101  0.33604325  1
  Mn  Mn119  1  0.49821465  0.74865398  0.66813475  1
  Mn  Mn120  1  0.83442245  0.24982779  -0.00047396  1
  Mn  Mn121  1  0.83517589  0.24753346  0.33285010  1
  Mn  Mn122  1  0.83291150  0.25068983  0.66462461  1
  Mn  Mn123  1  0.83126403  0.75180418  -0.00015633  1
  Mn  Mn124  1  0.83685855  0.75243260  0.33222549  1
  Mn  Mn125  1  0.83336158  0.74968246  0.66319789  1
  Mn  Mn126  1  0.16659614  0.00077409  0.00193247  1
  Mn  Mn127  1  0.16698255  0.00270265  0.33330636  1
  Mn  Mn128  1  0.16582516  -0.00156706  0.66429892  1
  Mn  Mn129  1  0.16824662  0.49773331  -0.00011524  1
  Mn  Mn130  1  0.16684046  0.49933454  0.33633449  1
  Mn  Mn131  1  0.16647095  0.50228319  0.66731511  1
  Mn  Mn132  1  0.49852873  -0.00071887  0.00394820  1
  Mn  Mn133  1  0.49765409  0.00143777  0.33614887  1
  Mn  Mn134  1  0.50060716  -0.00342715  0.66712241  1
  Mn  Mn135  1  0.50162878  0.49871276  -0.00052872  1
  Mn  Mn136  1  0.50177625  0.49932689  0.33478895  1
  Mn  Mn137  1  0.49704698  0.50439640  0.66763970  1
  Mn  Mn138  1  0.83102054  0.00027341  -0.00087288  1
  Mn  Mn139  1  0.83702408  0.00030986  0.33206029  1
  Mn  Mn140  1  0.83137755  -0.00193047  0.66479031  1
  Mn  Mn141  1  0.83479811  0.49912692  0.00090261  1
  Mn  Mn142  1  0.83516443  0.49984135  0.33323229  1
  Mn  Mn143  1  0.83478409  0.50095546  0.66286521  1
  O  O144  1  0.17768798  0.12516900  0.02215829  1
  O  O145  1  0.17000026  0.12445487  0.36359214  1
  O  O146  1  0.16773160  0.12375534  0.67140464  1
  O  O147  1  0.16933373  0.62409743  0.00584899  1
  O  O148  1  0.15866473  0.62484898  0.35744962  1
  O  O149  1  0.17154478  0.62527403  0.69761883  1
  O  O150  1  0.48731139  0.12334300  0.02559692  1
  O  O151  1  0.49114215  0.12404907  0.36472857  1
  O  O152  1  0.50485969  0.12076232  0.67516898  1
  O  O153  1  0.50382002  0.62614552  0.01197664  1
  O  O154  1  0.49417928  0.62909517  0.35390836  1
  O  O155  1  0.48765939  0.62811347  0.69604671  1
  O  O156  1  0.83703143  0.12423135  0.02010570  1
  O  O157  1  0.84245725  0.12166383  0.36022418  1
  O  O158  1  0.83127347  0.12187325  0.68257643  1
  O  O159  1  0.82789785  0.62819089  0.02013855  1
  O  O160  1  0.84251649  0.62729116  0.35529423  1
  O  O161  1  0.83605958  0.62631933  0.67671261  1
  O  O162  1  0.17208971  0.37065392  0.31434397  1
  O  O163  1  0.17026245  0.38153758  0.63950882  1
  O  O164  1  0.16077150  0.37380880  0.97959481  1
  O  O165  1  0.16306410  0.88097497  0.30591319  1
  O  O166  1  0.16325746  0.86954640  0.64005853  1
  O  O167  1  0.17152495  0.87655758  0.98018984  1
  O  O168  1  0.50867968  0.36775062  0.31324587  1
  O  O169  1  0.49229421  0.37851251  0.65580228  1
  O  O170  1  0.49736038  0.37503275  0.97299756  1
  O  O171  1  0.49897749  0.87961418  0.31244725  1
  O  O172  1  0.49718994  0.87115298  0.64174914  1
  O  O173  1  0.50604945  0.87474576  0.97691617  1
  O  O174  1  0.82058795  0.37267765  0.32345146  1
  O  O175  1  0.83334420  0.38002043  0.64046052  1
  O  O176  1  0.83914610  0.37104570  0.99126349  1
  O  O177  1  0.83963583  0.87898927  0.30251877  1
  O  O178  1  0.83789936  0.87187866  0.64184905  1
  O  O179  1  0.82272627  0.87778034  0.99136451  1
  O  O180  1  0.00333280  0.36961488  0.18124254  1
  O  O181  1  0.00049952  0.37890615  0.51696770  1
  O  O182  1  0.00700987  0.37260186  0.85528166  1
  O  O183  1  -0.00073066  0.87974665  0.18864262  1
  O  O184  1  0.00319761  0.87081970  0.52806100  1
  O  O185  1  0.00800250  0.87699970  0.84135558  1
  O  O186  1  0.33631436  0.36897915  0.19294618  1
  O  O187  1  0.33013469  0.38086763  0.52349348  1
  O  O188  1  0.34225128  0.37631381  0.85147792  1
  O  O189  1  0.33069962  0.87889097  0.18687125  1
  O  O190  1  0.33457951  0.86889982  0.52282865  1
  O  O191  1  0.33723925  0.87421720  0.85474053  1
  O  O192  1  0.66442633  0.36488147  0.19570059  1
  O  O193  1  0.67728030  0.37605411  0.50685267  1
  O  O194  1  0.65669901  0.37507569  0.84341269  1
  O  O195  1  0.67883491  0.87893167  0.18282166  1
  O  O196  1  0.68133748  0.87456744  0.52120603  1
  O  O197  1  0.66122993  0.87610240  0.86068289  1
  O  O198  1  0.00278936  0.12330263  0.13849205  1
  O  O199  1  -0.00039610  0.12283710  0.47651420  1
  O  O200  1  -0.00584345  0.12417682  0.82196388  1
  O  O201  1  -0.00494202  0.62591883  0.15954764  1
  O  O202  1  0.00201266  0.62766537  0.46799862  1
  O  O203  1  0.01202247  0.62491947  0.81186461  1
  O  O204  1  0.33204354  0.12508678  0.13468430  1
  O  O205  1  0.32279063  0.12498816  0.47584115  1
  O  O206  1  0.33128738  0.12446770  0.82555742  1
  O  O207  1  0.33476413  0.62504191  0.16019169  1
  O  O208  1  0.32122721  0.62570682  0.46767125  1
  O  O209  1  0.32251166  0.62627226  0.80859354  1
  O  O210  1  0.65574371  0.12232531  0.14271875  1
  O  O211  1  0.66331645  0.12063750  0.48067193  1
  O  O212  1  0.66668442  0.12179971  0.81457904  1
  O  O213  1  0.66930059  0.63278196  0.14602364  1
  O  O214  1  0.66264132  0.62894712  0.47628122  1
  O  O215  1  0.65677288  0.62788565  0.81489789  1
  O  O216  1  0.08429799  0.02821262  0.25463781  1
  O  O217  1  0.08816645  0.01163991  0.57307724  1
  O  O218  1  0.08115483  0.01654431  0.92708488  1
  O  O219  1  0.08132510  0.51041523  0.25670524  1
  O  O220  1  0.08536020  0.52830430  0.58538768  1
  O  O221  1  0.09238074  0.50929648  0.90802767  1
  O  O222  1  0.41749792  0.02425194  0.24369594  1
  O  O223  1  0.42345493  0.01027476  0.57171611  1
  O  O224  1  0.41467830  0.00784997  0.92300310  1
  O  O225  1  0.42237660  0.50476862  0.24911322  1
  O  O226  1  0.41912523  0.52969174  0.57392574  1
  O  O227  1  0.42577542  0.51435884  0.89913663  1
  O  O228  1  0.75412325  0.02646780  0.24754469  1
  O  O229  1  0.75036411  0.02249746  0.58208337  1
  O  O230  1  0.75276421  0.02360688  0.91362137  1
  O  O231  1  0.75498911  0.52461593  0.24972685  1
  O  O232  1  0.75219731  0.52471838  0.57751693  1
  O  O233  1  0.74777408  0.51292944  0.91954718  1
  O  O234  1  0.25163920  0.22318727  0.24852342  1
  O  O235  1  0.24708154  0.24172944  0.57593073  1
  O  O236  1  0.25064181  0.24525563  0.91820680  1
  O  O237  1  0.25360126  0.73652464  0.26116276  1
  O  O238  1  0.25245025  0.72565623  0.58692435  1
  O  O239  1  0.25231370  0.74161036  0.91043130  1
  O  O240  1  0.58367161  0.21879312  0.25577447  1
  O  O241  1  0.58567320  0.23292098  0.58216271  1
  O  O242  1  0.58718577  0.23010646  0.93011950  1
  O  O243  1  0.59335008  0.73692509  0.26189124  1
  O  O244  1  0.58476994  0.72544720  0.59635607  1
  O  O245  1  0.59033682  0.73308436  0.92731321  1
  O  O246  1  0.91618866  0.22561593  0.24305983  1
  O  O247  1  0.90755179  0.23979822  0.56742071  1
  O  O248  1  0.91214910  0.23104727  0.91097720  1
  O  O249  1  0.91945763  0.73205843  0.25372849  1
  O  O250  1  0.91867711  0.72770005  0.57480862  1
  O  O251  1  0.91890754  0.74539138  0.91633269  1
  O  O252  1  0.08235051  0.48272952  0.07953809  1
  O  O253  1  0.08740388  0.48100508  0.42156129  1
  O  O254  1  0.08555194  0.47916905  0.74856813  1
  O  O255  1  0.09138442  0.98653018  0.09476980  1
  O  O256  1  0.08038123  0.97749018  0.41373629  1
  O  O257  1  0.08526329  0.98081781  0.74544963  1
  O  O258  1  0.41533271  0.47710749  0.07560286  1
  O  O259  1  0.40674305  0.48783537  0.40722679  1
  O  O260  1  0.40265920  0.48595869  0.73591035  1
  O  O261  1  0.41280270  0.97403388  0.08262884  1
  O  O262  1  0.40934533  0.98156617  0.41195216  1
  O  O263  1  0.41357745  0.97817175  0.74604045  1
  O  O264  1  0.74918260  0.49711807  0.08647269  1
  O  O265  1  0.74847740  0.49318375  0.41175564  1
  O  O266  1  0.74115031  0.49925608  0.74626779  1
  O  O267  1  0.74068034  0.99150249  0.07672827  1
  O  O268  1  0.75763858  0.98981674  0.42102421  1
  O  O269  1  0.74470359  0.99016689  0.74343679  1
  O  O270  1  0.25574550  0.27084960  0.07879988  1
  O  O271  1  0.25077129  0.27269650  0.41489957  1
  O  O272  1  0.24876179  0.27401440  0.74981686  1
  O  O273  1  0.24910457  0.77080879  0.08574329  1
  O  O274  1  0.24136499  0.77030968  0.42564580  1
  O  O275  1  0.24630726  0.77605590  0.74972798  1
  O  O276  1  0.57357960  0.26219182  0.09525784  1
  O  O277  1  0.59278822  0.25819203  0.41249810  1
  O  O278  1  0.57504218  0.26095408  0.75639716  1
  O  O279  1  0.57898486  0.77705733  0.09431144  1
  O  O280  1  0.57378497  0.76653642  0.43233475  1
  O  O281  1  0.57075821  0.76678348  0.76349785  1
  O  O282  1  0.92964004  0.25866605  0.07111309  1
  O  O283  1  0.92318253  0.26730816  0.40731242  1
  O  O284  1  0.91676992  0.26147610  0.74214282  1
  O  O285  1  0.90561688  0.76282307  0.09348485  1
  O  O286  1  0.91969745  0.77761864  0.41430019  1
  O  O287  1  0.92401721  0.75980562  0.73936483  1
  O  O288  1  0.25135379  0.47936014  0.08114152  1
  O  O289  1  0.24464212  0.47770324  0.42416058  1
  O  O290  1  0.24636119  0.47440147  0.75152244  1
  O  O291  1  0.24879158  0.97742997  0.08600177  1
  O  O292  1  0.24407250  0.97862448  0.41822899  1
  O  O293  1  0.24678907  0.97623063  0.75014534  1
  O  O294  1  0.57848976  0.48173123  0.09556974  1
  O  O295  1  0.58159968  0.49308436  0.42130261  1
  O  O296  1  0.56736495  0.49272397  0.76317851  1
  O  O297  1  0.57221768  0.97849940  0.09723680  1
  O  O298  1  0.57541699  0.98531500  0.43231558  1
  O  O299  1  0.57640349  0.97840134  0.75965782  1
  O  O300  1  0.92092264  0.48910385  0.08214257  1
  O  O301  1  0.91412857  0.48187458  0.41619524  1
  O  O302  1  0.92239253  0.49320228  0.74213007  1
  O  O303  1  0.90444291  0.98891993  0.09258136  1
  O  O304  1  0.92027319  0.97212723  0.41274011  1
  O  O305  1  0.91775638  0.98476531  0.74038060  1
  O  O306  1  0.09214600  0.26057283  0.09057641  1
  O  O307  1  0.08718706  0.26464622  0.41833338  1
  O  O308  1  0.08589487  0.26795310  0.75419878  1
  O  O309  1  0.08443801  0.76545861  0.09108250  1
  O  O310  1  0.08399322  0.77726686  0.41863356  1
  O  O311  1  0.08388803  0.77048258  0.74437675  1
  O  O312  1  0.41547887  0.27584561  0.08322976  1
  O  O313  1  0.40787504  0.26649217  0.40377906  1
  O  O314  1  0.41097930  0.26789088  0.74780035  1
  O  O315  1  0.41380572  0.77340994  0.07720176  1
  O  O316  1  0.41233815  0.76574217  0.41526034  1
  O  O317  1  0.40685914  0.77213380  0.74007160  1
  O  O318  1  0.75116640  0.24690871  0.08745282  1
  O  O319  1  0.75682068  0.25487542  0.42277129  1
  O  O320  1  0.74832512  0.25093555  0.74917653  1
  O  O321  1  0.74228494  0.76905831  0.08089477  1
  O  O322  1  0.75966671  0.76171016  0.41651712  1
  O  O323  1  0.73956282  0.75790741  0.74536571  1
  O  O324  1  0.25072008  0.02752197  0.24923848  1
  O  O325  1  0.24930110  0.00611477  0.57900323  1
  O  O326  1  0.25368241  0.00953984  0.92442725  1
  O  O327  1  0.25775788  0.51227800  0.26426440  1
  O  O328  1  0.25320101  0.52672947  0.58700915  1
  O  O329  1  0.25263779  0.50475660  0.91303874  1
  O  O330  1  0.58625406  0.02499895  0.26089588  1
  O  O331  1  0.58931950  0.01288409  0.59118135  1
  O  O332  1  0.59124926  0.01593316  0.93596281  1
  O  O333  1  0.59580713  0.51218858  0.26341039  1
  O  O334  1  0.58567363  0.52557801  0.59176955  1
  O  O335  1  0.58935748  0.52093478  0.92468506  1
  O  O336  1  0.92116074  0.02809281  0.25188871  1
  O  O337  1  0.90915974  0.00985782  0.57024158  1
  O  O338  1  0.91472545  0.01681267  0.91927377  1
  O  O339  1  0.91702187  0.51539435  0.25108896  1
  O  O340  1  0.91947712  0.52461754  0.57659942  1
  O  O341  1  0.92303464  0.50326756  0.91711605  1
  O  O342  1  0.08358483  0.22406557  0.25344823  1
  O  O343  1  0.08503199  0.24041001  0.57608127  1
  O  O344  1  0.07573173  0.23594243  0.92920415  1
  O  O345  1  0.07933807  0.74093199  0.25908660  1
  O  O346  1  0.08516855  0.72101342  0.58331085  1
  O  O347  1  0.09232434  0.74150677  0.90664138  1
  O  O348  1  0.41897290  0.22342416  0.24353499  1
  O  O349  1  0.42080690  0.23299503  0.57184129  1
  O  O350  1  0.41148033  0.23898131  0.92287587  1
  O  O351  1  0.41878550  0.74357317  0.24919748  1
  O  O352  1  0.41839211  0.72507490  0.57550250  1
  O  O353  1  0.42528792  0.73863226  0.90166890  1
  O  O354  1  0.74997597  0.21977515  0.25439276  1
  O  O355  1  0.74794982  0.22714040  0.58404850  1
  O  O356  1  0.74977759  0.23006990  0.91716839  1
  O  O357  1  0.75743550  0.72947278  0.24551710  1
  O  O358  1  0.75212197  0.72611465  0.57997948  1
  O  O359  1  0.74696206  0.73451666  0.91976788  1
