# generated using pymatgen
data_Ba17Sr5La8Pr42Mn72O216
_symmetry_space_group_name_H-M   'P 1'
_cell_length_a   16.67311175
_cell_length_b   15.70480335
_cell_length_c   16.81782231
_cell_angle_alpha   89.99113028
_cell_angle_beta   90.01298518
_cell_angle_gamma   90.00196092
_symmetry_Int_Tables_number   1
_chemical_formula_structural   Ba17Sr5La8Pr42Mn72O216
_chemical_formula_sum   'Ba17 Sr5 La8 Pr42 Mn72 O216'
_cell_volume   4403.71198033
_cell_formula_units_Z   1
loop_
 _symmetry_equiv_pos_site_id
 _symmetry_equiv_pos_as_xyz
  1  'x, y, z'
loop_
 _atom_site_type_symbol
 _atom_site_label
 _atom_site_symmetry_multiplicity
 _atom_site_fract_x
 _atom_site_fract_y
 _atom_site_fract_z
 _atom_site_occupancy
  Ba  Ba0  1  0.16958012  0.62640548  0.16768618  1
  Ba  Ba1  1  0.16584087  0.37295007  0.83383726  1
  Ba  Ba2  1  0.50089794  0.12191708  0.49855243  1
  Ba  Ba3  1  0.50076255  0.37500032  0.83001861  1
  Ba  Ba4  1  -0.00336788  0.87641346  0.00149348  1
  Ba  Ba5  1  0.67174018  0.62559205  0.66564742  1
  Ba  Ba6  1  0.49828270  0.37423723  0.16275099  1
  Ba  Ba7  1  0.83449728  0.62738546  0.83551983  1
  Ba  Ba8  1  0.49815841  0.37515308  0.49592717  1
  Ba  Ba9  1  0.33232409  0.37653375  0.66657274  1
  Ba  Ba10  1  0.49690016  0.87399835  0.49486783  1
  Ba  Ba11  1  0.66404451  0.37452182  -0.00001304  1
  Ba  Ba12  1  0.66687880  0.37654075  0.66576913  1
  Ba  Ba13  1  0.17088902  0.12378188  0.83448220  1
  Ba  Ba14  1  0.00171652  0.62515188  1.00097532  1
  Ba  Ba15  1  -0.00305504  0.37420207  0.33608930  1
  Ba  Ba16  1  0.83272059  0.12341995  0.83558246  1
  Sr  Sr17  1  -0.00327494  0.37288711  0.00275883  1
  Sr  Sr18  1  0.49637092  0.87502291  0.16148912  1
  Sr  Sr19  1  0.67063484  0.62657149  0.33252433  1
  Sr  Sr20  1  0.15936945  0.87638537  0.49946836  1
  Sr  Sr21  1  0.83024332  0.87424359  0.83479453  1
  La  La22  1  0.82947253  0.87363374  0.16579751  1
  La  La23  1  0.83045309  0.37725248  0.16626234  1
  La  La24  1  0.33848192  0.62299746  0.66567493  1
  La  La25  1  0.66576221  0.12569450  0.99854894  1
  La  La26  1  0.66057120  0.87439680  0.33441079  1
  La  La27  1  0.16086197  0.87413604  0.16664622  1
  La  La28  1  0.82663772  0.37646438  0.49999962  1
  La  La29  1  0.33934975  0.12364881  0.99656124  1
  Pr  Pr30  1  0.50985246  0.62591030  0.49777034  1
  Pr  Pr31  1  0.32206036  0.87427612  0.33674616  1
  Pr  Pr32  1  0.00423888  0.62507755  0.33006128  1
  Pr  Pr33  1  0.16036642  0.37549478  0.16124352  1
  Pr  Pr34  1  0.00539027  0.12387787  0.33566310  1
  Pr  Pr35  1  0.66884943  0.62335620  0.99601114  1
  Pr  Pr36  1  0.17017711  0.12459300  0.50439822  1
  Pr  Pr37  1  0.83340501  0.37815462  0.83540479  1
  Pr  Pr38  1  0.17214325  0.62386052  0.84069398  1
  Pr  Pr39  1  0.33642955  0.13021708  0.66363029  1
  Pr  Pr40  1  -0.00680967  0.87235825  0.33680688  1
  Pr  Pr41  1  0.34280660  0.62715440  0.32631048  1
  Pr  Pr42  1  0.17070933  0.62557274  0.50002192  1
  Pr  Pr43  1  -0.00832793  0.87796321  0.67326508  1
  Pr  Pr44  1  0.16963298  0.12434217  0.16762107  1
  Pr  Pr45  1  0.00567726  0.12540400  0.99865151  1
  Pr  Pr46  1  0.83765142  0.62455625  0.16760988  1
  Pr  Pr47  1  0.50300995  0.12714791  0.82825350  1
  Pr  Pr48  1  0.32648748  0.87713267  0.66528342  1
  Pr  Pr49  1  0.50899428  0.62161448  0.83012146  1
  Pr  Pr50  1  0.01009403  0.12245278  0.66846921  1
  Pr  Pr51  1  0.66940918  0.12777430  0.66395582  1
  Pr  Pr52  1  0.66253285  0.37509600  0.33705069  1
  Pr  Pr53  1  0.83758565  0.12548090  0.17032813  1
  Pr  Pr54  1  0.66588236  0.87481785  -0.00027052  1
  Pr  Pr55  1  0.32831146  0.37438045  0.00023844  1
  Pr  Pr56  1  0.65864960  0.87554881  0.66976276  1
  Pr  Pr57  1  0.15708542  0.87537296  0.83027704  1
  Pr  Pr58  1  0.50883445  0.12429310  0.16647323  1
  Pr  Pr59  1  0.00731584  0.62785161  0.66918340  1
  Pr  Pr60  1  0.32403814  0.37597629  0.33577973  1
  Pr  Pr61  1  -0.00185863  0.37310838  0.67348780  1
  Pr  Pr62  1  0.82740332  0.87421980  0.50105134  1
  Pr  Pr63  1  0.16221670  0.37397936  0.50009619  1
  Pr  Pr64  1  0.34229115  0.12236219  0.32944958  1
  Pr  Pr65  1  0.49469461  0.87098550  0.82655717  1
  Pr  Pr66  1  0.50855149  0.62544488  0.16521712  1
  Pr  Pr67  1  0.34085804  0.62715283  0.99780368  1
  Pr  Pr68  1  0.32482863  0.87613479  0.00036715  1
  Pr  Pr69  1  0.84187654  0.62402282  0.50711225  1
  Pr  Pr70  1  0.83961706  0.12720520  0.50995944  1
  Pr  Pr71  1  0.66744431  0.12332914  0.33439435  1
  Mn  Mn72  1  -0.00104665  0.00215953  0.17051284  1
  Mn  Mn73  1  -0.00103678  -0.00177791  0.50110709  1
  Mn  Mn74  1  -0.00217959  0.00156362  0.83558155  1
  Mn  Mn75  1  -0.00012313  0.49944611  0.16895720  1
  Mn  Mn76  1  0.00158095  0.50124752  0.50323381  1
  Mn  Mn77  1  0.00142068  0.49872296  0.83478353  1
  Mn  Mn78  1  0.33275534  -0.00111040  0.16450414  1
  Mn  Mn79  1  0.33008726  -0.00156598  0.49839454  1
  Mn  Mn80  1  0.33539637  -0.00281891  0.83248248  1
  Mn  Mn81  1  0.33395878  0.50035396  0.16625920  1
  Mn  Mn82  1  0.33165524  0.50218954  0.49561399  1
  Mn  Mn83  1  0.33450760  0.50285829  0.83327308  1
  Mn  Mn84  1  0.66766404  -0.00129963  0.16644896  1
  Mn  Mn85  1  0.66974076  -0.00104086  0.49954168  1
  Mn  Mn86  1  0.66366340  -0.00146665  0.83349857  1
  Mn  Mn87  1  0.66831745  0.50270868  0.16777014  1
  Mn  Mn88  1  0.66838105  0.50201631  0.49627165  1
  Mn  Mn89  1  0.66859417  0.50026823  0.83306184  1
  Mn  Mn90  1  -0.00052536  0.24810275  0.16846631  1
  Mn  Mn91  1  -0.00022154  0.24918049  0.50376298  1
  Mn  Mn92  1  -0.00072837  0.24930816  0.83714446  1
  Mn  Mn93  1  -0.00078274  0.75078800  0.17062702  1
  Mn  Mn94  1  0.00068922  0.75120282  0.50133735  1
  Mn  Mn95  1  0.00003204  0.75167469  0.83298031  1
  Mn  Mn96  1  0.33169711  0.24768593  0.16594288  1
  Mn  Mn97  1  0.33125788  0.25044952  0.49634130  1
  Mn  Mn98  1  0.33537546  0.24789755  0.83228439  1
  Mn  Mn99  1  0.33511791  0.75308411  0.16519256  1
  Mn  Mn100  1  0.33057418  0.74866042  0.49698747  1
  Mn  Mn101  1  0.33316219  0.75187428  0.83211373  1
  Mn  Mn102  1  0.66909205  0.24770451  0.16819883  1
  Mn  Mn103  1  0.66828155  0.24878192  0.49759879  1
  Mn  Mn104  1  0.66804351  0.24815053  0.83220821  1
  Mn  Mn105  1  0.66706960  0.75111530  0.16604292  1
  Mn  Mn106  1  0.66951942  0.74995954  0.49794057  1
  Mn  Mn107  1  0.66520644  0.75185481  0.83456085  1
  Mn  Mn108  1  0.16732760  0.24976218  0.00296813  1
  Mn  Mn109  1  0.16664361  0.24732177  0.33377996  1
  Mn  Mn110  1  0.16641792  0.24907736  0.66560955  1
  Mn  Mn111  1  0.16874266  0.75142652  -0.00029152  1
  Mn  Mn112  1  0.16554114  0.75145504  0.33600697  1
  Mn  Mn113  1  0.16704451  0.75090585  0.66688909  1
  Mn  Mn114  1  0.49780861  0.24743948  -0.00143344  1
  Mn  Mn115  1  0.49993587  0.24850930  0.32889321  1
  Mn  Mn116  1  0.50055625  0.24895277  0.66430848  1
  Mn  Mn117  1  0.49986585  0.75258552  -0.00327721  1
  Mn  Mn118  1  0.50003656  0.75083283  0.32847256  1
  Mn  Mn119  1  0.49781717  0.74967328  0.66195718  1
  Mn  Mn120  1  0.83285986  0.24843420  0.00405803  1
  Mn  Mn121  1  0.83246729  0.24667243  0.33676872  1
  Mn  Mn122  1  0.83539269  0.24969837  0.66967367  1
  Mn  Mn123  1  0.83154361  0.75266028  0.00198699  1
  Mn  Mn124  1  0.83321856  0.75011922  0.33568949  1
  Mn  Mn125  1  0.83521858  0.75113289  0.66677103  1
  Mn  Mn126  1  0.16735082  -0.00058792  0.00159923  1
  Mn  Mn127  1  0.16505236  0.00136159  0.33497142  1
  Mn  Mn128  1  0.16774751  -0.00201589  0.66504027  1
  Mn  Mn129  1  0.16840081  0.50033001  0.00148935  1
  Mn  Mn130  1  0.16628758  0.49944828  0.33474976  1
  Mn  Mn131  1  0.16600534  0.50389274  0.66792094  1
  Mn  Mn132  1  0.49963255  -0.00181345  -0.00383867  1
  Mn  Mn133  1  0.49923846  -0.00136936  0.32809870  1
  Mn  Mn134  1  0.49830031  -0.00252160  0.66553419  1
  Mn  Mn135  1  0.49798756  0.50174003  -0.00092912  1
  Mn  Mn136  1  0.50036623  0.50168655  0.32915296  1
  Mn  Mn137  1  0.50098828  0.50237388  0.66371977  1
  Mn  Mn138  1  0.83106307  0.00014127  0.00391264  1
  Mn  Mn139  1  0.83380109  0.00042446  0.33630943  1
  Mn  Mn140  1  0.83204956  -0.00062148  0.66769152  1
  Mn  Mn141  1  0.83343734  0.49899896  0.00200556  1
  Mn  Mn142  1  0.83244170  0.50173566  0.33553674  1
  Mn  Mn143  1  0.83847854  0.50043766  0.66759908  1
  O  O144  1  0.16943490  0.12414934  0.02260556  1
  O  O145  1  0.15987579  0.12355336  0.36206452  1
  O  O146  1  0.16372680  0.12112769  0.67824961  1
  O  O147  1  0.17582056  0.62821751  0.00855477  1
  O  O148  1  0.15903760  0.62920705  0.35640434  1
  O  O149  1  0.16052087  0.63173932  0.69637357  1
  O  O150  1  0.49334358  0.11947679  0.02357294  1
  O  O151  1  0.49571227  0.12295503  0.34176410  1
  O  O152  1  0.49304006  0.11750668  0.68273544  1
  O  O153  1  0.49321755  0.63072833  0.02266726  1
  O  O154  1  0.49057524  0.62775058  0.35319465  1
  O  O155  1  0.49431592  0.63045617  0.68336683  1
  O  O156  1  0.82331805  0.12349601  0.02670368  1
  O  O157  1  0.83047710  0.12187591  0.36660048  1
  O  O158  1  0.81983124  0.12304030  0.67785126  1
  O  O159  1  0.82340289  0.62862365  0.02182125  1
  O  O160  1  0.83603412  0.63039176  0.36339977  1
  O  O161  1  0.83995993  0.62591723  0.67763591  1
  O  O162  1  0.17338442  0.36806040  0.30624095  1
  O  O163  1  0.15951860  0.37453482  0.64311038  1
  O  O164  1  0.17182373  0.37391744  0.99243013  1
  O  O165  1  0.16948357  0.87867605  0.30982910  1
  O  O166  1  0.17572688  0.87422891  0.64550774  1
  O  O167  1  0.17253355  0.87544808  0.97620150  1
  O  O168  1  0.50830502  0.37396423  0.31939994  1
  O  O169  1  0.49986151  0.37670114  0.65543090  1
  O  O170  1  0.49118267  0.37354164  0.98752901  1
  O  O171  1  0.50724046  0.87486113  0.31233880  1
  O  O172  1  0.50502458  0.87328269  0.65105967  1
  O  O173  1  0.50766098  0.87571560  0.96871776  1
  O  O174  1  0.82824183  0.36935791  0.30965931  1
  O  O175  1  0.84670589  0.37466863  0.64374514  1
  O  O176  1  0.83626341  0.37073650  0.98281876  1
  O  O177  1  0.84161326  0.87716622  0.30804823  1
  O  O178  1  0.84195847  0.87617429  0.64410935  1
  O  O179  1  0.82926222  0.87715862  0.98680779  1
  O  O180  1  0.00236531  0.37228626  0.17968124  1
  O  O181  1  0.00747041  0.37727326  0.52920181  1
  O  O182  1  -0.00316859  0.37199000  0.85106789  1
  O  O183  1  -0.00057842  0.87963982  0.19240002  1
  O  O184  1  -0.00191881  0.87531181  0.52935222  1
  O  O185  1  0.00465018  0.87756935  0.84290530  1
  O  O186  1  0.33040077  0.36923018  0.19260390  1
  O  O187  1  0.32782190  0.37648598  0.50932537  1
  O  O188  1  0.33658421  0.37833125  0.85396036  1
  O  O189  1  0.33449717  0.87672031  0.19297470  1
  O  O190  1  0.32959932  0.87116248  0.52084619  1
  O  O191  1  0.34388733  0.87299114  0.85870980  1
  O  O192  1  0.67240458  0.37337724  0.19271613  1
  O  O193  1  0.66845936  0.37568886  0.50566335  1
  O  O194  1  0.67226968  0.37602991  0.84234396  1
  O  O195  1  0.67062671  0.87562489  0.19301954  1
  O  O196  1  0.67157960  0.87471842  0.52368628  1
  O  O197  1  0.65404079  0.87589973  0.85581354  1
  O  O198  1  -0.00577427  0.12443815  0.14356458  1
  O  O199  1  -0.00500458  0.12039398  0.47728436  1
  O  O200  1  0.00028912  0.12465913  0.81369652  1
  O  O201  1  -0.00726724  0.62506972  0.16126138  1
  O  O202  1  -0.00467256  0.62808093  0.47351840  1
  O  O203  1  0.00720355  0.62743229  0.81385894  1
  O  O204  1  0.32171094  0.12210709  0.13918063  1
  O  O205  1  0.32340155  0.12523043  0.47491595  1
  O  O206  1  0.33870603  0.11607425  0.80792152  1
  O  O207  1  0.33677441  0.63115863  0.14215836  1
  O  O208  1  0.32037088  0.62600813  0.46889169  1
  O  O209  1  0.32188677  0.63295269  0.81131251  1
  O  O210  1  0.66887237  0.12057358  0.14291641  1
  O  O211  1  0.68130233  0.12225165  0.47946686  1
  O  O212  1  0.66400895  0.11859627  0.80809254  1
  O  O213  1  0.66892886  0.63038613  0.14127784  1
  O  O214  1  0.67676045  0.62680908  0.48248671  1
  O  O215  1  0.66520329  0.62803776  0.82443218  1
  O  O216  1  0.08693812  0.02482116  0.24919954  1
  O  O217  1  0.08658309  0.01862049  0.57613207  1
  O  O218  1  0.08368990  0.01395948  0.92147115  1
  O  O219  1  0.08350800  0.51161669  0.25495824  1
  O  O220  1  0.08880184  0.52900500  0.57992108  1
  O  O221  1  0.09284411  0.51392927  0.90852611  1
  O  O222  1  0.41935164  0.02214749  0.23606439  1
  O  O223  1  0.41187273  0.00942775  0.58523096  1
  O  O224  1  0.42436172  0.01923716  0.90684343  1
  O  O225  1  0.42455451  0.52270887  0.23825826  1
  O  O226  1  0.41848476  0.52460491  0.57001597  1
  O  O227  1  0.42118378  0.52883095  0.91016293  1
  O  O228  1  0.75621292  0.02160648  0.25112361  1
  O  O229  1  0.75998446  0.01184362  0.57428376  1
  O  O230  1  0.74247130  0.00848520  0.92134324  1
  O  O231  1  0.75636666  0.52120191  0.24540334  1
  O  O232  1  0.76446180  0.50802216  0.57360182  1
  O  O233  1  0.74688111  0.51157045  0.92206542  1
  O  O234  1  0.25413219  0.22128643  0.25619580  1
  O  O235  1  0.24889055  0.23077579  0.58149474  1
  O  O236  1  0.26016402  0.23840711  0.92768909  1
  O  O237  1  0.25896428  0.73898425  0.26190496  1
  O  O238  1  0.25502732  0.72656583  0.59228418  1
  O  O239  1  0.26355979  0.73715446  0.92276847  1
  O  O240  1  0.58827911  0.22636735  0.24937815  1
  O  O241  1  0.59075490  0.23119026  0.58453593  1
  O  O242  1  0.58241008  0.22782478  0.91571713  1
  O  O243  1  0.58660617  0.73053590  0.24732688  1
  O  O244  1  0.58579556  0.73540440  0.57722035  1
  O  O245  1  0.58368529  0.72619202  0.92025560  1
  O  O246  1  0.91895970  0.22425627  0.26035284  1
  O  O247  1  0.92475394  0.22555186  0.59579075  1
  O  O248  1  0.92135173  0.23084457  0.93108090  1
  O  O249  1  0.92186443  0.73301946  0.26423663  1
  O  O250  1  0.92721164  0.72997415  0.58795430  1
  O  O251  1  0.91743097  0.74473566  0.92057788  1
  O  O252  1  0.08299240  0.48703222  0.08493614  1
  O  O253  1  0.08361719  0.48558294  0.42318864  1
  O  O254  1  0.07398951  0.48698333  0.73926526  1
  O  O255  1  0.08362549  0.99019670  0.09175988  1
  O  O256  1  0.07278722  0.98133020  0.40809683  1
  O  O257  1  0.08106163  0.98262409  0.74083382  1
  O  O258  1  0.40430382  0.48866076  0.07001644  1
  O  O259  1  0.40506462  0.48873959  0.39861125  1
  O  O260  1  0.41261654  0.50318480  0.74702970  1
  O  O261  1  0.40908717  0.98041624  0.06925947  1
  O  O262  1  0.40528844  0.98674698  0.40278594  1
  O  O263  1  0.41112144  0.97303488  0.74595149  1
  O  O264  1  0.75146229  0.48643314  0.08872470  1
  O  O265  1  0.74521841  0.47951226  0.40857015  1
  O  O266  1  0.75806405  0.48652830  0.75267910  1
  O  O267  1  0.74541704  0.97638057  0.08394300  1
  O  O268  1  0.74843541  0.97243579  0.41103486  1
  O  O269  1  0.74014620  0.97748692  0.74194427  1
  O  O270  1  0.24316863  0.26957925  0.09396940  1
  O  O271  1  0.24353348  0.27116988  0.41857238  1
  O  O272  1  0.25025102  0.25328081  0.74678481  1
  O  O273  1  0.24771279  0.77540585  0.08919310  1
  O  O274  1  0.24105402  0.77042563  0.42284881  1
  O  O275  1  0.24338885  0.77572901  0.76187573  1
  O  O276  1  0.57892355  0.24890415  0.08252336  1
  O  O277  1  0.58817752  0.25377041  0.40947192  1
  O  O278  1  0.58457300  0.24566211  0.74577466  1
  O  O279  1  0.58171877  0.76954402  0.08142497  1
  O  O280  1  0.58253347  0.75716058  0.41201482  1
  O  O281  1  0.57671486  0.76521845  0.75516611  1
  O  O282  1  0.90970397  0.26211274  0.09465797  1
  O  O283  1  0.90748382  0.26385011  0.43231823  1
  O  O284  1  0.91298688  0.27007922  0.75674231  1
  O  O285  1  0.90621857  0.76090696  0.09732641  1
  O  O286  1  0.91063586  0.77468188  0.42530560  1
  O  O287  1  0.91588599  0.76775494  0.75019212  1
  O  O288  1  0.24684930  0.47892878  0.09245671  1
  O  O289  1  0.24093955  0.47858357  0.42235832  1
  O  O290  1  0.24491552  0.49687417  0.75501624  1
  O  O291  1  0.24518570  0.97540457  0.08972103  1
  O  O292  1  0.24274587  0.98108680  0.41870884  1
  O  O293  1  0.24814078  0.97501378  0.75609217  1
  O  O294  1  0.58006286  0.50027757  0.08472798  1
  O  O295  1  0.58131689  0.49688744  0.41153251  1
  O  O296  1  0.58371955  0.50075050  0.75230284  1
  O  O297  1  0.58094793  0.98243371  0.07900491  1
  O  O298  1  0.58938850  0.99081110  0.41406043  1
  O  O299  1  0.57538684  0.97991577  0.75491787  1
  O  O300  1  0.91028448  0.48877733  0.09301235  1
  O  O301  1  0.90774524  0.48488699  0.43182508  1
  O  O302  1  0.91644379  0.47850831  0.75408988  1
  O  O303  1  0.90640959  0.98915352  0.09981315  1
  O  O304  1  0.91158902  0.97580367  0.42376654  1
  O  O305  1  0.91292222  0.98667766  0.75040034  1
  O  O306  1  0.08414025  0.25873459  0.08629838  1
  O  O307  1  0.08412289  0.26363277  0.42030301  1
  O  O308  1  0.07580870  0.25936837  0.73973847  1
  O  O309  1  0.08490164  0.76457090  0.08645574  1
  O  O310  1  0.07385156  0.77125084  0.41248641  1
  O  O311  1  0.07789739  0.77395308  0.73893423  1
  O  O312  1  0.40248371  0.25956541  0.07132744  1
  O  O313  1  0.40572267  0.25981578  0.40094837  1
  O  O314  1  0.41710825  0.25051022  0.74670552  1
  O  O315  1  0.40984342  0.77257509  0.06789298  1
  O  O316  1  0.40380752  0.76496336  0.40015995  1
  O  O317  1  0.40266852  0.76893973  0.74021323  1
  O  O318  1  0.75342086  0.26494857  0.09248864  1
  O  O319  1  0.74696292  0.27040874  0.41146029  1
  O  O320  1  0.75567624  0.26437753  0.75166223  1
  O  O321  1  0.74485237  0.77429305  0.08273809  1
  O  O322  1  0.74653592  0.77706298  0.40983389  1
  O  O323  1  0.74307518  0.77183926  0.74572464  1
  O  O324  1  0.25185933  0.02145117  0.25612522  1
  O  O325  1  0.25302661  0.02035112  0.58777591  1
  O  O326  1  0.26327373  0.01067528  0.92396101  1
  O  O327  1  0.26208851  0.51465273  0.26134876  1
  O  O328  1  0.25089532  0.52420727  0.58698709  1
  O  O329  1  0.26087043  0.51615973  0.92502120  1
  O  O330  1  0.58877909  0.02105462  0.24918931  1
  O  O331  1  0.59585823  0.01314590  0.59347508  1
  O  O332  1  0.58293607  0.02737984  0.91742816  1
  O  O333  1  0.58672701  0.52131341  0.24935900  1
  O  O334  1  0.58395476  0.51764203  0.57517834  1
  O  O335  1  0.58297086  0.51980022  0.91959976  1
  O  O336  1  0.92214484  0.02539983  0.26090411  1
  O  O337  1  0.92324483  0.02252258  0.58981159  1
  O  O338  1  0.91961437  0.01850459  0.93147271  1
  O  O339  1  0.91792844  0.51942669  0.25919000  1
  O  O340  1  0.92855765  0.52231224  0.59154388  1
  O  O341  1  0.91760511  0.50487390  0.91904760  1
  O  O342  1  0.08690823  0.22454780  0.24965093  1
  O  O343  1  0.08614895  0.22564499  0.57919747  1
  O  O344  1  0.08297550  0.23460096  0.92283856  1
  O  O345  1  0.08379008  0.74197002  0.25475177  1
  O  O346  1  0.08962782  0.72717643  0.57634516  1
  O  O347  1  0.09607452  0.74180661  0.90365825  1
  O  O348  1  0.42046314  0.22423563  0.23715063  1
  O  O349  1  0.41265512  0.23473899  0.58109120  1
  O  O350  1  0.42177142  0.22461691  0.91200331  1
  O  O351  1  0.42470327  0.73064135  0.23858037  1
  O  O352  1  0.41855029  0.72504154  0.56919058  1
  O  O353  1  0.42377131  0.72931902  0.90080260  1
  O  O354  1  0.75332496  0.22067347  0.25408334  1
  O  O355  1  0.75781792  0.23856667  0.57848451  1
  O  O356  1  0.74664210  0.23482969  0.92433256  1
  O  O357  1  0.76040712  0.73367391  0.24476063  1
  O  O358  1  0.76498471  0.74120211  0.57280295  1
  O  O359  1  0.74327265  0.74417840  0.92302513  1
