# generated using pymatgen
data_Ba17Sr5La8Pr42Mn72O216
_symmetry_space_group_name_H-M   'P 1'
_cell_length_a   16.68220016
_cell_length_b   15.71033239
_cell_length_c   16.83049018
_cell_angle_alpha   89.99739261
_cell_angle_beta   90.00276904
_cell_angle_gamma   90.00627874
_symmetry_Int_Tables_number   1
_chemical_formula_structural   Ba17Sr5La8Pr42Mn72O216
_chemical_formula_sum   'Ba17 Sr5 La8 Pr42 Mn72 O216'
_cell_volume   4410.98379887
_cell_formula_units_Z   1
loop_
 _symmetry_equiv_pos_site_id
 _symmetry_equiv_pos_as_xyz
  1  'x, y, z'
loop_
 _atom_site_type_symbol
 _atom_site_label
 _atom_site_symmetry_multiplicity
 _atom_site_fract_x
 _atom_site_fract_y
 _atom_site_fract_z
 _atom_site_occupancy
  Ba  Ba0  1  -0.00032284  0.37619928  0.66836836  1
  Ba  Ba1  1  0.83618399  0.12450400  0.83529657  1
  Ba  Ba2  1  0.83387229  0.37175934  0.83366124  1
  Ba  Ba3  1  0.16528099  0.87538321  0.49692016  1
  Ba  Ba4  1  0.66746625  0.37330697  0.00167829  1
  Ba  Ba5  1  0.33193556  0.87488743  -0.00033289  1
  Ba  Ba6  1  0.49940559  0.87659022  0.16698736  1
  Ba  Ba7  1  0.33089844  0.37554296  0.33652254  1
  Ba  Ba8  1  0.49983151  0.87635016  0.83189146  1
  Ba  Ba9  1  0.66414019  0.62362440  0.66620211  1
  Ba  Ba10  1  0.33422834  0.62438207  0.99962210  1
  Ba  Ba11  1  0.16574443  0.87673620  0.83182394  1
  Ba  Ba12  1  0.50055910  0.62522317  0.16526129  1
  Ba  Ba13  1  0.00177781  0.62328508  0.66448445  1
  Ba  Ba14  1  0.66732473  0.87519802  0.00132372  1
  Ba  Ba15  1  0.66874948  0.62531802  1.00001574  1
  Ba  Ba16  1  0.50019467  0.87590108  0.49739203  1
  Sr  Sr17  1  0.17046378  0.12841414  0.83442771  1
  Sr  Sr18  1  0.66522664  0.87426071  0.33351842  1
  Sr  Sr19  1  -0.00138843  0.87703197  -0.00029190  1
  Sr  Sr20  1  0.33351958  0.87318978  0.33450168  1
  Sr  Sr21  1  0.16616982  0.37477731  0.83236917  1
  La  La22  1  0.66730341  0.12064946  0.33434450  1
  La  La23  1  0.83066835  0.37740453  0.50337017  1
  La  La24  1  0.00505913  0.12491107  0.33074289  1
  La  La25  1  0.66647516  0.37297570  0.67338372  1
  La  La26  1  0.16964956  0.62197037  0.83354429  1
  La  La27  1  0.83506952  0.12427635  0.16856630  1
  La  La28  1  0.33658970  0.12138391  0.33285366  1
  La  La29  1  0.16299227  0.87444009  0.16072479  1
  Pr  Pr30  1  0.15640015  0.37659770  0.16311240  1
  Pr  Pr31  1  0.50176279  0.37574888  0.49774959  1
  Pr  Pr32  1  0.17508399  0.62279205  0.50109960  1
  Pr  Pr33  1  0.50189274  0.12557916  0.83527135  1
  Pr  Pr34  1  0.66615299  0.62958661  0.32908390  1
  Pr  Pr35  1  0.50014983  0.37899919  0.83246879  1
  Pr  Pr36  1  0.83464040  0.12243589  0.50775716  1
  Pr  Pr37  1  0.49447509  0.62509085  0.49780744  1
  Pr  Pr38  1  -0.00543741  0.37376720  -0.00214930  1
  Pr  Pr39  1  0.66498590  0.87594703  0.67065161  1
  Pr  Pr40  1  -0.00721488  0.87485433  0.67178445  1
  Pr  Pr41  1  0.66728144  0.12417819  0.66506554  1
  Pr  Pr42  1  -0.00487023  0.87611531  0.33538398  1
  Pr  Pr43  1  0.17300060  0.62579551  0.16657414  1
  Pr  Pr44  1  0.66430295  0.12132850  0.99850824  1
  Pr  Pr45  1  0.83095406  0.87398282  0.16454100  1
  Pr  Pr46  1  0.50582202  0.12379194  0.16693082  1
  Pr  Pr47  1  0.82887803  0.87024079  0.49997579  1
  Pr  Pr48  1  0.49641398  0.12698333  0.49999490  1
  Pr  Pr49  1  0.00323829  0.62682970  0.99488025  1
  Pr  Pr50  1  0.17196616  0.12415268  0.16728567  1
  Pr  Pr51  1  0.33651577  0.63002032  0.32890059  1
  Pr  Pr52  1  0.84045054  0.62185043  0.83608199  1
  Pr  Pr53  1  0.17601657  0.12821016  0.50144058  1
  Pr  Pr54  1  0.00858521  0.12839976  0.66751676  1
  Pr  Pr55  1  0.49201446  0.37416258  0.16129169  1
  Pr  Pr56  1  0.83115858  0.87200898  0.83399072  1
  Pr  Pr57  1  0.50379292  0.62653512  0.84126134  1
  Pr  Pr58  1  0.32561585  0.37410604  0.00491454  1
  Pr  Pr59  1  -0.00691834  0.37344493  0.33539643  1
  Pr  Pr60  1  0.33460223  0.12132138  0.66847764  1
  Pr  Pr61  1  0.83103182  0.37607538  0.16293222  1
  Pr  Pr62  1  0.83223205  0.62547740  0.50486253  1
  Pr  Pr63  1  0.83183034  0.62641839  0.16784121  1
  Pr  Pr64  1  0.66509964  0.37405506  0.33363574  1
  Pr  Pr65  1  0.00582827  0.12372011  0.99547601  1
  Pr  Pr66  1  0.15485310  0.37614433  0.49742709  1
  Pr  Pr67  1  0.33876457  0.12404714  0.99758588  1
  Pr  Pr68  1  0.33055318  0.87708761  0.67297798  1
  Pr  Pr69  1  0.33231605  0.37227800  0.67070910  1
  Pr  Pr70  1  0.33419494  0.62862264  0.66856144  1
  Pr  Pr71  1  0.00440617  0.62482590  0.33051604  1
  Mn  Mn72  1  0.00010107  0.00056909  0.16632253  1
  Mn  Mn73  1  -0.00090114  0.00100797  0.50024269  1
  Mn  Mn74  1  0.00083402  -0.00033281  0.83319856  1
  Mn  Mn75  1  -0.00139875  0.50202557  0.16583300  1
  Mn  Mn76  1  -0.00252384  0.50010065  0.49599424  1
  Mn  Mn77  1  0.00232463  0.50007943  0.83343775  1
  Mn  Mn78  1  0.33145180  0.00251706  0.16671301  1
  Mn  Mn79  1  0.33312103  0.00073701  0.49932678  1
  Mn  Mn80  1  0.33303622  0.00327697  0.83209435  1
  Mn  Mn81  1  0.33153699  0.49856157  0.16942537  1
  Mn  Mn82  1  0.33280336  0.49832122  0.50251894  1
  Mn  Mn83  1  0.33425001  0.49642754  0.83272102  1
  Mn  Mn84  1  0.66932217  0.00182880  0.16751751  1
  Mn  Mn85  1  0.66735893  0.00105888  0.49924675  1
  Mn  Mn86  1  0.66814383  0.00117595  0.83251760  1
  Mn  Mn87  1  0.66738106  0.49981859  0.17014554  1
  Mn  Mn88  1  0.66575498  0.49801794  0.49849947  1
  Mn  Mn89  1  0.66768588  0.49904234  0.83269962  1
  Mn  Mn90  1  -0.00052577  0.24944941  0.16613575  1
  Mn  Mn91  1  -0.00224643  0.24816840  0.49732744  1
  Mn  Mn92  1  0.00378916  0.24854369  0.83310244  1
  Mn  Mn93  1  -0.00037644  0.74835551  0.16587298  1
  Mn  Mn94  1  -0.00050891  0.75022996  0.49838996  1
  Mn  Mn95  1  0.00043930  0.75091224  0.83260660  1
  Mn  Mn96  1  0.33071244  0.24998058  0.16687809  1
  Mn  Mn97  1  0.33321610  0.25220651  0.50278186  1
  Mn  Mn98  1  0.33478400  0.25138688  0.83556389  1
  Mn  Mn99  1  0.33209517  0.75101241  0.16792822  1
  Mn  Mn100  1  0.33285573  0.74894279  0.49904670  1
  Mn  Mn101  1  0.33329869  0.74966016  0.83066015  1
  Mn  Mn102  1  0.66811240  0.24866766  0.16940805  1
  Mn  Mn103  1  0.66756763  0.25079274  0.50054634  1
  Mn  Mn104  1  0.66590754  0.24827585  0.83384836  1
  Mn  Mn105  1  0.66750661  0.75017427  0.16768674  1
  Mn  Mn106  1  0.66544781  0.74847133  0.49841242  1
  Mn  Mn107  1  0.66783974  0.75013356  0.83152277  1
  Mn  Mn108  1  0.16581736  0.25099769  0.00047860  1
  Mn  Mn109  1  0.16533560  0.25075762  0.33281830  1
  Mn  Mn110  1  0.16916978  0.25016862  0.66729043  1
  Mn  Mn111  1  0.16477734  0.74989134  -0.00021691  1
  Mn  Mn112  1  0.16470511  0.74945936  0.33153341  1
  Mn  Mn113  1  0.16648745  0.74986570  0.66351967  1
  Mn  Mn114  1  0.49817672  0.25036978  0.00011502  1
  Mn  Mn115  1  0.50090230  0.24985405  0.33237635  1
  Mn  Mn116  1  0.49916092  0.25025014  0.66651749  1
  Mn  Mn117  1  0.50050525  0.75042316  0.00016799  1
  Mn  Mn118  1  0.50100994  0.75106001  0.33428099  1
  Mn  Mn119  1  0.49903253  0.74823998  0.66451376  1
  Mn  Mn120  1  0.83544121  0.24826667  0.00411978  1
  Mn  Mn121  1  0.83276676  0.24888953  0.33599614  1
  Mn  Mn122  1  0.83353202  0.24683010  0.66668465  1
  Mn  Mn123  1  0.83698188  0.75057432  0.00101294  1
  Mn  Mn124  1  0.83425509  0.74963978  0.33515844  1
  Mn  Mn125  1  0.83200853  0.74989355  0.66620769  1
  Mn  Mn126  1  0.16558962  0.00147000  0.00029158  1
  Mn  Mn127  1  0.16592368  0.00071657  0.33218554  1
  Mn  Mn128  1  0.16590964  0.00179440  0.66376429  1
  Mn  Mn129  1  0.16446213  0.49830063  -0.00071328  1
  Mn  Mn130  1  0.16398359  0.49975599  0.33299943  1
  Mn  Mn131  1  0.17003228  0.49937091  0.66662418  1
  Mn  Mn132  1  0.49962375  0.00161194  0.00092698  1
  Mn  Mn133  1  0.50030678  0.00172879  0.33378912  1
  Mn  Mn134  1  0.50057230  0.00245379  0.66406945  1
  Mn  Mn135  1  0.49899770  0.49731414  -0.00172882  1
  Mn  Mn136  1  0.50153016  0.49738987  0.33377258  1
  Mn  Mn137  1  0.49745793  0.49976173  0.66522574  1
  Mn  Mn138  1  0.83676251  0.00066643  0.00296844  1
  Mn  Mn139  1  0.83426726  0.00022799  0.33725373  1
  Mn  Mn140  1  0.83384760  0.00020053  0.66757516  1
  Mn  Mn141  1  0.83593359  0.50039766  0.00204122  1
  Mn  Mn142  1  0.83271919  0.49964332  0.33420107  1
  Mn  Mn143  1  0.83195400  0.50031250  0.66748490  1
  O  O144  1  0.16209684  0.12912742  0.02517552  1
  O  O145  1  0.16174638  0.12888101  0.35756146  1
  O  O146  1  0.16329824  0.12626724  0.68292051  1
  O  O147  1  0.15860579  0.62154236  0.02261929  1
  O  O148  1  0.15937013  0.62327634  0.35854875  1
  O  O149  1  0.17330212  0.62213356  0.68769996  1
  O  O150  1  0.49991359  0.12937978  0.02275739  1
  O  O151  1  0.49941776  0.12865023  0.35513690  1
  O  O152  1  0.49978499  0.12875886  0.69219782  1
  O  O153  1  0.50189205  0.62048205  0.00382098  1
  O  O154  1  0.50392227  0.61995378  0.35281949  1
  O  O155  1  0.49182369  0.61961411  0.69543929  1
  O  O156  1  0.84595725  0.12510069  0.02552414  1
  O  O157  1  0.83539593  0.12189193  0.36457225  1
  O  O158  1  0.82488182  0.12217172  0.67888698  1
  O  O159  1  0.84541514  0.62446636  0.02247576  1
  O  O160  1  0.83276717  0.62215099  0.36332157  1
  O  O161  1  0.83158340  0.62880945  0.68884728  1
  O  O162  1  0.15799554  0.37508357  0.30732652  1
  O  O163  1  0.17513123  0.37429210  0.63986434  1
  O  O164  1  0.16805895  0.37458880  0.98109672  1
  O  O165  1  0.16123835  0.87253125  0.30755565  1
  O  O166  1  0.17506818  0.87791510  0.65260956  1
  O  O167  1  0.16377453  0.87583406  0.99201400  1
  O  O168  1  0.50650768  0.37100920  0.30622179  1
  O  O169  1  0.49683320  0.37294401  0.63804570  1
  O  O170  1  0.49170630  0.37116156  0.97769280  1
  O  O171  1  0.49860451  0.88090857  0.32477973  1
  O  O172  1  0.50077236  0.87868186  0.65248818  1
  O  O173  1  0.49852661  0.88045935  0.99254658  1
  O  O174  1  0.83558799  0.37710028  0.30452532  1
  O  O175  1  0.82755939  0.37061906  0.64863811  1
  O  O176  1  0.83784959  0.37437390  0.99067908  1
  O  O177  1  0.84093636  0.87723352  0.30696928  1
  O  O178  1  0.83714899  0.87715845  0.64290239  1
  O  O179  1  0.83584123  0.87639447  0.97967936  1
  O  O180  1  0.00356037  0.37565107  0.19438683  1
  O  O181  1  0.00404537  0.37360088  0.51186302  1
  O  O182  1  0.00534970  0.37628956  0.85275379  1
  O  O183  1  0.00446859  0.87096958  0.19375617  1
  O  O184  1  -0.00272576  0.88093802  0.52827397  1
  O  O185  1  -0.00457858  0.87497805  0.84873360  1
  O  O186  1  0.33867429  0.37353642  0.18039771  1
  O  O187  1  0.34159268  0.37517031  0.52751599  1
  O  O188  1  0.34098093  0.37238733  0.86190020  1
  O  O189  1  0.32374117  0.87745275  0.18368060  1
  O  O190  1  0.33408781  0.87579316  0.52490725  1
  O  O191  1  0.33247397  0.87956878  0.83780325  1
  O  O192  1  0.67675062  0.37228588  0.19047587  1
  O  O193  1  0.66155295  0.37287688  0.52925086  1
  O  O194  1  0.66204073  0.37092741  0.84351347  1
  O  O195  1  0.67836855  0.87752038  0.18311321  1
  O  O196  1  0.66945082  0.87860942  0.52567342  1
  O  O197  1  0.67350604  0.87800880  0.84334952  1
  O  O198  1  -0.00597363  0.12946352  0.13918143  1
  O  O199  1  -0.01075865  0.12509038  0.47198826  1
  O  O200  1  0.00416246  0.12141991  0.81301932  1
  O  O201  1  -0.00971913  0.62417126  0.13797733  1
  O  O202  1  -0.01195825  0.62066341  0.47336267  1
  O  O203  1  -0.00425528  0.62647023  0.82248799  1
  O  O204  1  0.32182707  0.13018129  0.14130526  1
  O  O205  1  0.33035645  0.13051653  0.47736525  1
  O  O206  1  0.33788858  0.12916316  0.81191282  1
  O  O207  1  0.32595216  0.62116088  0.15911272  1
  O  O208  1  0.33006011  0.61892457  0.47341625  1
  O  O209  1  0.33314286  0.62021306  0.81176452  1
  O  O210  1  0.66656949  0.12772364  0.14412697  1
  O  O211  1  0.67756529  0.12829025  0.47614816  1
  O  O212  1  0.66028578  0.12479619  0.81047630  1
  O  O213  1  0.67247615  0.62430007  0.16014571  1
  O  O214  1  0.67406398  0.61824615  0.47318264  1
  O  O215  1  0.66253439  0.62468099  0.82312948  1
  O  O216  1  0.08747957  0.02310916  0.24224722  1
  O  O217  1  0.08704491  0.02796441  0.57286769  1
  O  O218  1  0.08759742  0.01907091  0.91520920  1
  O  O219  1  0.08451250  0.52525078  0.24017772  1
  O  O220  1  0.09095154  0.51234417  0.56710896  1
  O  O221  1  0.08483910  0.52115096  0.91619302  1
  O  O222  1  0.41785802  0.02512869  0.24634542  1
  O  O223  1  0.41784279  0.02632506  0.58098910  1
  O  O224  1  0.41951017  0.02370584  0.91411624  1
  O  O225  1  0.41630787  0.51171931  0.25757155  1
  O  O226  1  0.41408152  0.52570592  0.58536562  1
  O  O227  1  0.42358859  0.51234435  0.90537224  1
  O  O228  1  0.75318967  0.02358247  0.25429319  1
  O  O229  1  0.74933269  0.01765094  0.58408212  1
  O  O230  1  0.74841146  0.01818518  0.92615640  1
  O  O231  1  0.75484753  0.52278876  0.25389456  1
  O  O232  1  0.75300589  0.51089986  0.57367581  1
  O  O233  1  0.76176179  0.51535736  0.91263865  1
  O  O234  1  0.25318028  0.22919509  0.25583835  1
  O  O235  1  0.25577479  0.22811603  0.58945709  1
  O  O236  1  0.25905285  0.23554594  0.92850848  1
  O  O237  1  0.24823301  0.72848187  0.25357106  1
  O  O238  1  0.25292237  0.72659168  0.58153486  1
  O  O239  1  0.24787183  0.73489552  0.90974656  1
  O  O240  1  0.58869013  0.22652917  0.25305322  1
  O  O241  1  0.58489610  0.22466914  0.58289110  1
  O  O242  1  0.58394413  0.22728488  0.92007130  1
  O  O243  1  0.58966824  0.74044539  0.25535402  1
  O  O244  1  0.57593711  0.73028864  0.57584166  1
  O  O245  1  0.58326501  0.74120196  0.90991313  1
  O  O246  1  0.92213297  0.22941720  0.25244474  1
  O  O247  1  0.91802290  0.22837407  0.58245098  1
  O  O248  1  0.92648939  0.23919128  0.92810233  1
  O  O249  1  0.91971257  0.72608914  0.25466502  1
  O  O250  1  0.91230646  0.73719478  0.58111361  1
  O  O251  1  0.92116673  0.73172339  0.91930368  1
  O  O252  1  0.07728470  0.47719786  0.07925899  1
  O  O253  1  0.07297321  0.48146355  0.40433281  1
  O  O254  1  0.09033117  0.49223991  0.75197397  1
  O  O255  1  0.07829227  0.98853043  0.08007415  1
  O  O256  1  0.07073745  0.98696931  0.40536373  1
  O  O257  1  0.07261510  0.98771108  0.73261977  1
  O  O258  1  0.41244140  0.47937920  0.07834380  1
  O  O259  1  0.42367820  0.48500937  0.42545729  1
  O  O260  1  0.41626541  0.47115139  0.74677513  1
  O  O261  1  0.41135174  1.00257690  0.08231423  1
  O  O262  1  0.41302187  0.99836080  0.41432666  1
  O  O263  1  0.41225957  0.99286540  0.74053993  1
  O  O264  1  0.75589994  0.49061085  0.09105587  1
  O  O265  1  0.74783190  0.47104377  0.41420722  1
  O  O266  1  0.74384402  0.48593562  0.74472878  1
  O  O267  1  0.75767202  0.99347170  0.09146596  1
  O  O268  1  0.75254179  0.97870725  0.42002397  1
  O  O269  1  0.75250296  0.97923251  0.74792114  1
  O  O270  1  0.24035305  0.27344157  0.09223494  1
  O  O271  1  0.23963173  0.26766443  0.43101809  1
  O  O272  1  0.25493797  0.26819371  0.75286215  1
  O  O273  1  0.24091981  0.75794442  0.09280384  1
  O  O274  1  0.24928262  0.75634501  0.41471315  1
  O  O275  1  0.25315294  0.75900056  0.74389975  1
  O  O276  1  0.57090632  0.26553207  0.09252725  1
  O  O277  1  0.58519979  0.27037489  0.42031990  1
  O  O278  1  0.57668962  0.27025895  0.74853976  1
  O  O279  1  0.58659435  0.75626696  0.08623429  1
  O  O280  1  0.58794351  0.75459077  0.41413114  1
  O  O281  1  0.58735738  0.76309902  0.74176954  1
  O  O282  1  0.91584966  0.27483987  0.09032637  1
  O  O283  1  0.91167194  0.27338355  0.41898219  1
  O  O284  1  0.91793085  0.25151322  0.74628935  1
  O  O285  1  0.91475480  0.77181552  0.09109241  1
  O  O286  1  0.91389182  0.77455762  0.41910517  1
  O  O287  1  0.91101267  0.76990317  0.75377783  1
  O  O288  1  0.24164647  0.48005825  0.08753630  1
  O  O289  1  0.23838239  0.48142135  0.43044062  1
  O  O290  1  0.25626635  0.47762609  0.74896769  1
  O  O291  1  0.23849019  0.99055507  0.09402663  1
  O  O292  1  0.24874273  0.99473933  0.41704632  1
  O  O293  1  0.25248766  0.99549375  0.74476291  1
  O  O294  1  0.57573426  0.48019510  0.09182710  1
  O  O295  1  0.58473542  0.47223533  0.41642039  1
  O  O296  1  0.57907166  0.47783222  0.74478035  1
  O  O297  1  0.58470947  1.00076531  0.08191826  1
  O  O298  1  0.58917165  0.99825686  0.41321281  1
  O  O299  1  0.59065996  0.99122868  0.73740762  1
  O  O300  1  0.91667812  0.47523096  0.08818983  1
  O  O301  1  0.91186896  0.47383780  0.41613452  1
  O  O302  1  0.91437385  0.49530125  0.75622568  1
  O  O303  1  0.91277047  0.97881573  0.09412683  1
  O  O304  1  0.91189783  0.97438653  0.42396442  1
  O  O305  1  0.91224451  0.97856113  0.75267357  1
  O  O306  1  0.07655216  0.27441515  0.08000518  1
  O  O307  1  0.07456293  0.26779451  0.40777773  1
  O  O308  1  0.08623756  0.25938296  0.74609927  1
  O  O309  1  0.07848803  0.76340038  0.08348370  1
  O  O310  1  0.07197202  0.76374374  0.40160621  1
  O  O311  1  0.07509653  0.76478810  0.74025487  1
  O  O312  1  0.40658728  0.26641781  0.07523282  1
  O  O313  1  0.42016943  0.26381774  0.42354768  1
  O  O314  1  0.41681195  0.27323811  0.74941599  1
  O  O315  1  0.41244699  0.75532291  0.08580742  1
  O  O316  1  0.41529948  0.75178395  0.41743530  1
  O  O317  1  0.40994825  0.76276859  0.73944830  1
  O  O318  1  0.75685014  0.25910917  0.09355969  1
  O  O319  1  0.74662672  0.27755615  0.41886759  1
  O  O320  1  0.74153184  0.25726072  0.74199309  1
  O  O321  1  0.75765765  0.75859303  0.09033585  1
  O  O322  1  0.75235436  0.76921379  0.41660796  1
  O  O323  1  0.74956844  0.77338388  0.74525377  1
  O  O324  1  0.25323233  0.02435152  0.25340002  1
  O  O325  1  0.25318083  0.02370602  0.58425488  1
  O  O326  1  0.25469383  0.02170404  0.92387498  1
  O  O327  1  0.24851141  0.51974188  0.25836477  1
  O  O328  1  0.25470691  0.52237326  0.58709086  1
  O  O329  1  0.24671579  0.51109252  0.91301872  1
  O  O330  1  0.58445794  0.02126716  0.24882304  1
  O  O331  1  0.58261759  0.02836554  0.57867155  1
  O  O332  1  0.58204927  0.02246567  0.91525215  1
  O  O333  1  0.59309913  0.51035132  0.26077448  1
  O  O334  1  0.57347969  0.51545768  0.57308957  1
  O  O335  1  0.58113975  0.50481189  0.91104615  1
  O  O336  1  0.92135717  0.02159546  0.25730114  1
  O  O337  1  0.92193773  0.02422519  0.58979194  1
  O  O338  1  0.92426563  0.01437442  0.92719123  1
  O  O339  1  0.91870135  0.52314202  0.25297413  1
  O  O340  1  0.91200418  0.50982650  0.57614385  1
  O  O341  1  0.92447163  0.51492230  0.92480646  1
  O  O342  1  0.08644159  0.22780013  0.23981596  1
  O  O343  1  0.08613128  0.23069307  0.57221446  1
  O  O344  1  0.08695245  0.23221079  0.91883812  1
  O  O345  1  0.08543236  0.72162206  0.24282829  1
  O  O346  1  0.08936665  0.73086049  0.56944018  1
  O  O347  1  0.08554387  0.72972399  0.91261143  1
  O  O348  1  0.41932535  0.22841670  0.24065619  1
  O  O349  1  0.41754538  0.22485038  0.58543737  1
  O  O350  1  0.42164652  0.22510373  0.91373428  1
  O  O351  1  0.41108446  0.73925589  0.25629689  1
  O  O352  1  0.41516145  0.72433644  0.58165960  1
  O  O353  1  0.42020680  0.73697442  0.90617528  1
  O  O354  1  0.75322656  0.22503314  0.25641131  1
  O  O355  1  0.75202788  0.23099289  0.57967367  1
  O  O356  1  0.74947933  0.23117279  0.92828266  1
  O  O357  1  0.75524113  0.73037062  0.25267240  1
  O  O358  1  0.75306952  0.73715801  0.57708969  1
  O  O359  1  0.76184208  0.73779738  0.90668082  1
