# generated using pymatgen
data_Ba17Sr5La8Pr42Mn72O216
_symmetry_space_group_name_H-M   'P 1'
_cell_length_a   16.67695195
_cell_length_b   15.70522630
_cell_length_c   16.82558028
_cell_angle_alpha   89.99954004
_cell_angle_beta   90.05081822
_cell_angle_gamma   90.00769257
_symmetry_Int_Tables_number   1
_chemical_formula_structural   Ba17Sr5La8Pr42Mn72O216
_chemical_formula_sum   'Ba17 Sr5 La8 Pr42 Mn72 O216'
_cell_volume   4406.87520971
_cell_formula_units_Z   1
loop_
 _symmetry_equiv_pos_site_id
 _symmetry_equiv_pos_as_xyz
  1  'x, y, z'
loop_
 _atom_site_type_symbol
 _atom_site_label
 _atom_site_symmetry_multiplicity
 _atom_site_fract_x
 _atom_site_fract_y
 _atom_site_fract_z
 _atom_site_occupancy
  Ba  Ba0  1  0.66927177  0.12542170  1.00007369  1
  Ba  Ba1  1  0.83376666  0.62450860  0.83427700  1
  Ba  Ba2  1  0.83453112  0.12570359  0.83358643  1
  Ba  Ba3  1  0.66715463  0.12528737  0.33114506  1
  Ba  Ba4  1  0.83141128  0.62642983  0.50276542  1
  Ba  Ba5  1  0.16607611  0.62452487  0.17084534  1
  Ba  Ba6  1  0.16603068  0.62518379  0.50333648  1
  Ba  Ba7  1  0.49780246  0.37595213  0.82804246  1
  Ba  Ba8  1  0.49756860  0.62477988  0.82844601  1
  Ba  Ba9  1  0.50105921  0.12396534  0.16568005  1
  Ba  Ba10  1  0.83305576  0.12346926  0.50266734  1
  Ba  Ba11  1  0.66514666  0.62347731  0.33408871  1
  Ba  Ba12  1  0.66497566  0.37396288  0.66600204  1
  Ba  Ba13  1  0.33346479  0.12540520  0.99847455  1
  Ba  Ba14  1  0.50091972  0.87482681  0.83011281  1
  Ba  Ba15  1  0.66838502  0.87407604  0.00087592  1
  Ba  Ba16  1  0.16488373  0.62532952  0.83588021  1
  Sr  Sr17  1  0.32895481  0.37534423  0.66878381  1
  Sr  Sr18  1  -0.00122532  0.12520393  0.66528860  1
  Sr  Sr19  1  0.50428974  0.87517009  0.16105005  1
  Sr  Sr20  1  0.00417087  0.87272689  0.33552908  1
  Sr  Sr21  1  0.00014292  0.62858086  0.33492754  1
  La  La22  1  0.49937030  0.12598630  0.49553198  1
  La  La23  1  0.49432728  0.62284831  0.49983187  1
  La  La24  1  0.83519847  0.87787517  0.83669759  1
  La  La25  1  0.16663568  0.12642692  0.83366820  1
  La  La26  1  0.33080883  0.87218143  0.66659315  1
  La  La27  1  0.33380149  0.12560447  0.66741913  1
  La  La28  1  0.00185281  0.38004294  0.33734334  1
  La  La29  1  0.16597193  0.87539187  0.16624893  1
  Pr  Pr30  1  0.00020509  0.12267172  0.32995078  1
  Pr  Pr31  1  0.16740022  0.12403036  0.50136218  1
  Pr  Pr32  1  -0.00315908  0.37557603  0.66789412  1
  Pr  Pr33  1  0.83521529  0.87460761  0.16859229  1
  Pr  Pr34  1  0.16522259  0.37471943  0.16513283  1
  Pr  Pr35  1  -0.00417477  0.62484195  0.66241669  1
  Pr  Pr36  1  0.83093534  0.37625146  0.16875077  1
  Pr  Pr37  1  0.33638667  0.87398617  0.33297706  1
  Pr  Pr38  1  0.84201655  0.87639624  0.49886367  1
  Pr  Pr39  1  0.33696018  0.87046241  0.00323525  1
  Pr  Pr40  1  0.33213297  0.12384468  0.32528948  1
  Pr  Pr41  1  0.33348678  0.62623109  0.99617199  1
  Pr  Pr42  1  0.00027845  0.87308580  0.00269097  1
  Pr  Pr43  1  -0.00179580  0.37830273  0.00151536  1
  Pr  Pr44  1  0.00112538  0.87441812  0.66679893  1
  Pr  Pr45  1  0.67619869  0.87382978  0.67172354  1
  Pr  Pr46  1  0.33463781  0.37951911  0.00043871  1
  Pr  Pr47  1  0.66066076  0.62563610  0.99777078  1
  Pr  Pr48  1  0.65259773  0.62349201  0.66013398  1
  Pr  Pr49  1  0.33262578  0.62529077  0.33128090  1
  Pr  Pr50  1  0.66966959  0.37154501  0.33807097  1
  Pr  Pr51  1  0.67349159  0.87749973  0.33158458  1
  Pr  Pr52  1  0.49622743  0.62850242  0.16547607  1
  Pr  Pr53  1  0.50324422  0.87304734  0.49356956  1
  Pr  Pr54  1  0.65873284  0.12453838  0.66353805  1
  Pr  Pr55  1  0.49876746  0.37639416  0.49750379  1
  Pr  Pr56  1  0.16767226  0.87910664  0.83368464  1
  Pr  Pr57  1  0.16766602  0.12498272  0.16766588  1
  Pr  Pr58  1  0.50534842  0.12918908  0.83724725  1
  Pr  Pr59  1  0.16781111  0.87810550  0.49544507  1
  Pr  Pr60  1  -0.00090453  0.62618128  1.00058799  1
  Pr  Pr61  1  0.83077133  0.37250041  0.83135504  1
  Pr  Pr62  1  0.83397555  0.62859162  0.17605133  1
  Pr  Pr63  1  0.83154889  0.12212803  0.17106614  1
  Pr  Pr64  1  0.50690877  0.37569082  0.16143263  1
  Pr  Pr65  1  0.00184077  0.12502136  0.99478813  1
  Pr  Pr66  1  0.16538120  0.37110766  0.83126202  1
  Pr  Pr67  1  0.33331619  0.37454118  0.33668816  1
  Pr  Pr68  1  0.67081764  0.37697066  -0.00429034  1
  Pr  Pr69  1  0.33133724  0.62258746  0.66645066  1
  Pr  Pr70  1  0.16468037  0.37151520  0.49964980  1
  Pr  Pr71  1  0.83198554  0.37406418  0.49842507  1
  Mn  Mn72  1  0.00099469  0.00061743  0.16570285  1
  Mn  Mn73  1  0.00279000  0.00094532  0.49992153  1
  Mn  Mn74  1  0.00129862  -0.00054315  0.83365887  1
  Mn  Mn75  1  -0.00005285  0.49877110  0.16991180  1
  Mn  Mn76  1  0.00026224  0.49891656  0.50306572  1
  Mn  Mn77  1  -0.00017558  0.49930965  0.83516994  1
  Mn  Mn78  1  0.33287120  -0.00111394  0.16564194  1
  Mn  Mn79  1  0.33474491  0.00185231  0.49838052  1
  Mn  Mn80  1  0.33275864  -0.00054032  0.83154432  1
  Mn  Mn81  1  0.33381790  0.49830389  0.16830007  1
  Mn  Mn82  1  0.33137884  0.49644856  0.50059806  1
  Mn  Mn83  1  0.32964577  0.49966472  0.83336323  1
  Mn  Mn84  1  0.66767446  -0.00102487  0.16680269  1
  Mn  Mn85  1  0.66444591  -0.00233015  0.50159563  1
  Mn  Mn86  1  0.66761623  -0.00164833  0.83105455  1
  Mn  Mn87  1  0.66858925  0.49988023  0.16515765  1
  Mn  Mn88  1  0.66518478  0.49861068  0.49874067  1
  Mn  Mn89  1  0.66765417  0.50274825  0.83156426  1
  Mn  Mn90  1  0.00026574  0.24957893  0.16662115  1
  Mn  Mn91  1  0.00137538  0.24979964  0.50058291  1
  Mn  Mn92  1  0.00021659  0.25075887  0.83378161  1
  Mn  Mn93  1  0.00091142  0.75204834  0.16907960  1
  Mn  Mn94  1  0.00163756  0.75124189  0.50134740  1
  Mn  Mn95  1  0.00065461  0.75145799  0.83470736  1
  Mn  Mn96  1  0.33280852  0.25280021  0.16714033  1
  Mn  Mn97  1  0.33348691  0.24905113  0.49893198  1
  Mn  Mn98  1  0.33112210  0.24978859  0.83164115  1
  Mn  Mn99  1  0.33329709  0.75023108  0.16751911  1
  Mn  Mn100  1  0.33251090  0.75117266  0.50002138  1
  Mn  Mn101  1  0.33122040  0.75132869  0.83372261  1
  Mn  Mn102  1  0.66905070  0.25355310  0.16660111  1
  Mn  Mn103  1  0.66549219  0.24886567  0.49977805  1
  Mn  Mn104  1  0.66763151  0.25074869  0.83180297  1
  Mn  Mn105  1  0.66810382  0.74813600  0.16708647  1
  Mn  Mn106  1  0.66453071  0.75300193  0.50056419  1
  Mn  Mn107  1  0.66821470  0.74829457  0.83204269  1
  Mn  Mn108  1  0.16594508  0.25203743  -0.00005972  1
  Mn  Mn109  1  0.16629916  0.24959763  0.33262799  1
  Mn  Mn110  1  0.16540523  0.24870449  0.66558678  1
  Mn  Mn111  1  0.16624334  0.75055654  0.00209399  1
  Mn  Mn112  1  0.16764050  0.75105046  0.33470242  1
  Mn  Mn113  1  0.16545574  0.75185551  0.66861992  1
  Mn  Mn114  1  0.50030475  0.25201356  -0.00223047  1
  Mn  Mn115  1  0.49807195  0.25294610  0.33106583  1
  Mn  Mn116  1  0.49594927  0.24714026  0.66482604  1
  Mn  Mn117  1  0.49982148  0.74933746  -0.00047968  1
  Mn  Mn118  1  0.50034586  0.75105290  0.33004442  1
  Mn  Mn119  1  0.49670579  0.75163810  0.65949690  1
  Mn  Mn120  1  0.83612572  0.25333277  0.00235263  1
  Mn  Mn121  1  0.83734320  0.25011961  0.33276855  1
  Mn  Mn122  1  0.83319257  0.24908840  0.66609558  1
  Mn  Mn123  1  0.83563746  0.74750853  0.00471711  1
  Mn  Mn124  1  0.83516840  0.75146240  0.33582025  1
  Mn  Mn125  1  0.83277048  0.75082988  0.66854779  1
  Mn  Mn126  1  0.16652353  -0.00045969  -0.00058105  1
  Mn  Mn127  1  0.16792155  0.00068967  0.33249614  1
  Mn  Mn128  1  0.16587321  0.00043377  0.66507524  1
  Mn  Mn129  1  0.16602368  0.49936336  0.00218290  1
  Mn  Mn130  1  0.16738658  0.49917357  0.33513278  1
  Mn  Mn131  1  0.16523967  0.49801371  0.66915728  1
  Mn  Mn132  1  0.49989354  0.00049088  -0.00212116  1
  Mn  Mn133  1  0.49974138  -0.00387904  0.33136059  1
  Mn  Mn134  1  0.49742404  -0.00038842  0.66242809  1
  Mn  Mn135  1  0.50012136  0.49818540  -0.00087000  1
  Mn  Mn136  1  0.49849774  0.49997044  0.32908734  1
  Mn  Mn137  1  0.49481252  0.49793237  0.66244332  1
  Mn  Mn138  1  0.83640424  -0.00090045  0.00249007  1
  Mn  Mn139  1  0.83648535  -0.00082663  0.33486265  1
  Mn  Mn140  1  0.83344239  0.00005004  0.66694842  1
  Mn  Mn141  1  0.83493606  0.50064781  0.00398963  1
  Mn  Mn142  1  0.83560600  0.50057109  0.33367122  1
  Mn  Mn143  1  0.83200888  0.49939192  0.66813996  1
  O  O144  1  0.16025702  0.12729920  0.02507141  1
  O  O145  1  0.17064658  0.12613155  0.35782791  1
  O  O146  1  0.16993786  0.12346582  0.68999696  1
  O  O147  1  0.16902732  0.62409553  0.01597098  1
  O  O148  1  0.17551987  0.62447008  0.34733393  1
  O  O149  1  0.17133218  0.62589120  0.68011238  1
  O  O150  1  0.50087229  0.12940384  0.00632708  1
  O  O151  1  0.49416318  0.12338644  0.35090705  1
  O  O152  1  0.50220737  0.12044233  0.68979793  1
  O  O153  1  0.49686719  0.62059520  0.02130148  1
  O  O154  1  0.49508143  0.62449810  0.35656984  1
  O  O155  1  0.50282630  0.62704275  0.66814720  1
  O  O156  1  0.84421798  0.12865288  0.02663161  1
  O  O157  1  0.84147334  0.12523301  0.34596533  1
  O  O158  1  0.83490396  0.12379448  0.67694214  1
  O  O159  1  0.84583599  0.62225203  0.03236983  1
  O  O160  1  0.83828685  0.62689005  0.34447696  1
  O  O161  1  0.84814684  0.62667150  0.67756031  1
  O  O162  1  0.16558404  0.37117305  0.30879350  1
  O  O163  1  0.16138572  0.37118672  0.64258967  1
  O  O164  1  0.16215407  0.37519782  0.97630891  1
  O  O165  1  0.16979466  0.87843029  0.31044967  1
  O  O166  1  0.16307623  0.87901373  0.63883491  1
  O  O167  1  0.16110271  0.87515567  0.97769517  1
  O  O168  1  0.48818989  0.37953327  0.30428163  1
  O  O169  1  0.49043888  0.37179471  0.64262753  1
  O  O170  1  0.49537261  0.37587108  0.98553716  1
  O  O171  1  0.48711706  0.87170271  0.30999503  1
  O  O172  1  0.48644659  0.87695407  0.63710965  1
  O  O173  1  0.49242755  0.87314685  0.99032697  1
  O  O174  1  0.83723315  0.37490918  0.31293483  1
  O  O175  1  0.83586847  0.37387646  0.64406853  1
  O  O176  1  0.83831585  0.37908815  0.97530664  1
  O  O177  1  0.83185706  0.87522690  0.31402297  1
  O  O178  1  0.82573158  0.87513496  0.64403157  1
  O  O179  1  0.84082127  0.87081253  0.98126498  1
  O  O180  1  0.00537831  0.36941155  0.19559836  1
  O  O181  1  0.01067105  0.37210216  0.52286053  1
  O  O182  1  0.00335766  0.37447724  0.85860136  1
  O  O183  1  0.00410778  0.87983840  0.18805061  1
  O  O184  1  0.00942313  0.87689651  0.52070472  1
  O  O185  1  0.00300317  0.87592868  0.85955644  1
  O  O186  1  0.33110833  0.37579436  0.19415168  1
  O  O187  1  0.34001880  0.37119776  0.52119588  1
  O  O188  1  0.32691410  0.37440354  0.85373303  1
  O  O189  1  0.32960148  0.87630890  0.18900464  1
  O  O190  1  0.33700261  0.88117149  0.52463329  1
  O  O191  1  0.32831829  0.87621131  0.85656707  1
  O  O192  1  0.66721132  0.37905436  0.19335875  1
  O  O193  1  0.67082209  0.37476040  0.50884729  1
  O  O194  1  0.67295645  0.37917155  0.85072714  1
  O  O195  1  0.67196572  0.87240259  0.18427767  1
  O  O196  1  0.65598332  0.87709880  0.52808401  1
  O  O197  1  0.67063514  0.87238485  0.84139235  1
  O  O198  1  -0.00137831  0.12625143  0.13699151  1
  O  O199  1  0.00481423  0.12643404  0.47388163  1
  O  O200  1  0.00470618  0.12460758  0.81478040  1
  O  O201  1  -0.00657485  0.62646732  0.14475235  1
  O  O202  1  -0.00189925  0.62591067  0.48845980  1
  O  O203  1  0.00036872  0.62595832  0.80660262  1
  O  O204  1  0.32514481  0.12656331  0.15452830  1
  O  O205  1  0.32861124  0.12552342  0.46785737  1
  O  O206  1  0.32274590  0.12304000  0.81187858  1
  O  O207  1  0.33591362  0.62086433  0.14013805  1
  O  O208  1  0.33397231  0.62104614  0.47377889  1
  O  O209  1  0.32800345  0.62621843  0.81322350  1
  O  O210  1  0.67728150  0.12867304  0.15840778  1
  O  O211  1  0.65934388  0.12308491  0.48609418  1
  O  O212  1  0.66225891  0.12208472  0.81079136  1
  O  O213  1  0.67757938  0.62046609  0.14205563  1
  O  O214  1  0.65728326  0.62354314  0.49117757  1
  O  O215  1  0.66804447  0.62630639  0.80612329  1
  O  O216  1  0.08285324  0.02609287  0.24711078  1
  O  O217  1  0.08605687  0.02261059  0.58054664  1
  O  O218  1  0.08503762  0.02135741  0.91544254  1
  O  O219  1  0.08074726  0.50818354  0.25676296  1
  O  O220  1  0.07622549  0.51338783  0.59351391  1
  O  O221  1  0.07767033  0.51470491  0.92555572  1
  O  O222  1  0.40731143  0.01224625  0.25772440  1
  O  O223  1  0.41335836  0.03007321  0.58026441  1
  O  O224  1  0.41851505  0.01562512  0.90556927  1
  O  O225  1  0.41525434  0.52709240  0.24940997  1
  O  O226  1  0.41271518  0.52103483  0.57952443  1
  O  O227  1  0.41026463  0.51240659  0.92382984  1
  O  O228  1  0.75512286  0.00725736  0.24992749  1
  O  O229  1  0.73670834  0.01178319  0.59261858  1
  O  O230  1  0.75736310  0.00427417  0.91860636  1
  O  O231  1  0.75470756  0.51237525  0.24393649  1
  O  O232  1  0.74304009  0.51536816  0.59396799  1
  O  O233  1  0.74765981  0.51725919  0.93221489  1
  O  O234  1  0.24612996  0.23107433  0.24916897  1
  O  O235  1  0.25133592  0.22815975  0.58035029  1
  O  O236  1  0.24470224  0.23881958  0.91286299  1
  O  O237  1  0.25829009  0.73895543  0.25713152  1
  O  O238  1  0.25275259  0.74218914  0.59108120  1
  O  O239  1  0.25315321  0.73992519  0.92704427  1
  O  O240  1  0.58276198  0.25011241  0.24972972  1
  O  O241  1  0.57668246  0.23124549  0.58165457  1
  O  O242  1  0.58480095  0.24123062  0.91062041  1
  O  O243  1  0.57648154  0.73278337  0.24113498  1
  O  O244  1  0.56934033  0.73784890  0.56733480  1
  O  O245  1  0.58522740  0.73327706  0.91637289  1
  O  O246  1  0.92240361  0.22737983  0.25134026  1
  O  O247  1  0.92298343  0.24391915  0.58650706  1
  O  O248  1  0.92633417  0.23906043  0.92734007  1
  O  O249  1  0.91220300  0.74017483  0.24341931  1
  O  O250  1  0.91569940  0.75000397  0.58455970  1
  O  O251  1  0.92007041  0.73448438  0.92325629  1
  O  O252  1  0.08356095  0.47808713  0.08690341  1
  O  O253  1  0.08623471  0.47931937  0.42140298  1
  O  O254  1  0.08213397  0.47574729  0.75199585  1
  O  O255  1  0.08309603  0.98100543  0.08359351  1
  O  O256  1  0.09116570  0.98595110  0.41851615  1
  O  O257  1  0.08309122  0.97785985  0.75117784  1
  O  O258  1  0.41770673  0.47722398  0.08820719  1
  O  O259  1  0.41645419  0.47809610  0.41625053  1
  O  O260  1  0.40714387  0.49563962  0.74114125  1
  O  O261  1  0.41157468  0.98421885  0.08171181  1
  O  O262  1  0.42086080  0.97992283  0.42018491  1
  O  O263  1  0.40823586  0.98791804  0.73975042  1
  O  O264  1  0.75245379  0.47221273  0.08499313  1
  O  O265  1  0.75245969  0.48058841  0.41657291  1
  O  O266  1  0.75838267  0.48426382  0.75800618  1
  O  O267  1  0.76046766  0.98899972  0.09169717  1
  O  O268  1  0.75092598  0.97605306  0.42391976  1
  O  O269  1  0.75505468  0.98064689  0.75275554  1
  O  O270  1  0.24918657  0.27557445  0.08492558  1
  O  O271  1  0.25063682  0.27341177  0.41817982  1
  O  O272  1  0.24232081  0.26615652  0.75279292  1
  O  O273  1  0.24904332  0.77287579  0.08592364  1
  O  O274  1  0.25277029  0.77597966  0.41917010  1
  O  O275  1  0.24522459  0.77528418  0.75264058  1
  O  O276  1  0.58798473  0.27368166  0.08310622  1
  O  O277  1  0.58013539  0.27276268  0.41476029  1
  O  O278  1  0.58069174  0.25263162  0.74703922  1
  O  O279  1  0.58495327  0.74940973  0.08155162  1
  O  O280  1  0.58636235  0.77647620  0.40477209  1
  O  O281  1  0.58805542  0.76189377  0.72905899  1
  O  O282  1  0.91583238  0.27828115  0.08930678  1
  O  O283  1  0.91816037  0.27438207  0.41960068  1
  O  O284  1  0.91647481  0.27285784  0.75470002  1
  O  O285  1  0.92257825  0.77341176  0.08320497  1
  O  O286  1  0.91886717  0.77080445  0.41902130  1
  O  O287  1  0.92056033  0.77537829  0.74817235  1
  O  O288  1  0.25006555  0.47369635  0.08699193  1
  O  O289  1  0.24923243  0.47186353  0.42060215  1
  O  O290  1  0.24126199  0.47894871  0.75609554  1
  O  O291  1  0.24861572  0.97743000  0.08239452  1
  O  O292  1  0.25648345  0.97716344  0.41403296  1
  O  O293  1  0.24780228  0.97695464  0.74731878  1
  O  O294  1  0.58842439  0.47915438  0.07888677  1
  O  O295  1  0.58255128  0.47467733  0.40631503  1
  O  O296  1  0.58023094  0.49607283  0.73866643  1
  O  O297  1  0.58519575  0.99268386  0.08501891  1
  O  O298  1  0.58499298  0.97473731  0.41320472  1
  O  O299  1  0.58935865  0.98445436  0.73290416  1
  O  O300  1  0.91750196  0.47369207  0.08690496  1
  O  O301  1  0.91859468  0.47637235  0.42158527  1
  O  O302  1  0.91764004  0.47598627  0.75116897  1
  O  O303  1  0.91915409  0.97573893  0.08615702  1
  O  O304  1  0.91991265  0.98138539  0.41826901  1
  O  O305  1  0.91889606  0.97665875  0.75292375  1
  O  O306  1  0.08145546  0.27385943  0.08364012  1
  O  O307  1  0.08339335  0.27040895  0.41346318  1
  O  O308  1  0.07950487  0.27026665  0.74899529  1
  O  O309  1  0.08480567  0.77074700  0.08619311  1
  O  O310  1  0.08966286  0.76764584  0.42359364  1
  O  O311  1  0.08538804  0.77624004  0.75344442  1
  O  O312  1  0.41531614  0.27254679  0.08675234  1
  O  O313  1  0.41799998  0.27120301  0.41773368  1
  O  O314  1  0.40765397  0.25258284  0.74105416  1
  O  O315  1  0.41314608  0.76188509  0.08365595  1
  O  O316  1  0.41888102  0.76870163  0.41647168  1
  O  O317  1  0.41066862  0.75995231  0.73934840  1
  O  O318  1  0.75139174  0.27724218  0.08194606  1
  O  O319  1  0.75287229  0.26841693  0.41283935  1
  O  O320  1  0.75409632  0.26330362  0.75442798  1
  O  O321  1  0.76388964  0.76145906  0.09672355  1
  O  O322  1  0.75250999  0.77463603  0.42684433  1
  O  O323  1  0.75957180  0.76990858  0.75799604  1
  O  O324  1  0.24554473  0.02027641  0.24702039  1
  O  O325  1  0.24973602  0.02118684  0.57756655  1
  O  O326  1  0.24317301  0.01205455  0.90969104  1
  O  O327  1  0.25809124  0.51057827  0.25879688  1
  O  O328  1  0.25297122  0.50929273  0.59096213  1
  O  O329  1  0.25470831  0.51062177  0.92793966  1
  O  O330  1  0.58485735  -0.00076887  0.25217299  1
  O  O331  1  0.57313355  0.02073173  0.57494586  1
  O  O332  1  0.58053248  0.01268862  0.90589851  1
  O  O333  1  0.57527807  0.51634019  0.23573634  1
  O  O334  1  0.57208355  0.50667714  0.57153352  1
  O  O335  1  0.58775330  0.51417653  0.91944567  1
  O  O336  1  0.92015470  0.02120034  0.24609390  1
  O  O337  1  0.91823701  0.00121769  0.58583616  1
  O  O338  1  0.92558727  0.01214209  0.92547867  1
  O  O339  1  0.91688066  0.51459946  0.24944464  1
  O  O340  1  0.91821250  0.50490227  0.58760817  1
  O  O341  1  0.92162756  0.51595254  0.92609610  1
  O  O342  1  0.08349046  0.22206640  0.24666179  1
  O  O343  1  0.08982144  0.22912089  0.57634383  1
  O  O344  1  0.08493733  0.22966968  0.91416664  1
  O  O345  1  0.08041102  0.74149976  0.25396417  1
  O  O346  1  0.07440567  0.73788517  0.59590706  1
  O  O347  1  0.07741104  0.73564268  0.92607795  1
  O  O348  1  0.40727296  0.23608246  0.25736750  1
  O  O349  1  0.41559188  0.22144920  0.57810696  1
  O  O350  1  0.41782593  0.23676947  0.90632973  1
  O  O351  1  0.41530420  0.72555049  0.25033919  1
  O  O352  1  0.41073952  0.72665458  0.58096534  1
  O  O353  1  0.41146958  0.73623640  0.92248455  1
  O  O354  1  0.76087296  0.24322873  0.24246020  1
  O  O355  1  0.74413436  0.23586010  0.58651139  1
  O  O356  1  0.75399603  0.24852814  0.91841832  1
  O  O357  1  0.74822145  0.74075602  0.25500790  1
  O  O358  1  0.73711184  0.73668680  0.60058831  1
  O  O359  1  0.74842408  0.72875023  0.93387455  1
