# generated using pymatgen
data_Ba17Sr5La8Pr42Mn72O216
_symmetry_space_group_name_H-M   'P 1'
_cell_length_a   16.67143128
_cell_length_b   15.69955413
_cell_length_c   16.82421646
_cell_angle_alpha   90.00171716
_cell_angle_beta   90.02127066
_cell_angle_gamma   89.99097858
_symmetry_Int_Tables_number   1
_chemical_formula_structural   Ba17Sr5La8Pr42Mn72O216
_chemical_formula_sum   'Ba17 Sr5 La8 Pr42 Mn72 O216'
_cell_volume   4403.46974557
_cell_formula_units_Z   1
loop_
 _symmetry_equiv_pos_site_id
 _symmetry_equiv_pos_as_xyz
  1  'x, y, z'
loop_
 _atom_site_type_symbol
 _atom_site_label
 _atom_site_symmetry_multiplicity
 _atom_site_fract_x
 _atom_site_fract_y
 _atom_site_fract_z
 _atom_site_occupancy
  Ba  Ba0  1  0.66650356  0.37464512  0.66959551  1
  Ba  Ba1  1  0.16345793  0.37588466  0.16731445  1
  Ba  Ba2  1  0.16835075  0.62290320  0.16700009  1
  Ba  Ba3  1  0.50071030  0.87537772  0.83121123  1
  Ba  Ba4  1  0.16641316  0.12696219  0.16638283  1
  Ba  Ba5  1  0.49957301  0.62671068  0.49845372  1
  Ba  Ba6  1  0.00109882  0.62539669  0.66776076  1
  Ba  Ba7  1  0.83397137  0.37473485  0.50320338  1
  Ba  Ba8  1  0.83266914  0.37430469  0.83349012  1
  Ba  Ba9  1  0.49990581  0.87548799  0.49596336  1
  Ba  Ba10  1  0.16515480  0.87514446  0.50028148  1
  Ba  Ba11  1  0.49899899  0.87474389  0.16250546  1
  Ba  Ba12  1  0.83234081  0.12340799  0.50215231  1
  Ba  Ba13  1  -0.00003579  0.87428296  0.00046194  1
  Ba  Ba14  1  0.33419891  0.12659500  0.66277946  1
  Ba  Ba15  1  0.83047529  0.12329942  0.16989846  1
  Ba  Ba16  1  0.00045493  0.37525222  0.67052944  1
  Sr  Sr17  1  0.83391613  0.62909960  0.17019856  1
  Sr  Sr18  1  0.33537888  0.62836924  0.33088504  1
  Sr  Sr19  1  0.33683556  0.62569131  0.66160054  1
  Sr  Sr20  1  0.83453948  0.87377447  0.83587750  1
  Sr  Sr21  1  0.16666581  0.37560842  0.83105221  1
  La  La22  1  -0.00440510  0.12425034  0.33272385  1
  La  La23  1  -0.00061783  0.12544726  1.00117200  1
  La  La24  1  0.66555485  0.37523801  0.00308301  1
  La  La25  1  0.66534581  0.12477369  0.33403197  1
  La  La26  1  0.33127815  0.87431176  -0.00091758  1
  La  La27  1  0.17118744  0.62102665  0.83352742  1
  La  La28  1  -0.00063732  0.87566669  0.33223457  1
  La  La29  1  -0.00246080  0.37617999  0.00323721  1
  Pr  Pr30  1  0.17300487  0.62417528  0.50348662  1
  Pr  Pr31  1  -0.00162621  0.12591796  0.66888244  1
  Pr  Pr32  1  0.33161478  0.37950035  0.66461740  1
  Pr  Pr33  1  0.16741921  0.87389049  0.82578176  1
  Pr  Pr34  1  0.66932732  0.87463708  0.33628463  1
  Pr  Pr35  1  0.83581741  0.87281446  0.50248440  1
  Pr  Pr36  1  0.66609517  0.12080046  0.99939017  1
  Pr  Pr37  1  0.16520559  0.37640008  0.49998281  1
  Pr  Pr38  1  0.49489245  0.37800386  0.16291922  1
  Pr  Pr39  1  0.50145275  0.62465141  0.17038085  1
  Pr  Pr40  1  0.66550204  0.37352900  0.34143775  1
  Pr  Pr41  1  0.50382122  0.12751427  0.83415889  1
  Pr  Pr42  1  0.00417337  0.37307494  0.33773368  1
  Pr  Pr43  1  0.66884207  0.62910454  0.99993227  1
  Pr  Pr44  1  0.66794449  0.87513818  0.66932637  1
  Pr  Pr45  1  0.32598574  0.87171855  0.33158810  1
  Pr  Pr46  1  -0.00025247  0.62490508  0.33302679  1
  Pr  Pr47  1  0.32317721  0.37824031  0.33214699  1
  Pr  Pr48  1  0.33503086  0.12073592  0.32805050  1
  Pr  Pr49  1  0.83346586  0.62468311  0.50613125  1
  Pr  Pr50  1  0.66987385  0.62716501  0.66712941  1
  Pr  Pr51  1  0.83192860  0.37405816  0.16725556  1
  Pr  Pr52  1  0.66633999  0.62431273  0.33423853  1
  Pr  Pr53  1  0.49687177  0.37544789  0.82676978  1
  Pr  Pr54  1  0.66755880  0.87476453  0.00606007  1
  Pr  Pr55  1  0.50701096  0.62465766  0.83091380  1
  Pr  Pr56  1  0.33856246  0.62243678  0.99564602  1
  Pr  Pr57  1  0.32623552  0.37563005  -0.00098891  1
  Pr  Pr58  1  0.33455567  0.12668852  0.99110830  1
  Pr  Pr59  1  0.00106513  0.87742213  0.67354304  1
  Pr  Pr60  1  0.00612085  0.62519161  0.99687015  1
  Pr  Pr61  1  0.16288213  0.12595014  0.50240690  1
  Pr  Pr62  1  0.16613599  0.12819021  0.83750131  1
  Pr  Pr63  1  0.50027334  0.12626421  0.16511936  1
  Pr  Pr64  1  0.50265498  0.12563795  0.50076336  1
  Pr  Pr65  1  0.33573776  0.87009561  0.66564222  1
  Pr  Pr66  1  0.83294630  0.12784754  0.83853254  1
  Pr  Pr67  1  0.83115173  0.87582736  0.16361076  1
  Pr  Pr68  1  0.16610404  0.87212867  0.16308113  1
  Pr  Pr69  1  0.66721742  0.12313106  0.66821989  1
  Pr  Pr70  1  0.49437384  0.37528560  0.49620394  1
  Pr  Pr71  1  0.83723876  0.62108513  0.83929072  1
  Mn  Mn72  1  0.00019147  -0.00084619  0.16781016  1
  Mn  Mn73  1  -0.00061050  -0.00095451  0.50255464  1
  Mn  Mn74  1  0.00138966  -0.00032324  0.83446265  1
  Mn  Mn75  1  -0.00438752  0.50202833  0.16880099  1
  Mn  Mn76  1  0.00027018  0.50082064  0.49896726  1
  Mn  Mn77  1  0.00162106  0.50127845  0.83589367  1
  Mn  Mn78  1  0.33302752  0.00125339  0.16217731  1
  Mn  Mn79  1  0.33257925  0.00100963  0.49542117  1
  Mn  Mn80  1  0.33367530  0.00035253  0.82981372  1
  Mn  Mn81  1  0.33438556  0.49911547  0.16426143  1
  Mn  Mn82  1  0.33329473  0.49985888  0.49838421  1
  Mn  Mn83  1  0.33544217  0.50063714  0.82975939  1
  Mn  Mn84  1  0.66418276  0.00064594  0.16840280  1
  Mn  Mn85  1  0.66706533  -0.00061924  0.50143534  1
  Mn  Mn86  1  0.66842369  -0.00201838  0.83429072  1
  Mn  Mn87  1  0.66649425  0.49973433  0.16964846  1
  Mn  Mn88  1  0.66585729  0.50070125  0.50093863  1
  Mn  Mn89  1  0.66647136  0.50229425  0.83617426  1
  Mn  Mn90  1  -0.00278040  0.25077557  0.16886175  1
  Mn  Mn91  1  0.00084313  0.24864479  0.50206398  1
  Mn  Mn92  1  0.00180032  0.24825262  0.83536767  1
  Mn  Mn93  1  -0.00072117  0.74817791  0.16737391  1
  Mn  Mn94  1  -0.00045475  0.75055000  0.49978313  1
  Mn  Mn95  1  0.00105708  0.75032829  0.83406947  1
  Mn  Mn96  1  0.33422121  0.25006651  0.16354732  1
  Mn  Mn97  1  0.33230971  0.25036582  0.49507153  1
  Mn  Mn98  1  0.33380847  0.25199512  0.82920154  1
  Mn  Mn99  1  0.33366152  0.74962395  0.16373278  1
  Mn  Mn100  1  0.33299962  0.75113367  0.49778455  1
  Mn  Mn101  1  0.33480977  0.74747599  0.83110957  1
  Mn  Mn102  1  0.66353886  0.25233690  0.16948259  1
  Mn  Mn103  1  0.66466100  0.24974950  0.50185948  1
  Mn  Mn104  1  0.66554801  0.24834205  0.83657453  1
  Mn  Mn105  1  0.66695214  0.74748071  0.16852749  1
  Mn  Mn106  1  0.66861518  0.75013549  0.50100070  1
  Mn  Mn107  1  0.66876795  0.75143632  0.83429381  1
  Mn  Mn108  1  0.16652279  0.25039609  -0.00082162  1
  Mn  Mn109  1  0.16718356  0.24877231  0.33630131  1
  Mn  Mn110  1  0.16752946  0.24936822  0.66761202  1
  Mn  Mn111  1  0.16931963  0.74899848  -0.00232875  1
  Mn  Mn112  1  0.16508289  0.74924688  0.33237775  1
  Mn  Mn113  1  0.16802850  0.74920877  0.66534283  1
  Mn  Mn114  1  0.50051820  0.25298314  -0.00191755  1
  Mn  Mn115  1  0.49755329  0.25056567  0.33110869  1
  Mn  Mn116  1  0.49998933  0.24964694  0.66483580  1
  Mn  Mn117  1  0.50033107  0.74769567  -0.00204927  1
  Mn  Mn118  1  0.50032899  0.75002105  0.32977883  1
  Mn  Mn119  1  0.50113887  0.75065975  0.66544978  1
  Mn  Mn120  1  0.83162211  0.25047471  0.00290596  1
  Mn  Mn121  1  0.83194869  0.25078601  0.33376180  1
  Mn  Mn122  1  0.83246896  0.24793796  0.67052788  1
  Mn  Mn123  1  0.83290928  0.74884464  0.00316783  1
  Mn  Mn124  1  0.83332378  0.74988480  0.33595060  1
  Mn  Mn125  1  0.83407740  0.75175408  0.66956308  1
  Mn  Mn126  1  0.16811133  -0.00021828  -0.00131407  1
  Mn  Mn127  1  0.16608042  0.00104070  0.33256091  1
  Mn  Mn128  1  0.16766765  0.00133475  0.66644858  1
  Mn  Mn129  1  0.16723270  0.49977230  -0.00116485  1
  Mn  Mn130  1  0.16561399  0.50146593  0.33550432  1
  Mn  Mn131  1  0.16906923  0.50090538  0.66705170  1
  Mn  Mn132  1  0.49915516  0.00115590  -0.00323170  1
  Mn  Mn133  1  0.49961287  -0.00025240  0.32999605  1
  Mn  Mn134  1  0.50032330  0.00039109  0.66442741  1
  Mn  Mn135  1  0.50161845  0.49954253  -0.00233228  1
  Mn  Mn136  1  0.49936649  0.49878599  0.33033232  1
  Mn  Mn137  1  0.50096809  0.50034629  0.66476011  1
  Mn  Mn138  1  0.83275669  -0.00031666  0.00141827  1
  Mn  Mn139  1  0.83222322  -0.00327564  0.33564862  1
  Mn  Mn140  1  0.83356459  -0.00179338  0.67134836  1
  Mn  Mn141  1  0.83189390  0.50071988  0.00512639  1
  Mn  Mn142  1  0.83260415  0.50185146  0.33329505  1
  Mn  Mn143  1  0.83297253  0.50187101  0.67049394  1
  O  O144  1  0.17581611  0.12570107  0.01044780  1
  O  O145  1  0.17324768  0.12541573  0.35783531  1
  O  O146  1  0.16534548  0.12387267  0.69339144  1
  O  O147  1  0.17062851  0.62496132  0.01075253  1
  O  O148  1  0.16128119  0.62380090  0.35815955  1
  O  O149  1  0.17420989  0.62554988  0.68851060  1
  O  O150  1  0.49655541  0.13065905  0.02221961  1
  O  O151  1  0.49191443  0.12781594  0.35770138  1
  O  O152  1  0.50371585  0.12454098  0.69037809  1
  O  O153  1  0.49611079  0.62180265  0.02637115  1
  O  O154  1  0.49834836  0.62277872  0.34227578  1
  O  O155  1  0.50132532  0.62466493  0.68658273  1
  O  O156  1  0.83183787  0.12557874  0.01463328  1
  O  O157  1  0.83546866  0.12024332  0.34552690  1
  O  O158  1  0.83121619  0.11876201  0.69300941  1
  O  O159  1  0.82525908  0.62439615  0.02307881  1
  O  O160  1  0.83400468  0.62755596  0.36332333  1
  O  O161  1  0.82729474  0.63155883  0.69334118  1
  O  O162  1  0.16114968  0.37417263  0.32330791  1
  O  O163  1  0.17127462  0.37459532  0.64395693  1
  O  O164  1  0.16451998  0.37531869  0.98151689  1
  O  O165  1  0.16564751  0.87667209  0.30816630  1
  O  O166  1  0.16270871  0.87608481  0.65539693  1
  O  O167  1  0.17388590  0.87328287  0.97115551  1
  O  O168  1  0.51010006  0.37287042  0.30532463  1
  O  O169  1  0.49963705  0.37423964  0.64259397  1
  O  O170  1  0.51057206  0.37582230  0.96823176  1
  O  O171  1  0.51174682  0.87462641  0.31757156  1
  O  O172  1  0.50340439  0.87718451  0.65379372  1
  O  O173  1  0.50262043  0.87148352  0.98629956  1
  O  O174  1  0.82766190  0.37961759  0.31149366  1
  O  O175  1  0.83350871  0.37338675  0.66219440  1
  O  O176  1  0.83089413  0.37558245  0.98802396  1
  O  O177  1  0.82752497  0.87184728  0.30755672  1
  O  O178  1  0.83297568  0.87483918  0.64545342  1
  O  O179  1  0.82343857  0.87389181  0.98535845  1
  O  O180  1  -0.00820463  0.37881969  0.19194215  1
  O  O181  1  0.00906742  0.37278000  0.51272011  1
  O  O182  1  0.00264534  0.37553885  0.85792565  1
  O  O183  1  0.00597425  0.87295684  0.18689372  1
  O  O184  1  -0.00452567  0.87483979  0.52921012  1
  O  O185  1  0.00925209  0.87504935  0.84604852  1
  O  O186  1  0.34108227  0.37320827  0.18760104  1
  O  O187  1  0.33278929  0.37325627  0.52077270  1
  O  O188  1  0.34428631  0.37633236  0.85677472  1
  O  O189  1  0.33047867  0.87763173  0.18618609  1
  O  O190  1  0.33263981  0.87839828  0.51998144  1
  O  O191  1  0.32998695  0.87242454  0.85622103  1
  O  O192  1  0.66322032  0.37659044  0.19675072  1
  O  O193  1  0.65643482  0.37343382  0.51145159  1
  O  O194  1  0.65958491  0.37528030  0.85831629  1
  O  O195  1  0.67007812  0.87081007  0.19053572  1
  O  O196  1  0.67126889  0.87415316  0.52471648  1
  O  O197  1  0.66798214  0.87455495  0.86347326  1
  O  O198  1  -0.00308561  0.12367937  0.14743291  1
  O  O199  1  0.00504316  0.12350133  0.47741070  1
  O  O200  1  0.00468961  0.12098281  0.81351877  1
  O  O201  1  -0.00514453  0.62537118  0.14149057  1
  O  O202  1  -0.00722718  0.62732779  0.47624388  1
  O  O203  1  -0.00533807  0.62691567  0.82668652  1
  O  O204  1  0.33849357  0.12752134  0.13639605  1
  O  O205  1  0.33276539  0.12755835  0.47065163  1
  O  O206  1  0.33054602  0.12843786  0.81865651  1
  O  O207  1  0.34065564  0.62202455  0.14129342  1
  O  O208  1  0.32644259  0.62292032  0.48125223  1
  O  O209  1  0.32799859  0.62306444  0.81032216  1
  O  O210  1  0.65978550  0.13117171  0.14187228  1
  O  O211  1  0.66100041  0.12557741  0.47828999  1
  O  O212  1  0.66669972  0.12086388  0.81340150  1
  O  O213  1  0.66291704  0.62229452  0.14224120  1
  O  O214  1  0.67605057  0.62703141  0.47832196  1
  O  O215  1  0.66510130  0.62884303  0.81229883  1
  O  O216  1  0.07946487  0.01684051  0.25610954  1
  O  O217  1  0.08284589  0.02309610  0.58686776  1
  O  O218  1  0.08504818  0.02242377  0.91719339  1
  O  O219  1  0.07605578  0.51427477  0.25645992  1
  O  O220  1  0.09169272  0.51602699  0.57559438  1
  O  O221  1  0.08601338  0.52110504  0.91625673  1
  O  O222  1  0.41825079  0.02317585  0.23979170  1
  O  O223  1  0.42081273  0.01823172  0.56990004  1
  O  O224  1  0.41863755  0.02259553  0.91083963  1
  O  O225  1  0.42697117  0.51059644  0.23697311  1
  O  O226  1  0.41877960  0.50453291  0.57676277  1
  O  O227  1  0.42384083  0.52355982  0.90785466  1
  O  O228  1  0.73983064  0.01081711  0.26145218  1
  O  O229  1  0.74162276  0.01216158  0.59426274  1
  O  O230  1  0.74737138  0.02095337  0.91968466  1
  O  O231  1  0.74912784  0.52273726  0.25128368  1
  O  O232  1  0.75259288  0.52125407  0.58390358  1
  O  O233  1  0.75149891  0.52126688  0.91859090  1
  O  O234  1  0.25555865  0.23831604  0.25832956  1
  O  O235  1  0.24283145  0.23527979  0.57284141  1
  O  O236  1  0.25158884  0.23757151  0.91261739  1
  O  O237  1  0.25328267  0.74277550  0.24992466  1
  O  O238  1  0.24977148  0.73526990  0.58314172  1
  O  O239  1  0.25654034  0.72755287  0.91795541  1
  O  O240  1  0.58110979  0.22417435  0.25190731  1
  O  O241  1  0.58470188  0.22515191  0.58691320  1
  O  O242  1  0.58684377  0.22357206  0.92301253  1
  O  O243  1  0.58391619  0.72621894  0.24698832  1
  O  O244  1  0.59119413  0.73658698  0.58755858  1
  O  O245  1  0.58393761  0.72575296  0.91665280  1
  O  O246  1  0.91548751  0.24125551  0.25155756  1
  O  O247  1  0.92046196  0.23264400  0.58895891  1
  O  O248  1  0.92004031  0.22906872  0.91907994  1
  O  O249  1  0.91904052  0.73424712  0.25951041  1
  O  O250  1  0.91007633  0.73611201  0.57769799  1
  O  O251  1  0.91546777  0.73040848  0.92371565  1
  O  O252  1  0.07174702  0.48877474  0.07748025  1
  O  O253  1  0.08266960  0.48334252  0.41723620  1
  O  O254  1  0.09027943  0.49437078  0.75421949  1
  O  O255  1  0.08830900  0.98582352  0.08601697  1
  O  O256  1  0.07699705  0.98713059  0.41390275  1
  O  O257  1  0.08498874  0.98294869  0.75195989  1
  O  O258  1  0.41529032  0.47399595  0.06943982  1
  O  O259  1  0.41271125  0.47543829  0.40751382  1
  O  O260  1  0.41506199  0.47845255  0.74373592  1
  O  O261  1  0.40813994  0.98824025  0.07117714  1
  O  O262  1  0.40995630  0.98431221  0.40023356  1
  O  O263  1  0.41079657  0.98391971  0.74061372  1
  O  O264  1  0.74496001  0.47596640  0.08599430  1
  O  O265  1  0.74279163  0.48688344  0.41043121  1
  O  O266  1  0.74423698  0.49816090  0.75301811  1
  O  O267  1  0.74753130  0.98062098  0.08833526  1
  O  O268  1  0.75322911  0.97645227  0.42217921  1
  O  O269  1  0.75201025  0.97755744  0.75552170  1
  O  O270  1  0.25396112  0.26658701  0.07620365  1
  O  O271  1  0.25020480  0.27526138  0.41606356  1
  O  O272  1  0.25471548  0.27207718  0.74407659  1
  O  O273  1  0.24905949  0.77201054  0.08281798  1
  O  O274  1  0.24956398  0.76400877  0.41147882  1
  O  O275  1  0.25023403  0.77171136  0.75106718  1
  O  O276  1  0.58029222  0.27513128  0.08724214  1
  O  O277  1  0.57524025  0.26580504  0.41819290  1
  O  O278  1  0.57484555  0.26046218  0.76375000  1
  O  O279  1  0.58942877  0.75941688  0.07559100  1
  O  O280  1  0.59329523  0.75847715  0.40925567  1
  O  O281  1  0.58893737  0.76171574  0.74725485  1
  O  O282  1  0.91359655  0.27113954  0.08502934  1
  O  O283  1  0.92528276  0.26208120  0.41185764  1
  O  O284  1  0.91782614  0.24749848  0.75481133  1
  O  O285  1  0.90989794  0.76669883  0.09280430  1
  O  O286  1  0.91507188  0.77677360  0.41824689  1
  O  O287  1  0.91901667  0.77062885  0.74755021  1
  O  O288  1  0.25311516  0.48484670  0.07791284  1
  O  O289  1  0.24564808  0.47969692  0.42187198  1
  O  O290  1  0.25358985  0.47900863  0.74848526  1
  O  O291  1  0.24821719  0.97586691  0.08279546  1
  O  O292  1  0.25298513  0.98313289  0.40872011  1
  O  O293  1  0.25038953  0.97686071  0.74893744  1
  O  O294  1  0.57956497  0.47775621  0.08839138  1
  O  O295  1  0.57765349  0.48222545  0.41697746  1
  O  O296  1  0.57343721  0.48991940  0.76407827  1
  O  O297  1  0.58843267  0.99065854  0.07454094  1
  O  O298  1  0.59207426  0.99073244  0.40891515  1
  O  O299  1  0.59384969  0.98724124  0.74406086  1
  O  O300  1  0.91021827  0.47806288  0.08973961  1
  O  O301  1  0.92212449  0.48410095  0.40874099  1
  O  O302  1  0.91454614  0.49769722  0.75887101  1
  O  O303  1  0.91211290  0.98358185  0.08911047  1
  O  O304  1  0.91427974  0.97574957  0.41992620  1
  O  O305  1  0.92196654  0.98213427  0.75054615  1
  O  O306  1  0.07475558  0.26140215  0.07896348  1
  O  O307  1  0.09082192  0.26227105  0.42521978  1
  O  O308  1  0.08908272  0.25797235  0.75816853  1
  O  O309  1  0.08839050  0.76258859  0.08347353  1
  O  O310  1  0.07400032  0.76450434  0.40964809  1
  O  O311  1  0.08613595  0.76538381  0.74774649  1
  O  O312  1  0.41763484  0.27780123  0.07391787  1
  O  O313  1  0.41235164  0.27836946  0.40647753  1
  O  O314  1  0.41469060  0.27289674  0.74313424  1
  O  O315  1  0.40827835  0.76155646  0.07016338  1
  O  O316  1  0.41156631  0.76517757  0.40398772  1
  O  O317  1  0.41153467  0.76334380  0.74466646  1
  O  O318  1  0.74511610  0.27323768  0.08853753  1
  O  O319  1  0.74238262  0.26171708  0.41400403  1
  O  O320  1  0.74701723  0.25038244  0.75534963  1
  O  O321  1  0.74880983  0.76986625  0.08670072  1
  O  O322  1  0.75370781  0.77441981  0.42139633  1
  O  O323  1  0.74845158  0.77253121  0.74940559  1
  O  O324  1  0.25690311  0.01542036  0.25056329  1
  O  O325  1  0.24487651  0.01842177  0.57632399  1
  O  O326  1  0.25290401  0.01884804  0.91521663  1
  O  O327  1  0.25423146  0.50704643  0.25946668  1
  O  O328  1  0.25159596  0.51393723  0.58352659  1
  O  O329  1  0.25723767  0.51400954  0.91574136  1
  O  O330  1  0.57940926  0.02519057  0.24609333  1
  O  O331  1  0.58207270  0.02259753  0.58101493  1
  O  O332  1  0.58238582  0.02367560  0.91381721  1
  O  O333  1  0.58720938  0.52263650  0.25225988  1
  O  O334  1  0.59078754  0.51927743  0.59249310  1
  O  O335  1  0.58920162  0.52733139  0.92451778  1
  O  O336  1  0.91882942  0.00426413  0.25774538  1
  O  O337  1  0.92156555  0.01451487  0.59196118  1
  O  O338  1  0.91768253  0.01959126  0.91556001  1
  O  O339  1  0.91523603  0.52444221  0.25242045  1
  O  O340  1  0.91459698  0.51483576  0.57746168  1
  O  O341  1  0.92004418  0.51930900  0.92888888  1
  O  O342  1  0.07654523  0.23651165  0.26195578  1
  O  O343  1  0.08175437  0.22518135  0.58837929  1
  O  O344  1  0.08281422  0.22666957  0.91910888  1
  O  O345  1  0.08002235  0.73345149  0.25223550  1
  O  O346  1  0.08805862  0.73098480  0.57509969  1
  O  O347  1  0.08860532  0.72959185  0.91513163  1
  O  O348  1  0.42030747  0.22739001  0.24359823  1
  O  O349  1  0.42373812  0.23687142  0.56700381  1
  O  O350  1  0.42082845  0.23136663  0.91037184  1
  O  O351  1  0.42065304  0.73498765  0.23897073  1
  O  O352  1  0.41487983  0.74485158  0.58373078  1
  O  O353  1  0.42028239  0.72338032  0.91121268  1
  O  O354  1  0.74081546  0.23860144  0.25486110  1
  O  O355  1  0.74623746  0.23373597  0.59069618  1
  O  O356  1  0.74801167  0.22960332  0.91978138  1
  O  O357  1  0.74592719  0.72927592  0.25937782  1
  O  O358  1  0.75113904  0.73028980  0.58600737  1
  O  O359  1  0.75062486  0.72776608  0.91794679  1
