# generated using pymatgen
data_Ba17Sr5La8Pr42Mn72O216
_symmetry_space_group_name_H-M   'P 1'
_cell_length_a   16.67446539
_cell_length_b   15.70551959
_cell_length_c   16.82247834
_cell_angle_alpha   90.00257304
_cell_angle_beta   90.00895280
_cell_angle_gamma   90.00140364
_symmetry_Int_Tables_number   1
_chemical_formula_structural   Ba17Sr5La8Pr42Mn72O216
_chemical_formula_sum   'Ba17 Sr5 La8 Pr42 Mn72 O216'
_cell_volume   4405.48979308
_cell_formula_units_Z   1
loop_
 _symmetry_equiv_pos_site_id
 _symmetry_equiv_pos_as_xyz
  1  'x, y, z'
loop_
 _atom_site_type_symbol
 _atom_site_label
 _atom_site_symmetry_multiplicity
 _atom_site_fract_x
 _atom_site_fract_y
 _atom_site_fract_z
 _atom_site_occupancy
  Ba  Ba0  1  0.33382190  0.62515285  0.99815258  1
  Ba  Ba1  1  0.16229901  0.12513612  0.50241576  1
  Ba  Ba2  1  0.66985846  0.37400967  0.00237673  1
  Ba  Ba3  1  0.33193993  0.12407325  0.33387448  1
  Ba  Ba4  1  0.16407955  0.12538790  0.17090476  1
  Ba  Ba5  1  0.16653579  0.37414846  0.16849684  1
  Ba  Ba6  1  -0.00377037  0.62390018  0.33508505  1
  Ba  Ba7  1  0.50467785  0.37437687  0.16492767  1
  Ba  Ba8  1  0.83592361  0.87586755  0.83082921  1
  Ba  Ba9  1  0.50188076  0.62470797  0.16733907  1
  Ba  Ba10  1  0.16622738  0.12585996  0.83503440  1
  Ba  Ba11  1  0.50164466  0.87546837  0.49861517  1
  Ba  Ba12  1  0.50162913  0.87646696  0.16480204  1
  Ba  Ba13  1  0.16317774  0.62444241  0.50129714  1
  Ba  Ba14  1  0.66504020  0.62419169  0.66641511  1
  Ba  Ba15  1  0.00245881  0.87420622  -0.00089469  1
  Ba  Ba16  1  0.50188071  0.62639937  0.49820525  1
  Sr  Sr17  1  0.49825821  0.12591282  0.83314482  1
  Sr  Sr18  1  0.83101099  0.12330643  0.16896530  1
  Sr  Sr19  1  0.66446341  0.62594578  0.33458641  1
  Sr  Sr20  1  -0.00643261  0.12671691  0.33093468  1
  Sr  Sr21  1  0.83614357  0.37631159  0.49823467  1
  La  La22  1  0.17125950  0.87403840  0.83389989  1
  La  La23  1  0.33686086  0.37116856  0.00409736  1
  La  La24  1  0.33040490  0.12321977  0.66182292  1
  La  La25  1  -0.00304863  0.12604345  1.00174951  1
  La  La26  1  -0.00846694  0.62600431  0.66109360  1
  La  La27  1  0.33718869  0.37434337  0.33189960  1
  La  La28  1  0.66159595  0.12406335  0.66670035  1
  La  La29  1  0.16427522  0.62696961  0.17185524  1
  Pr  Pr30  1  0.67216192  0.87647859  0.00408576  1
  Pr  Pr31  1  -0.01176059  0.12319626  0.66211410  1
  Pr  Pr32  1  0.67002356  0.37825132  0.67086221  1
  Pr  Pr33  1  0.16973370  0.87568205  0.16765501  1
  Pr  Pr34  1  0.50000542  0.12805759  0.16648763  1
  Pr  Pr35  1  0.33173660  0.87850155  0.00124106  1
  Pr  Pr36  1  0.49509536  0.12436135  0.50373021  1
  Pr  Pr37  1  0.01013280  0.87515718  0.67333135  1
  Pr  Pr38  1  0.82511646  0.62550309  0.83687185  1
  Pr  Pr39  1  0.00390061  0.87764483  0.33449651  1
  Pr  Pr40  1  0.17745484  0.37461282  0.83538375  1
  Pr  Pr41  1  -0.00353552  0.62217976  1.00016443  1
  Pr  Pr42  1  0.49708289  0.87448094  0.82926519  1
  Pr  Pr43  1  0.33461076  0.62822162  0.32586182  1
  Pr  Pr44  1  0.17058936  0.87431340  0.49880422  1
  Pr  Pr45  1  0.01142758  0.37484136  0.66773319  1
  Pr  Pr46  1  0.50530932  0.37553653  0.49482771  1
  Pr  Pr47  1  0.82721628  0.12862942  0.49874850  1
  Pr  Pr48  1  0.82898621  0.12522966  0.83873226  1
  Pr  Pr49  1  0.66019891  0.12570643  0.99943147  1
  Pr  Pr50  1  0.00575833  0.37284725  0.00263067  1
  Pr  Pr51  1  0.16978056  0.37520325  0.49502400  1
  Pr  Pr52  1  0.82790292  0.62210649  0.50182466  1
  Pr  Pr53  1  0.50385455  0.62506513  0.83541683  1
  Pr  Pr54  1  0.16252892  0.62452745  0.83642459  1
  Pr  Pr55  1  0.66468875  0.87146482  0.67056314  1
  Pr  Pr56  1  0.66967443  0.87246415  0.33420274  1
  Pr  Pr57  1  0.66274723  0.12337330  0.33182839  1
  Pr  Pr58  1  0.33457642  0.87557244  0.66449297  1
  Pr  Pr59  1  0.33661957  0.87620690  0.33305683  1
  Pr  Pr60  1  0.67141257  0.37708829  0.33308235  1
  Pr  Pr61  1  0.83457198  0.87312819  0.49944396  1
  Pr  Pr62  1  0.82834920  0.62644688  0.16890478  1
  Pr  Pr63  1  0.83885317  0.87550697  0.16364256  1
  Pr  Pr64  1  0.00571225  0.37228098  0.33605764  1
  Pr  Pr65  1  0.84091076  0.37450229  0.82888233  1
  Pr  Pr66  1  0.33398304  0.12567958  0.99897084  1
  Pr  Pr67  1  0.33661287  0.37374290  0.66439390  1
  Pr  Pr68  1  0.33232599  0.62595620  0.66095340  1
  Pr  Pr69  1  0.83871099  0.37466070  0.16536818  1
  Pr  Pr70  1  0.50124948  0.37682020  0.83130683  1
  Pr  Pr71  1  0.66011556  0.62487687  0.99984032  1
  Mn  Mn72  1  -0.00155732  -0.00011788  0.16909458  1
  Mn  Mn73  1  -0.00403090  -0.00081808  0.50156202  1
  Mn  Mn74  1  0.00054196  0.00172341  0.83218690  1
  Mn  Mn75  1  -0.00107067  0.50052797  0.16571778  1
  Mn  Mn76  1  -0.00211914  0.49865733  0.50132892  1
  Mn  Mn77  1  0.00079657  0.49968935  0.83263447  1
  Mn  Mn78  1  0.33364989  -0.00018521  0.16575023  1
  Mn  Mn79  1  0.33257164  -0.00126820  0.49952244  1
  Mn  Mn80  1  0.33463480  0.00024749  0.83307332  1
  Mn  Mn81  1  0.33260080  0.49927125  0.16567939  1
  Mn  Mn82  1  0.33475075  0.49978880  0.49934190  1
  Mn  Mn83  1  0.33467141  0.49957957  0.82984271  1
  Mn  Mn84  1  0.66859764  0.00075058  0.16751905  1
  Mn  Mn85  1  0.66853267  0.00127808  0.50008197  1
  Mn  Mn86  1  0.66562293  0.00125910  0.83424487  1
  Mn  Mn87  1  0.67036638  0.50070268  0.16797855  1
  Mn  Mn88  1  0.66788449  0.49762077  0.50063281  1
  Mn  Mn89  1  0.66746310  0.49835952  0.83497706  1
  Mn  Mn90  1  -0.00312212  0.24994405  0.16825762  1
  Mn  Mn91  1  -0.00272289  0.24962808  0.50117694  1
  Mn  Mn92  1  -0.00017409  0.25117049  0.83256318  1
  Mn  Mn93  1  -0.00040120  0.74946551  0.16763070  1
  Mn  Mn94  1  -0.00303884  0.75209054  0.50243854  1
  Mn  Mn95  1  0.00127152  0.74700937  0.83168326  1
  Mn  Mn96  1  0.33447390  0.24962071  0.16654421  1
  Mn  Mn97  1  0.33439618  0.25104495  0.50147776  1
  Mn  Mn98  1  0.33588322  0.25011489  0.83249743  1
  Mn  Mn99  1  0.33251257  0.75187529  0.16465572  1
  Mn  Mn100  1  0.33235540  0.74903032  0.49759105  1
  Mn  Mn101  1  0.33358024  0.74962387  0.82987699  1
  Mn  Mn102  1  0.67055756  0.24730968  0.16800046  1
  Mn  Mn103  1  0.66724080  0.25004142  0.50061041  1
  Mn  Mn104  1  0.66682592  0.25052747  0.83337031  1
  Mn  Mn105  1  0.66905829  0.75203539  0.16767207  1
  Mn  Mn106  1  0.66828839  0.75137940  0.50058485  1
  Mn  Mn107  1  0.66608155  0.75141727  0.83555860  1
  Mn  Mn108  1  0.16648378  0.24891657  0.00041790  1
  Mn  Mn109  1  0.16576655  0.24982312  0.33537468  1
  Mn  Mn110  1  0.16687840  0.25091365  0.66826724  1
  Mn  Mn111  1  0.16613260  0.74880869  0.00094187  1
  Mn  Mn112  1  0.16568136  0.75118546  0.33361548  1
  Mn  Mn113  1  0.16782132  0.74899246  0.66840584  1
  Mn  Mn114  1  0.50040503  0.24757234  -0.00224732  1
  Mn  Mn115  1  0.50214903  0.24909918  0.33405872  1
  Mn  Mn116  1  0.50006561  0.25016160  0.66526335  1
  Mn  Mn117  1  0.50089732  0.75178926  -0.00354971  1
  Mn  Mn118  1  0.50088564  0.75102299  0.33196728  1
  Mn  Mn119  1  0.49853830  0.75099629  0.66727794  1
  Mn  Mn120  1  0.83436875  0.24972914  0.00004465  1
  Mn  Mn121  1  0.83231702  0.25056948  0.33308871  1
  Mn  Mn122  1  0.83197177  0.25104442  0.66714467  1
  Mn  Mn123  1  0.83400944  0.74936632  0.00117053  1
  Mn  Mn124  1  0.83234303  0.75129898  0.33270718  1
  Mn  Mn125  1  0.83265122  0.75133200  0.66510744  1
  Mn  Mn126  1  0.16653311  0.00059374  0.00184714  1
  Mn  Mn127  1  0.16367764  -0.00100388  0.33457445  1
  Mn  Mn128  1  0.16633722  0.00026572  0.66795881  1
  Mn  Mn129  1  0.16609011  0.50080726  0.00022942  1
  Mn  Mn130  1  0.16767238  0.50039019  0.33406775  1
  Mn  Mn131  1  0.16804768  0.49845267  0.66881736  1
  Mn  Mn132  1  0.50060341  -0.00022219  -0.00362544  1
  Mn  Mn133  1  0.50146491  0.00101876  0.33233222  1
  Mn  Mn134  1  0.49985981  0.00047172  0.66744648  1
  Mn  Mn135  1  0.50038872  0.50032075  -0.00197137  1
  Mn  Mn136  1  0.50100039  0.49879523  0.33311533  1
  Mn  Mn137  1  0.49856757  0.49791615  0.66481599  1
  Mn  Mn138  1  0.83423881  0.00163820  0.00155515  1
  Mn  Mn139  1  0.83294729  -0.00077857  0.33340276  1
  Mn  Mn140  1  0.83045899  0.00162134  0.66499711  1
  Mn  Mn141  1  0.83488756  0.50013922  -0.00038920  1
  Mn  Mn142  1  0.83173468  0.49993558  0.33244546  1
  Mn  Mn143  1  0.83413023  0.49697819  0.66647599  1
  O  O144  1  0.17535326  0.12350690  0.01243453  1
  O  O145  1  0.16297065  0.12406921  0.34583950  1
  O  O146  1  0.17625582  0.12434199  0.67854153  1
  O  O147  1  0.16379254  0.62421253  0.02487899  1
  O  O148  1  0.17701177  0.62635991  0.34442507  1
  O  O149  1  0.17760101  0.62104999  0.69326252  1
  O  O150  1  0.49977546  0.12183259  0.02124645  1
  O  O151  1  0.50895260  0.12581564  0.36015091  1
  O  O152  1  0.50129365  0.12514580  0.68556241  1
  O  O153  1  0.50690690  0.62791516  0.00888020  1
  O  O154  1  0.49566685  0.62392629  0.34140961  1
  O  O155  1  0.49111894  0.62485835  0.69160625  1
  O  O156  1  0.84293217  0.12515143  0.01838510  1
  O  O157  1  0.83281358  0.12305861  0.35704944  1
  O  O158  1  0.83819580  0.12774950  0.69434960  1
  O  O159  1  0.83963167  0.62373934  0.02372283  1
  O  O160  1  0.83113477  0.62723938  0.36002759  1
  O  O161  1  0.83968263  0.61939884  0.69167172  1
  O  O162  1  0.15988621  0.37636007  0.32712711  1
  O  O163  1  0.16143661  0.37618367  0.64110962  1
  O  O164  1  0.15941006  0.37703553  0.97818489  1
  O  O165  1  0.15642917  0.87341781  0.31285656  1
  O  O166  1  0.16019917  0.87640925  0.64481409  1
  O  O167  1  0.17139594  0.87435118  0.97699786  1
  O  O168  1  0.49630594  0.37158888  0.32194980  1
  O  O169  1  0.49384033  0.37124219  0.63860747  1
  O  O170  1  0.49458074  0.37315437  0.97623777  1
  O  O171  1  0.49876065  0.87835255  0.32220696  1
  O  O172  1  0.50029062  0.87744637  0.65493089  1
  O  O173  1  0.50146672  0.87684758  0.97302113  1
  O  O174  1  0.82238777  0.37583309  0.30821225  1
  O  O175  1  0.82266694  0.37320316  0.64792452  1
  O  O176  1  0.83869310  0.37679932  0.97201865  1
  O  O177  1  0.82397480  0.87402391  0.30718713  1
  O  O178  1  0.82213732  0.88088417  0.64359482  1
  O  O179  1  0.82624801  0.87620226  0.98661130  1
  O  O180  1  -0.00938647  0.37684374  0.18886376  1
  O  O181  1  0.00206226  0.37354618  0.52393151  1
  O  O182  1  -0.00893732  0.37759844  0.86083015  1
  O  O183  1  -0.00432484  0.87195779  0.18894714  1
  O  O184  1  -0.00981000  0.87618111  0.53032605  1
  O  O185  1  0.00570732  0.87138762  0.84161422  1
  O  O186  1  0.33762664  0.37338410  0.18310432  1
  O  O187  1  0.34089679  0.37548477  0.52173872  1
  O  O188  1  0.33711471  0.37698101  0.85921963  1
  O  O189  1  0.33031097  0.87557717  0.18667226  1
  O  O190  1  0.32840040  0.87366005  0.51972433  1
  O  O191  1  0.33738420  0.87400920  0.85804467  1
  O  O192  1  0.67708088  0.37217919  0.18781952  1
  O  O193  1  0.66246443  0.36995476  0.52775033  1
  O  O194  1  0.66319221  0.37389475  0.84612857  1
  O  O195  1  0.67514146  0.87769937  0.18969675  1
  O  O196  1  0.67548045  0.88157804  0.52793413  1
  O  O197  1  0.66113111  0.87502785  0.85882688  1
  O  O198  1  -0.00503275  0.12703870  0.14751751  1
  O  O199  1  -0.00876301  0.12408200  0.48176536  1
  O  O200  1  -0.00539848  0.13024292  0.80542401  1
  O  O201  1  0.00011824  0.62458430  0.14451495  1
  O  O202  1  -0.00702223  0.62596664  0.49145336  1
  O  O203  1  0.00861039  0.62134440  0.80397944  1
  O  O204  1  0.33701705  0.12362001  0.14422880  1
  O  O205  1  0.33645925  0.12515233  0.49230784  1
  O  O206  1  0.33475181  0.12601821  0.80537595  1
  O  O207  1  0.32407581  0.62688121  0.15863979  1
  O  O208  1  0.33097897  0.62360129  0.47415451  1
  O  O209  1  0.32960674  0.62323486  0.80327283  1
  O  O210  1  0.66865985  0.12218480  0.14391619  1
  O  O211  1  0.66880080  0.12610814  0.47451775  1
  O  O212  1  0.67217420  0.12796525  0.81013182  1
  O  O213  1  0.67625088  0.62911557  0.14388255  1
  O  O214  1  0.67476353  0.62283077  0.48484023  1
  O  O215  1  0.66691354  0.62459786  0.82211143  1
  O  O216  1  0.07280995  0.00700214  0.26161297  1
  O  O217  1  0.06921613  0.01362568  0.59500217  1
  O  O218  1  0.07824743  0.01675699  0.92694281  1
  O  O219  1  0.08272569  0.51308694  0.24728409  1
  O  O220  1  0.07552283  0.51373271  0.60003071  1
  O  O221  1  0.07748018  0.52289806  0.92042947  1
  O  O222  1  0.42046152  0.01579727  0.24182463  1
  O  O223  1  0.41676974  0.01668425  0.58551322  1
  O  O224  1  0.41692490  0.01963143  0.91359316  1
  O  O225  1  0.40914363  0.50984198  0.25939229  1
  O  O226  1  0.40973648  0.51746558  0.58959869  1
  O  O227  1  0.42158168  0.51698642  0.90272418  1
  O  O228  1  0.74157862  0.01737477  0.26115492  1
  O  O229  1  0.74623005  0.03114221  0.58593837  1
  O  O230  1  0.74777887  0.02206057  0.92138682  1
  O  O231  1  0.74890998  0.52240372  0.25275558  1
  O  O232  1  0.75205001  0.51183523  0.58240040  1
  O  O233  1  0.74944504  0.52257092  0.92391467  1
  O  O234  1  0.25302503  0.24841458  0.25380321  1
  O  O235  1  0.25412865  0.24516089  0.58567370  1
  O  O236  1  0.25270553  0.24362106  0.91611722  1
  O  O237  1  0.24518739  0.74088387  0.24647855  1
  O  O238  1  0.24921952  0.73774865  0.58493749  1
  O  O239  1  0.24360069  0.73516989  0.90380620  1
  O  O240  1  0.58342774  0.22770179  0.24829953  1
  O  O241  1  0.57725601  0.22678800  0.57591452  1
  O  O242  1  0.58157691  0.23126945  0.91538268  1
  O  O243  1  0.58758363  0.74563032  0.25067474  1
  O  O244  1  0.58518062  0.74730215  0.58951317  1
  O  O245  1  0.58450999  0.73075956  0.91511662  1
  O  O246  1  0.90600714  0.23997253  0.24241211  1
  O  O247  1  0.90705180  0.22995192  0.57833550  1
  O  O248  1  0.91006982  0.23141823  0.90706424  1
  O  O249  1  0.90860132  0.73614608  0.24359162  1
  O  O250  1  0.90846532  0.73184701  0.57585597  1
  O  O251  1  0.91449935  0.72553758  0.90978211  1
  O  O252  1  0.08026714  0.48683487  0.07986979  1
  O  O253  1  0.08546431  0.48287481  0.42330651  1
  O  O254  1  0.09121710  0.47456544  0.76095080  1
  O  O255  1  0.08937550  0.98484784  0.09374676  1
  O  O256  1  0.08438394  0.97475579  0.42705131  1
  O  O257  1  0.08963060  0.98244883  0.75494647  1
  O  O258  1  0.41635411  0.48792800  0.07618151  1
  O  O259  1  0.42084878  0.47944467  0.42063183  1
  O  O260  1  0.41786329  0.47319469  0.74799664  1
  O  O261  1  0.41112482  0.98625019  0.07188538  1
  O  O262  1  0.41289975  0.98826473  0.41261192  1
  O  O263  1  0.41492491  0.97880111  0.74938998  1
  O  O264  1  0.76391363  0.48702861  0.09296351  1
  O  O265  1  0.74877147  0.47904458  0.41700017  1
  O  O266  1  0.75595380  0.48205536  0.75622085  1
  O  O267  1  0.75348411  0.98139341  0.08812838  1
  O  O268  1  0.75799434  0.98012450  0.42438219  1
  O  O269  1  0.74492219  0.98861896  0.74628937  1
  O  O270  1  0.25686414  0.26243231  0.07789478  1
  O  O271  1  0.25416148  0.27195860  0.42030912  1
  O  O272  1  0.25563299  0.27438324  0.74936358  1
  O  O273  1  0.25181849  0.77290973  0.08101270  1
  O  O274  1  0.24934173  0.77524739  0.41227877  1
  O  O275  1  0.25531702  0.77600564  0.74474155  1
  O  O276  1  0.58704661  0.25041150  0.08160402  1
  O  O277  1  0.59116148  0.27300945  0.41393766  1
  O  O278  1  0.58609350  0.27157513  0.73988681  1
  O  O279  1  0.59408240  0.76548172  0.07462600  1
  O  O280  1  0.59183346  0.76340291  0.41443262  1
  O  O281  1  0.57937451  0.76856642  0.75536523  1
  O  O282  1  0.92117547  0.27287871  0.07550554  1
  O  O283  1  0.92223518  0.27026652  0.40751143  1
  O  O284  1  0.92319129  0.27568595  0.74349186  1
  O  O285  1  0.91645417  0.76193496  0.08426974  1
  O  O286  1  0.91663802  0.77598286  0.41112928  1
  O  O287  1  0.92619442  0.76243274  0.73760703  1
  O  O288  1  0.25353246  0.48278175  0.07345427  1
  O  O289  1  0.25536877  0.47580491  0.41704952  1
  O  O290  1  0.25478144  0.47041567  0.74581505  1
  O  O291  1  0.24982552  0.97710147  0.08349062  1
  O  O292  1  0.24770985  0.97619751  0.41581860  1
  O  O293  1  0.25280133  0.97551267  0.75056239  1
  O  O294  1  0.59329404  0.49664469  0.08165758  1
  O  O295  1  0.58603539  0.47854969  0.41691791  1
  O  O296  1  0.58101019  0.47931174  0.74730987  1
  O  O297  1  0.59223556  0.98629495  0.07446503  1
  O  O298  1  0.59693742  0.98498467  0.40886710  1
  O  O299  1  0.58365745  0.98046814  0.74902105  1
  O  O300  1  0.92399621  0.48055063  0.07202033  1
  O  O301  1  0.91833404  0.47857427  0.40682092  1
  O  O302  1  0.92367070  0.47509999  0.74373494  1
  O  O303  1  0.91627738  0.98571271  0.08349473  1
  O  O304  1  0.91945244  0.97388726  0.41230067  1
  O  O305  1  0.92376468  0.98625641  0.73397775  1
  O  O306  1  0.07914576  0.26046737  0.08245515  1
  O  O307  1  0.08600497  0.26886458  0.42658838  1
  O  O308  1  0.08832229  0.27656572  0.76007730  1
  O  O309  1  0.09001916  0.76347089  0.09473647  1
  O  O310  1  0.08353430  0.77238628  0.42463506  1
  O  O311  1  0.09448608  0.76425001  0.75929186  1
  O  O312  1  0.41589186  0.25852075  0.07691472  1
  O  O313  1  0.42203789  0.26446881  0.42279108  1
  O  O314  1  0.42095690  0.27415506  0.75199471  1
  O  O315  1  0.41363533  0.76640954  0.07342680  1
  O  O316  1  0.41039937  0.76194423  0.41049327  1
  O  O317  1  0.41446257  0.77332130  0.74771000  1
  O  O318  1  0.76070026  0.26234250  0.09277332  1
  O  O319  1  0.75488649  0.26616904  0.42366080  1
  O  O320  1  0.75708370  0.26975946  0.75585194  1
  O  O321  1  0.75416139  0.77066058  0.08819392  1
  O  O322  1  0.75327668  0.77456527  0.41710671  1
  O  O323  1  0.74542233  0.76410546  0.74820512  1
  O  O324  1  0.24718554  -0.00020143  0.25147810  1
  O  O325  1  0.25185974  0.00533997  0.58795048  1
  O  O326  1  0.25764511  0.01109573  0.92156072  1
  O  O327  1  0.24885744  0.51232388  0.25105345  1
  O  O328  1  0.25140662  0.51068638  0.58496100  1
  O  O329  1  0.24028844  0.51264343  0.90457183  1
  O  O330  1  0.58130760  0.02374425  0.24442272  1
  O  O331  1  0.58167445  0.02218735  0.57950740  1
  O  O332  1  0.58483280  0.02262625  0.91601529  1
  O  O333  1  0.58766150  0.50365765  0.25461931  1
  O  O334  1  0.58070869  0.50286611  0.58289620  1
  O  O335  1  0.58219059  0.51590976  0.91327572  1
  O  O336  1  0.90857831  0.00810959  0.24754963  1
  O  O337  1  0.90467585  0.02249064  0.57497459  1
  O  O338  1  0.91376406  0.02028642  0.91000379  1
  O  O339  1  0.90653624  0.51468625  0.23684151  1
  O  O340  1  0.91061027  0.51577197  0.57971639  1
  O  O341  1  0.91199515  0.52658530  0.90676497  1
  O  O342  1  0.07115350  0.24491167  0.25727739  1
  O  O343  1  0.06980114  0.23549843  0.59745258  1
  O  O344  1  0.07151557  0.23648021  0.92383311  1
  O  O345  1  0.08268869  0.73575357  0.25186164  1
  O  O346  1  0.07467158  0.73763914  0.59800347  1
  O  O347  1  0.07874875  0.72486537  0.92146721  1
  O  O348  1  0.42123043  0.23291007  0.24501787  1
  O  O349  1  0.41526573  0.22796844  0.58797778  1
  O  O350  1  0.41290326  0.22897425  0.91744882  1
  O  O351  1  0.40840152  0.74157665  0.25215057  1
  O  O352  1  0.41004651  0.73727899  0.58888780  1
  O  O353  1  0.42323243  0.73486625  0.90252512  1
  O  O354  1  0.74164998  0.23070304  0.26155996  1
  O  O355  1  0.74219971  0.22623697  0.59059849  1
  O  O356  1  0.74875757  0.22711062  0.92434262  1
  O  O357  1  0.75020720  0.73054591  0.25202840  1
  O  O358  1  0.75410916  0.73542716  0.57805531  1
  O  O359  1  0.74788265  0.73007934  0.92112805  1
