# generated using pymatgen
data_Ba17Sr5La8Pr42Mn72O216
_symmetry_space_group_name_H-M   'P 1'
_cell_length_a   16.67043527
_cell_length_b   15.69969947
_cell_length_c   16.82134382
_cell_angle_alpha   90.00569850
_cell_angle_beta   89.96582889
_cell_angle_gamma   89.98074025
_symmetry_Int_Tables_number   1
_chemical_formula_structural   Ba17Sr5La8Pr42Mn72O216
_chemical_formula_sum   'Ba17 Sr5 La8 Pr42 Mn72 O216'
_cell_volume   4402.49490624
_cell_formula_units_Z   1
loop_
 _symmetry_equiv_pos_site_id
 _symmetry_equiv_pos_as_xyz
  1  'x, y, z'
loop_
 _atom_site_type_symbol
 _atom_site_label
 _atom_site_symmetry_multiplicity
 _atom_site_fract_x
 _atom_site_fract_y
 _atom_site_fract_z
 _atom_site_occupancy
  Ba  Ba0  1  0.50081282  0.87388240  0.50111338  1
  Ba  Ba1  1  0.16600734  0.12517239  0.50080871  1
  Ba  Ba2  1  0.50029462  0.37649999  0.50124223  1
  Ba  Ba3  1  0.16764864  0.12458905  0.83431259  1
  Ba  Ba4  1  0.33401311  0.12406271  0.33164783  1
  Ba  Ba5  1  0.66506677  0.62354620  1.00010898  1
  Ba  Ba6  1  0.00135886  0.37771540  0.33189034  1
  Ba  Ba7  1  0.49794903  0.62378395  0.49794256  1
  Ba  Ba8  1  0.66512424  0.37641824  0.00111511  1
  Ba  Ba9  1  0.00134409  0.12554244  0.99979343  1
  Ba  Ba10  1  0.49924387  0.12629137  0.49864795  1
  Ba  Ba11  1  0.66673505  0.87355606  0.66596534  1
  Ba  Ba12  1  0.83337196  0.12561501  0.49980635  1
  Ba  Ba13  1  0.16734513  0.37775298  0.16477895  1
  Ba  Ba14  1  0.83346978  0.12511245  0.83610845  1
  Ba  Ba15  1  0.66645224  0.12592859  1.00065084  1
  Ba  Ba16  1  0.83480698  0.87513579  0.49771813  1
  Sr  Sr17  1  -0.00544138  0.62457977  0.66587497  1
  Sr  Sr18  1  0.33558939  0.62545324  0.33013890  1
  Sr  Sr19  1  0.00401699  0.87320433  0.33911702  1
  Sr  Sr20  1  0.50250229  0.12615485  0.17073176  1
  Sr  Sr21  1  0.00168625  0.37239442  0.00442093  1
  La  La22  1  -0.00377217  0.12239770  0.33116830  1
  La  La23  1  -0.00306036  0.12550349  0.66509862  1
  La  La24  1  0.33340887  0.12538287  1.00076285  1
  La  La25  1  0.66823600  0.87515983  -0.00106494  1
  La  La26  1  0.16061055  0.62618520  0.83311856  1
  La  La27  1  0.00089552  0.87635453  0.66695343  1
  La  La28  1  0.16822827  0.37646255  0.49532734  1
  La  La29  1  0.83666416  0.87654954  0.83103936  1
  Pr  Pr30  1  0.66653605  0.37348021  0.33474402  1
  Pr  Pr31  1  0.49401435  0.37328109  0.16519716  1
  Pr  Pr32  1  0.00391464  0.87660625  0.00173064  1
  Pr  Pr33  1  0.16651895  0.37499722  0.83547844  1
  Pr  Pr34  1  0.33602777  0.87529786  0.33651886  1
  Pr  Pr35  1  0.82944785  0.13039684  0.16869564  1
  Pr  Pr36  1  0.66430463  0.37128258  0.66933945  1
  Pr  Pr37  1  0.83058218  0.62687544  0.83663400  1
  Pr  Pr38  1  -0.00443110  0.62723643  0.33290047  1
  Pr  Pr39  1  0.00049484  0.37409055  0.66847425  1
  Pr  Pr40  1  0.83540432  0.37645875  0.49659680  1
  Pr  Pr41  1  0.83051298  0.62117012  0.16744366  1
  Pr  Pr42  1  0.32911286  0.62471466  0.99663163  1
  Pr  Pr43  1  0.16901595  0.87331416  0.49738890  1
  Pr  Pr44  1  0.66850934  0.62379242  0.66571627  1
  Pr  Pr45  1  0.33392807  0.37400448  0.33468558  1
  Pr  Pr46  1  0.16085739  0.12660100  0.17291587  1
  Pr  Pr47  1  0.16061211  0.62513026  0.17019674  1
  Pr  Pr48  1  0.32842773  0.62497980  0.65745791  1
  Pr  Pr49  1  0.66568128  0.62918199  0.33124803  1
  Pr  Pr50  1  0.49841020  0.87601208  0.16697126  1
  Pr  Pr51  1  0.50412720  0.37672132  0.83115804  1
  Pr  Pr52  1  0.50391806  0.87275561  0.82705380  1
  Pr  Pr53  1  0.49421691  0.62465537  0.83314978  1
  Pr  Pr54  1  0.66904323  0.12429861  0.66550291  1
  Pr  Pr55  1  0.50025499  0.12333194  0.83607165  1
  Pr  Pr56  1  0.83593118  0.37387704  0.83711962  1
  Pr  Pr57  1  0.16919345  0.87535500  0.83088035  1
  Pr  Pr58  1  0.17529088  0.87305013  0.16676047  1
  Pr  Pr59  1  0.33169188  0.12513018  0.65831881  1
  Pr  Pr60  1  0.50408980  0.62374979  0.17126659  1
  Pr  Pr61  1  0.33803803  0.87678295  0.66583337  1
  Pr  Pr62  1  0.83573631  0.37508524  0.15955223  1
  Pr  Pr63  1  0.33587618  0.87533476  -0.00238017  1
  Pr  Pr64  1  0.33223444  0.37331789  0.00171030  1
  Pr  Pr65  1  -0.00299302  0.62103778  0.99939041  1
  Pr  Pr66  1  0.15951810  0.62465395  0.50173081  1
  Pr  Pr67  1  0.33252632  0.37321629  0.66591395  1
  Pr  Pr68  1  0.66401424  0.12151002  0.33054358  1
  Pr  Pr69  1  0.83649372  0.87466155  0.16568392  1
  Pr  Pr70  1  0.83358003  0.62547135  0.50125675  1
  Pr  Pr71  1  0.66668911  0.87626853  0.34120373  1
  Mn  Mn72  1  -0.00014061  -0.00434843  0.16870228  1
  Mn  Mn73  1  0.00155317  -0.00063854  0.49976331  1
  Mn  Mn74  1  0.00212658  -0.00229975  0.83499935  1
  Mn  Mn75  1  -0.00051263  0.50278773  0.16575384  1
  Mn  Mn76  1  -0.00050315  0.50116291  0.50236662  1
  Mn  Mn77  1  -0.00048296  0.50083773  0.83326947  1
  Mn  Mn78  1  0.33349519  -0.00226932  0.16528079  1
  Mn  Mn79  1  0.33260841  -0.00158481  0.50024480  1
  Mn  Mn80  1  0.33405513  -0.00037228  0.83287459  1
  Mn  Mn81  1  0.33476280  0.50334880  0.16434388  1
  Mn  Mn82  1  0.33066517  0.50132987  0.49782934  1
  Mn  Mn83  1  0.33072553  0.50059785  0.83084326  1
  Mn  Mn84  1  0.66832060  -0.00326027  0.16776145  1
  Mn  Mn85  1  0.66678165  0.00175857  0.49993029  1
  Mn  Mn86  1  0.66611995  -0.00104302  0.83464418  1
  Mn  Mn87  1  0.66649367  0.50013360  0.16906730  1
  Mn  Mn88  1  0.66862495  0.49980418  0.50023369  1
  Mn  Mn89  1  0.66639976  0.50053230  0.83162830  1
  Mn  Mn90  1  -0.00022487  0.24926159  0.16648190  1
  Mn  Mn91  1  0.00032103  0.25158594  0.50107949  1
  Mn  Mn92  1  0.00094946  0.25465301  0.83446931  1
  Mn  Mn93  1  -0.00031794  0.75216486  0.16812628  1
  Mn  Mn94  1  0.00035187  0.74870134  0.50132032  1
  Mn  Mn95  1  0.00074657  0.74704548  0.83489215  1
  Mn  Mn96  1  0.33273257  0.24953606  0.16564328  1
  Mn  Mn97  1  0.33292362  0.25184327  0.50039453  1
  Mn  Mn98  1  0.33374592  0.25123622  0.83322285  1
  Mn  Mn99  1  0.33552038  0.74929212  0.16403217  1
  Mn  Mn100  1  0.33035671  0.74875949  0.49772893  1
  Mn  Mn101  1  0.33127245  0.74798897  0.83016998  1
  Mn  Mn102  1  0.66605197  0.25065834  0.16879579  1
  Mn  Mn103  1  0.66742378  0.25143902  0.50097615  1
  Mn  Mn104  1  0.66601759  0.25166663  0.83346982  1
  Mn  Mn105  1  0.66832585  0.75267779  0.16727427  1
  Mn  Mn106  1  0.66745298  0.74721463  0.49882062  1
  Mn  Mn107  1  0.66581349  0.74706793  0.83410827  1
  Mn  Mn108  1  0.16800200  0.24992818  0.00080340  1
  Mn  Mn109  1  0.16605090  0.25064633  0.33327057  1
  Mn  Mn110  1  0.16614509  0.25252182  0.66797729  1
  Mn  Mn111  1  0.16702246  0.74955224  0.00064339  1
  Mn  Mn112  1  0.16733038  0.74830685  0.33284652  1
  Mn  Mn113  1  0.16518870  0.74908526  0.66638788  1
  Mn  Mn114  1  0.49768270  0.24931864  -0.00044911  1
  Mn  Mn115  1  0.50121079  0.25155564  0.33118962  1
  Mn  Mn116  1  0.49888127  0.25058868  0.66975058  1
  Mn  Mn117  1  0.49793178  0.74998989  -0.00038031  1
  Mn  Mn118  1  0.50028015  0.74940051  0.33124917  1
  Mn  Mn119  1  0.49798829  0.74691372  0.66775966  1
  Mn  Mn120  1  0.83418380  0.25075389  0.00033905  1
  Mn  Mn121  1  0.83306347  0.25206072  0.33260926  1
  Mn  Mn122  1  0.83339761  0.25347865  0.66705275  1
  Mn  Mn123  1  0.83529007  0.75063517  0.00012112  1
  Mn  Mn124  1  0.83377910  0.74888970  0.33123107  1
  Mn  Mn125  1  0.83480330  0.74842823  0.66850556  1
  Mn  Mn126  1  0.16948526  -0.00406067  0.00181637  1
  Mn  Mn127  1  0.16522893  -0.00240808  0.33254458  1
  Mn  Mn128  1  0.16642473  -0.00175986  0.66734864  1
  Mn  Mn129  1  0.16705165  0.50375885  -0.00070161  1
  Mn  Mn130  1  0.16839681  0.50283096  0.33339641  1
  Mn  Mn131  1  0.16497746  0.50014881  0.66653072  1
  Mn  Mn132  1  0.49963331  -0.00151792  -0.00059934  1
  Mn  Mn133  1  0.50089660  -0.00042719  0.33110252  1
  Mn  Mn134  1  0.49900632  0.00134426  0.66940007  1
  Mn  Mn135  1  0.49588055  0.50106664  -0.00011707  1
  Mn  Mn136  1  0.50109556  0.50048685  0.33137497  1
  Mn  Mn137  1  0.49817831  0.50084990  0.66818150  1
  Mn  Mn138  1  0.83521366  -0.00432481  0.00037514  1
  Mn  Mn139  1  0.83412724  0.00051931  0.33001608  1
  Mn  Mn140  1  0.83428295  -0.00090863  0.66791926  1
  Mn  Mn141  1  0.83452534  0.50134338  -0.00001647  1
  Mn  Mn142  1  0.83198485  0.49984577  0.33311416  1
  Mn  Mn143  1  0.83289315  0.49896193  0.66653215  1
  O  O144  1  0.17468307  0.11535955  0.02610748  1
  O  O145  1  0.15951345  0.12326790  0.34155551  1
  O  O146  1  0.17230322  0.12580024  0.67945885  1
  O  O147  1  0.17209081  0.62907672  0.02632668  1
  O  O148  1  0.16528908  0.62639921  0.35667623  1
  O  O149  1  0.17471421  0.62397742  0.69219449  1
  O  O150  1  0.49269017  0.12150803  0.02107041  1
  O  O151  1  0.50752882  0.12567696  0.33883452  1
  O  O152  1  0.48561061  0.12773152  0.69190977  1
  O  O153  1  0.48958814  0.62830714  0.02804697  1
  O  O154  1  0.50406112  0.62494628  0.34056361  1
  O  O155  1  0.48214395  0.62309328  0.68767740  1
  O  O156  1  0.83246232  0.11767310  0.02091362  1
  O  O157  1  0.83676050  0.12849190  0.34346488  1
  O  O158  1  0.83437060  0.12685955  0.67992280  1
  O  O159  1  0.83762970  0.62826833  0.02238154  1
  O  O160  1  0.83204336  0.62208750  0.35720405  1
  O  O161  1  0.82856377  0.62137323  0.69409250  1
  O  O162  1  0.17416063  0.37868010  0.32097313  1
  O  O163  1  0.16346421  0.37939355  0.64022039  1
  O  O164  1  0.17311921  0.38349562  0.97979161  1
  O  O165  1  0.16879682  0.87078146  0.30938162  1
  O  O166  1  0.15991365  0.87075331  0.64221450  1
  O  O167  1  0.16850768  0.87015513  0.97479492  1
  O  O168  1  0.50330103  0.37782680  0.30959386  1
  O  O169  1  0.51147806  0.37767430  0.65875388  1
  O  O170  1  0.48905911  0.37515619  0.97322296  1
  O  O171  1  0.50302542  0.87272426  0.31268444  1
  O  O172  1  0.49797673  0.87197554  0.65989200  1
  O  O173  1  0.49658495  0.87339912  0.97024421  1
  O  O174  1  0.82754238  0.37721069  0.30293157  1
  O  O175  1  0.83576228  0.37847867  0.63875184  1
  O  O176  1  0.83974143  0.38109306  0.98557018  1
  O  O177  1  0.82845643  0.87342818  0.30913820  1
  O  O178  1  0.84115564  0.87262337  0.65691593  1
  O  O179  1  0.84219027  0.87018244  0.97750966  1
  O  O180  1  -0.00844516  0.37788348  0.17460040  1
  O  O181  1  -0.00208354  0.37910864  0.52403588  1
  O  O182  1  -0.00262164  0.38086604  0.85462504  1
  O  O183  1  -0.01025598  0.87200709  0.19280782  1
  O  O184  1  0.00630090  0.87081903  0.52225500  1
  O  O185  1  0.00132121  0.86640784  0.85733444  1
  O  O186  1  0.33625613  0.38108979  0.18968924  1
  O  O187  1  0.32461820  0.37835325  0.51873819  1
  O  O188  1  0.32648685  0.37876980  0.86059153  1
  O  O189  1  0.32992905  0.87172921  0.19273468  1
  O  O190  1  0.32539965  0.87169829  0.51954433  1
  O  O191  1  0.32890657  0.86991579  0.85642153  1
  O  O192  1  0.67417006  0.37723104  0.19040309  1
  O  O193  1  0.67374531  0.37723030  0.52605057  1
  O  O194  1  0.65347158  0.37770317  0.84247086  1
  O  O195  1  0.67545719  0.87328447  0.19654193  1
  O  O196  1  0.66712844  0.87428170  0.50618017  1
  O  O197  1  0.65346140  0.86860033  0.85056822  1
  O  O198  1  0.00673329  0.11980225  0.15680675  1
  O  O199  1  0.00080945  0.12702239  0.47909804  1
  O  O200  1  0.00219626  0.13121262  0.81018218  1
  O  O201  1  0.00378128  0.63067494  0.14275113  1
  O  O202  1  0.00162097  0.62446806  0.47740020  1
  O  O203  1  0.00261849  0.62361733  0.81187769  1
  O  O204  1  0.33127971  0.11888874  0.14471122  1
  O  O205  1  0.33267946  0.12502897  0.49555716  1
  O  O206  1  0.33926911  0.12806746  0.80369050  1
  O  O207  1  0.34447074  0.62773047  0.13861963  1
  O  O208  1  0.32625676  0.62529689  0.48218834  1
  O  O209  1  0.33422514  0.62383688  0.79979210  1
  O  O210  1  0.66848650  0.12245693  0.15538813  1
  O  O211  1  0.66804690  0.12911750  0.47811069  1
  O  O212  1  0.66461410  0.12966177  0.81269337  1
  O  O213  1  0.66491880  0.62821653  0.15345983  1
  O  O214  1  0.67683795  0.62109285  0.47527689  1
  O  O215  1  0.67990253  0.62346172  0.81321940  1
  O  O216  1  0.07670816  0.01263410  0.25599875  1
  O  O217  1  0.07801018  0.01356384  0.59449090  1
  O  O218  1  0.08624109  0.00147030  0.92050328  1
  O  O219  1  0.08144153  0.52298617  0.25272826  1
  O  O220  1  0.08143202  0.52111065  0.58888357  1
  O  O221  1  0.08319641  0.52343407  0.91934208  1
  O  O222  1  0.41974720  0.00291056  0.24356289  1
  O  O223  1  0.41167189  0.00786365  0.59261835  1
  O  O224  1  0.41678356  0.02017663  0.91465299  1
  O  O225  1  0.42314447  0.51620873  0.24017276  1
  O  O226  1  0.40653819  0.50757842  0.59050054  1
  O  O227  1  0.40745081  0.52638488  0.91521375  1
  O  O228  1  0.75178770  0.02171259  0.24734264  1
  O  O229  1  0.74579122  0.01374559  0.58990507  1
  O  O230  1  0.74757359  -0.00539645  0.92066832  1
  O  O231  1  0.74948570  0.52474238  0.25275401  1
  O  O232  1  0.75223454  0.52413308  0.58294085  1
  O  O233  1  0.75681064  0.50876979  0.90913103  1
  O  O234  1  0.24500715  0.23502113  0.24251845  1
  O  O235  1  0.25222979  0.24392018  0.59153284  1
  O  O236  1  0.25706986  0.23565304  0.91985061  1
  O  O237  1  0.24575161  0.73060394  0.23887513  1
  O  O238  1  0.24107019  0.72978878  0.57838907  1
  O  O239  1  0.24612750  0.72605965  0.90671742  1
  O  O240  1  0.58896304  0.24024697  0.25375756  1
  O  O241  1  0.58588949  0.23429949  0.59295079  1
  O  O242  1  0.57505438  0.23674332  0.91171047  1
  O  O243  1  0.58477900  0.73420342  0.24766269  1
  O  O244  1  0.58412696  0.72891592  0.59012969  1
  O  O245  1  0.57414481  0.72925983  0.91174086  1
  O  O246  1  0.91423064  0.23279567  0.24724270  1
  O  O247  1  0.92001997  0.24026041  0.58881339  1
  O  O248  1  0.91664762  0.24740367  0.91431709  1
  O  O249  1  0.91306995  0.72385774  0.24543305  1
  O  O250  1  0.91271041  0.72972040  0.57899174  1
  O  O251  1  0.91549026  0.72541103  0.91374184  1
  O  O252  1  0.08329289  0.49821351  0.08158414  1
  O  O253  1  0.08941345  0.48953298  0.42732062  1
  O  O254  1  0.08691155  0.47847682  0.75313016  1
  O  O255  1  0.08770026  0.97242258  0.09037710  1
  O  O256  1  0.09060284  0.97888578  0.42226505  1
  O  O257  1  0.08655790  0.97617967  0.75277015  1
  O  O258  1  0.41584411  0.47428023  0.08126432  1
  O  O259  1  0.41325193  0.48597196  0.40693735  1
  O  O260  1  0.41632066  0.47481382  0.75518011  1
  O  O261  1  0.41695607  0.97352186  0.07990827  1
  O  O262  1  0.41393801  0.98488860  0.41038979  1
  O  O263  1  0.41560104  0.97603304  0.75359355  1
  O  O264  1  0.75502968  0.48999160  0.09103147  1
  O  O265  1  0.75219390  0.47394264  0.41596480  1
  O  O266  1  0.74938696  0.47439345  0.74384179  1
  O  O267  1  0.75339432  0.97266924  0.08529724  1
  O  O268  1  0.74721122  0.99053721  0.40617602  1
  O  O269  1  0.75425879  0.98593232  0.75540078  1
  O  O270  1  0.25663050  0.26343586  0.07733647  1
  O  O271  1  0.25213955  0.26744912  0.41432144  1
  O  O272  1  0.24884894  0.27631449  0.75200535  1
  O  O273  1  0.25698121  0.77121583  0.07760682  1
  O  O274  1  0.25179360  0.77218186  0.41124081  1
  O  O275  1  0.25374099  0.77366584  0.74282285  1
  O  O276  1  0.57693238  0.26668317  0.09000633  1
  O  O277  1  0.58940311  0.26684049  0.41297241  1
  O  O278  1  0.58279202  0.26260512  0.75065461  1
  O  O279  1  0.58659764  0.77548714  0.08538583  1
  O  O280  1  0.58795520  0.75816764  0.40957830  1
  O  O281  1  0.57943300  0.74733213  0.75367237  1
  O  O282  1  0.91399807  0.25919810  0.08815974  1
  O  O283  1  0.91348621  0.26926875  0.41913359  1
  O  O284  1  0.91730551  0.27575134  0.74876580  1
  O  O285  1  0.92207087  0.77047145  0.08099125  1
  O  O286  1  0.92246917  0.75571147  0.40881419  1
  O  O287  1  0.92283815  0.76598056  0.75063382  1
  O  O288  1  0.25943478  0.49130744  0.07168411  1
  O  O289  1  0.25320783  0.48215862  0.41208352  1
  O  O290  1  0.25143340  0.47502903  0.74566945  1
  O  O291  1  0.25396935  0.96971333  0.08040096  1
  O  O292  1  0.25073282  0.97807977  0.41166453  1
  O  O293  1  0.25009172  0.97585168  0.75000352  1
  O  O294  1  0.57721796  0.48717508  0.09436390  1
  O  O295  1  0.59059393  0.48592495  0.41264246  1
  O  O296  1  0.58106601  0.49901254  0.75106796  1
  O  O297  1  0.58504268  0.97234918  0.08401588  1
  O  O298  1  0.58657399  0.98994878  0.41113000  1
  O  O299  1  0.57659080  0.99403278  0.75612803  1
  O  O300  1  0.91493714  0.49365138  0.08588644  1
  O  O301  1  0.91146836  0.48767930  0.41982868  1
  O  O302  1  0.91418407  0.47753621  0.74824959  1
  O  O303  1  0.92089416  0.97501996  0.08173969  1
  O  O304  1  0.92267045  0.99102660  0.40612347  1
  O  O305  1  0.92117056  0.98189983  0.74936558  1
  O  O306  1  0.08572995  0.25522778  0.08629570  1
  O  O307  1  0.08820033  0.26762677  0.42473361  1
  O  O308  1  0.08414315  0.27728994  0.75143621  1
  O  O309  1  0.08677621  0.77402122  0.09241068  1
  O  O310  1  0.09106074  0.76346284  0.42656660  1
  O  O311  1  0.09070640  0.76693698  0.75838904  1
  O  O312  1  0.41420339  0.27086102  0.08036959  1
  O  O313  1  0.41494429  0.26616787  0.40943015  1
  O  O314  1  0.41602638  0.27933724  0.75417483  1
  O  O315  1  0.41817123  0.77960426  0.08284524  1
  O  O316  1  0.41281523  0.76314875  0.40814744  1
  O  O317  1  0.41742006  0.77054014  0.75527968  1
  O  O318  1  0.75488444  0.26226699  0.09248172  1
  O  O319  1  0.75261071  0.27526237  0.41631675  1
  O  O320  1  0.75171079  0.27577806  0.75072777  1
  O  O321  1  0.75349552  0.77279060  0.08550677  1
  O  O322  1  0.74883293  0.76097735  0.40778086  1
  O  O323  1  0.75696771  0.76302607  0.75785181  1
  O  O324  1  0.23919104  0.01023992  0.23949495  1
  O  O325  1  0.25127865  0.00551122  0.58950437  1
  O  O326  1  0.25831199  0.01129208  0.92131183  1
  O  O327  1  0.24967306  0.52540536  0.24051275  1
  O  O328  1  0.24237621  0.52110525  0.57988163  1
  O  O329  1  0.24482587  0.52656280  0.90854221  1
  O  O330  1  0.58831797  0.00932255  0.25128817  1
  O  O331  1  0.58423359  0.01955803  0.59298882  1
  O  O332  1  0.57839314  0.01390914  0.91567465  1
  O  O333  1  0.58796758  0.51889647  0.25289701  1
  O  O334  1  0.58857926  0.51769135  0.58984472  1
  O  O335  1  0.57145288  0.51681079  0.91253543  1
  O  O336  1  0.91040481  0.01917465  0.24108258  1
  O  O337  1  0.92036551  0.01032465  0.58853318  1
  O  O338  1  0.91756425  0.00230963  0.91655317  1
  O  O339  1  0.91538146  0.52492675  0.25028235  1
  O  O340  1  0.91199787  0.52098724  0.58109288  1
  O  O341  1  0.91616802  0.52444801  0.91558055  1
  O  O342  1  0.07900752  0.23505427  0.25263927  1
  O  O343  1  0.07677905  0.23853906  0.59394901  1
  O  O344  1  0.08883430  0.24952224  0.91585955  1
  O  O345  1  0.07908829  0.72751578  0.25507973  1
  O  O346  1  0.08073650  0.72761505  0.58925850  1
  O  O347  1  0.07755422  0.72636454  0.92374554  1
  O  O348  1  0.41946659  0.24530749  0.24333082  1
  O  O349  1  0.41151217  0.24515791  0.59276988  1
  O  O350  1  0.41525130  0.22685253  0.91518840  1
  O  O351  1  0.42151649  0.73643799  0.24176801  1
  O  O352  1  0.40552488  0.73988757  0.59023619  1
  O  O353  1  0.40821741  0.72596617  0.91517878  1
  O  O354  1  0.74795577  0.22991325  0.25381367  1
  O  O355  1  0.74385084  0.23840520  0.59243558  1
  O  O356  1  0.74986191  0.25136189  0.91444424  1
  O  O357  1  0.75201456  0.72620614  0.24780529  1
  O  O358  1  0.74925898  0.72735753  0.58503302  1
  O  O359  1  0.75108327  0.74150209  0.91665590  1
