# generated using pymatgen
data_Ba17Sr5La8Pr42Mn72O216
_symmetry_space_group_name_H-M   'P 1'
_cell_length_a   16.67535550
_cell_length_b   15.70025794
_cell_length_c   16.81585915
_cell_angle_alpha   89.99199053
_cell_angle_beta   89.96122299
_cell_angle_gamma   89.99725665
_symmetry_Int_Tables_number   1
_chemical_formula_structural   Ba17Sr5La8Pr42Mn72O216
_chemical_formula_sum   'Ba17 Sr5 La8 Pr42 Mn72 O216'
_cell_volume   4402.51501377
_cell_formula_units_Z   1
loop_
 _symmetry_equiv_pos_site_id
 _symmetry_equiv_pos_as_xyz
  1  'x, y, z'
loop_
 _atom_site_type_symbol
 _atom_site_label
 _atom_site_symmetry_multiplicity
 _atom_site_fract_x
 _atom_site_fract_y
 _atom_site_fract_z
 _atom_site_occupancy
  Ba  Ba0  1  0.33349066  0.87774141  0.33524689  1
  Ba  Ba1  1  0.83620464  0.62529650  0.50266078  1
  Ba  Ba2  1  -0.00045250  0.87513794  0.00000815  1
  Ba  Ba3  1  0.49731823  0.37380884  0.49812497  1
  Ba  Ba4  1  0.66822384  0.62651822  0.66316260  1
  Ba  Ba5  1  0.66640505  0.37361103  -0.00255484  1
  Ba  Ba6  1  0.66769788  0.12601451  0.99617595  1
  Ba  Ba7  1  -0.00007431  0.37542081  -0.00018931  1
  Ba  Ba8  1  0.33058620  0.37387418  0.66753747  1
  Ba  Ba9  1  0.66780500  0.12349733  0.66363395  1
  Ba  Ba10  1  0.49752781  0.87599960  0.83490221  1
  Ba  Ba11  1  -0.00037041  0.62586278  0.33599549  1
  Ba  Ba12  1  0.50103507  0.62586823  0.83247866  1
  Ba  Ba13  1  0.16450663  0.37397597  0.16735169  1
  Ba  Ba14  1  0.16685970  0.62455237  0.17102457  1
  Ba  Ba15  1  0.66526052  0.87677143  0.00067741  1
  Ba  Ba16  1  0.33273633  0.37442361  0.00119188  1
  Sr  Sr17  1  0.49997046  0.12537573  0.83381336  1
  Sr  Sr18  1  0.17266971  0.62842266  0.50044629  1
  Sr  Sr19  1  0.33683971  0.12389402  0.33318571  1
  Sr  Sr20  1  0.17656301  0.12128124  0.50182507  1
  Sr  Sr21  1  0.33400673  0.87416729  0.00342837  1
  La  La22  1  0.83823584  0.12528044  0.83771444  1
  La  La23  1  0.17223546  0.62536733  0.83505856  1
  La  La24  1  0.33558034  0.62406576  1.00263535  1
  La  La25  1  0.16212394  0.37530892  0.83094920  1
  La  La26  1  0.66546134  0.62239547  0.33254607  1
  La  La27  1  0.32579955  0.37356767  0.33919629  1
  La  La28  1  0.16386249  0.87457721  0.16546427  1
  La  La29  1  0.49915209  0.62686413  0.50291452  1
  Pr  Pr30  1  0.00767656  0.12552690  0.99768134  1
  Pr  Pr31  1  0.33364205  0.62423852  0.33224299  1
  Pr  Pr32  1  0.66146049  0.37538275  0.33341568  1
  Pr  Pr33  1  0.83954017  0.12459015  0.50531783  1
  Pr  Pr34  1  0.32476872  0.87517394  0.67214738  1
  Pr  Pr35  1  0.66317912  0.87192261  0.66918287  1
  Pr  Pr36  1  -0.00687094  0.37710022  0.33516401  1
  Pr  Pr37  1  0.83157191  0.37736662  0.16427814  1
  Pr  Pr38  1  0.16035260  0.37257710  0.49617209  1
  Pr  Pr39  1  0.83126160  0.87186635  0.16169540  1
  Pr  Pr40  1  -0.00801043  0.87443060  0.67084196  1
  Pr  Pr41  1  0.49808717  0.37123586  0.16327664  1
  Pr  Pr42  1  0.00538955  0.12514558  0.33117569  1
  Pr  Pr43  1  0.33836804  0.12467897  1.00017993  1
  Pr  Pr44  1  0.82383520  0.37376921  0.83113884  1
  Pr  Pr45  1  0.66561488  0.12909389  0.32924018  1
  Pr  Pr46  1  0.50344305  0.12518540  0.16299287  1
  Pr  Pr47  1  -0.00314753  0.87296001  0.33386729  1
  Pr  Pr48  1  0.00967864  0.62546139  0.65828071  1
  Pr  Pr49  1  0.49518668  0.12401045  0.50020193  1
  Pr  Pr50  1  0.15877667  0.87695016  0.49879884  1
  Pr  Pr51  1  -0.00548733  0.37549256  0.67115709  1
  Pr  Pr52  1  0.83352103  0.62424351  0.16935261  1
  Pr  Pr53  1  0.66629022  0.87587957  0.33027875  1
  Pr  Pr54  1  0.49553266  0.87894314  0.15704499  1
  Pr  Pr55  1  0.82508765  0.37491113  0.50041881  1
  Pr  Pr56  1  0.49965848  0.62619572  0.16576009  1
  Pr  Pr57  1  0.82886905  0.87482419  0.49962391  1
  Pr  Pr58  1  0.01007940  0.12301324  0.66315771  1
  Pr  Pr59  1  0.34002345  0.62542966  0.66540434  1
  Pr  Pr60  1  0.50002213  0.36974884  0.82680954  1
  Pr  Pr61  1  0.17279780  0.12468064  0.16767520  1
  Pr  Pr62  1  0.50425349  0.87777699  0.49772523  1
  Pr  Pr63  1  0.00884465  0.62448780  1.00117379  1
  Pr  Pr64  1  0.66149760  0.37823611  0.66847812  1
  Pr  Pr65  1  0.67114313  0.62598685  0.99353274  1
  Pr  Pr66  1  0.82601628  0.87685161  0.83284614  1
  Pr  Pr67  1  0.83923614  0.62446664  0.83446931  1
  Pr  Pr68  1  0.83336113  0.12511778  0.16521788  1
  Pr  Pr69  1  0.17469015  0.12456240  0.83531526  1
  Pr  Pr70  1  0.34101970  0.12372297  0.66574027  1
  Pr  Pr71  1  0.15926474  0.87486975  0.83300250  1
  Mn  Mn72  1  -0.00243488  0.00229796  0.16714746  1
  Mn  Mn73  1  -0.00005926  -0.00000877  0.49950534  1
  Mn  Mn74  1  0.00049474  0.00051645  0.83191930  1
  Mn  Mn75  1  -0.00195597  0.49962847  0.16800369  1
  Mn  Mn76  1  0.00158215  0.49793843  0.50316935  1
  Mn  Mn77  1  -0.00046689  0.50246586  0.83122315  1
  Mn  Mn78  1  0.33397591  0.00069044  0.16731704  1
  Mn  Mn79  1  0.33388598  -0.00139445  0.50304631  1
  Mn  Mn80  1  0.33106248  -0.00097274  0.83476964  1
  Mn  Mn81  1  0.33543189  0.49988963  0.16977360  1
  Mn  Mn82  1  0.32976789  0.50102232  0.50014203  1
  Mn  Mn83  1  0.33290933  0.50031246  0.83441944  1
  Mn  Mn84  1  0.66723749  0.00221504  0.16798952  1
  Mn  Mn85  1  0.66838842  0.00093604  0.49594198  1
  Mn  Mn86  1  0.66705694  0.00010698  0.83022520  1
  Mn  Mn87  1  0.66478245  0.50044406  0.16451867  1
  Mn  Mn88  1  0.66592745  0.49855628  0.49859698  1
  Mn  Mn89  1  0.66801607  0.50137979  0.83240301  1
  Mn  Mn90  1  -0.00218880  0.24721217  0.16710211  1
  Mn  Mn91  1  0.00049413  0.24837224  0.50070118  1
  Mn  Mn92  1  0.00099281  0.24865591  0.83145688  1
  Mn  Mn93  1  -0.00182371  0.75144362  0.16775189  1
  Mn  Mn94  1  0.00088364  0.75232129  0.50224323  1
  Mn  Mn95  1  -0.00090585  0.74913739  0.83184057  1
  Mn  Mn96  1  0.33456047  0.24753064  0.16931628  1
  Mn  Mn97  1  0.33053694  0.24786660  0.50051935  1
  Mn  Mn98  1  0.33244993  0.24900032  0.83413478  1
  Mn  Mn99  1  0.33450741  0.75083695  0.16918564  1
  Mn  Mn100  1  0.33347749  0.75293423  0.50191475  1
  Mn  Mn101  1  0.33086191  0.75146586  0.83505601  1
  Mn  Mn102  1  0.66721305  0.25024359  0.16639520  1
  Mn  Mn103  1  0.66759240  0.24801373  0.49697366  1
  Mn  Mn104  1  0.66753360  0.24878283  0.82939953  1
  Mn  Mn105  1  0.66496401  0.74794727  0.16650433  1
  Mn  Mn106  1  0.66673513  0.75346908  0.49736956  1
  Mn  Mn107  1  0.66834229  0.74956668  0.83206925  1
  Mn  Mn108  1  0.16765037  0.24752202  0.00040498  1
  Mn  Mn109  1  0.16536033  0.24600345  0.33467946  1
  Mn  Mn110  1  0.16553061  0.24786141  0.66501369  1
  Mn  Mn111  1  0.16885413  0.75093877  0.00071261  1
  Mn  Mn112  1  0.16654927  0.75302716  0.33529702  1
  Mn  Mn113  1  0.16660026  0.75164447  0.66715975  1
  Mn  Mn114  1  0.49937024  0.25106695  -0.00299989  1
  Mn  Mn115  1  0.49857047  0.24825307  0.33085986  1
  Mn  Mn116  1  0.50085259  0.24759375  0.66494433  1
  Mn  Mn117  1  0.50015686  0.74900810  0.00184617  1
  Mn  Mn118  1  0.50118686  0.75137408  0.33309582  1
  Mn  Mn119  1  0.49772244  0.75189384  0.66352137  1
  Mn  Mn120  1  0.83642201  0.25044501  0.00030159  1
  Mn  Mn121  1  0.83286846  0.24873870  0.33566101  1
  Mn  Mn122  1  0.83594328  0.24858962  0.66653597  1
  Mn  Mn123  1  0.83500425  0.74789141  0.00048780  1
  Mn  Mn124  1  0.83060756  0.75156173  0.33204883  1
  Mn  Mn125  1  0.83522590  0.75140960  0.66764515  1
  Mn  Mn126  1  0.16893009  -0.00125088  0.00100444  1
  Mn  Mn127  1  0.16551054  0.00123613  0.33387771  1
  Mn  Mn128  1  0.16652387  -0.00017976  0.66727619  1
  Mn  Mn129  1  0.16762417  0.50136662  -0.00010845  1
  Mn  Mn130  1  0.16481052  0.49904435  0.33677984  1
  Mn  Mn131  1  0.16600247  0.50025414  0.66488813  1
  Mn  Mn132  1  0.49883650  0.00151996  -0.00206713  1
  Mn  Mn133  1  0.50230267  0.00009193  0.33126451  1
  Mn  Mn134  1  0.49896198  -0.00035090  0.66446381  1
  Mn  Mn135  1  0.50130760  0.49953411  0.00037931  1
  Mn  Mn136  1  0.49830842  0.50135037  0.33150688  1
  Mn  Mn137  1  0.49928243  0.50004592  0.66545010  1
  Mn  Mn138  1  0.83593165  0.00017023  0.00029789  1
  Mn  Mn139  1  0.83253447  0.00157632  0.33430463  1
  Mn  Mn140  1  0.83500108  0.00077363  0.66663613  1
  Mn  Mn141  1  0.83515514  0.50095492  0.00049750  1
  Mn  Mn142  1  0.83050627  0.49904133  0.33309847  1
  Mn  Mn143  1  0.83532501  0.49892872  0.66763272  1
  O  O144  1  0.16366111  0.12059149  0.02188087  1
  O  O145  1  0.15648332  0.12302640  0.35474781  1
  O  O146  1  0.15941579  0.12288879  0.69199718  1
  O  O147  1  0.16196020  0.62832973  0.01134112  1
  O  O148  1  0.17155433  0.62604387  0.34969077  1
  O  O149  1  0.15866709  0.63218283  0.69037935  1
  O  O150  1  0.49583110  0.12698423  0.01713210  1
  O  O151  1  0.50807410  0.12403392  0.35787861  1
  O  O152  1  0.49396068  0.12367901  0.68278550  1
  O  O153  1  0.50550541  0.62308054  0.02185227  1
  O  O154  1  0.50074865  0.62982127  0.36089034  1
  O  O155  1  0.49439348  0.62677772  0.67328097  1
  O  O156  1  0.83925266  0.12601635  0.01871884  1
  O  O157  1  0.82729550  0.12525135  0.36466721  1
  O  O158  1  0.83833968  0.12452388  0.69221888  1
  O  O159  1  0.82576717  0.62388165  0.02433031  1
  O  O160  1  0.82393810  0.62432620  0.34701342  1
  O  O161  1  0.83926636  0.62662613  0.68829974  1
  O  O162  1  0.17294251  0.36993288  0.32572435  1
  O  O163  1  0.15993858  0.36991891  0.64197719  1
  O  O164  1  0.16654107  0.37434651  0.97636117  1
  O  O165  1  0.16197430  0.88043647  0.31044014  1
  O  O166  1  0.17430172  0.87439956  0.64237892  1
  O  O167  1  0.17056488  0.87557956  0.97646374  1
  O  O168  1  0.50275504  0.37266522  0.30697873  1
  O  O169  1  0.50610124  0.37287634  0.65711217  1
  O  O170  1  0.49784423  0.37564523  0.97379283  1
  O  O171  1  0.50888774  0.87402424  0.30187757  1
  O  O172  1  0.49900106  0.87603323  0.64239728  1
  O  O173  1  0.49485780  0.87570230  0.99608847  1
  O  O174  1  0.83714169  0.37156918  0.30801923  1
  O  O175  1  0.84549477  0.37039464  0.64405870  1
  O  O176  1  0.83716981  0.37750700  0.97609239  1
  O  O177  1  0.83347862  0.87986807  0.30415874  1
  O  O178  1  0.84330503  0.87826542  0.64326445  1
  O  O179  1  0.83514960  0.87214733  0.97840398  1
  O  O180  1  -0.00865213  0.36901852  0.19014514  1
  O  O181  1  0.00621663  0.36963592  0.52762194  1
  O  O182  1  0.00922835  0.37438334  0.84349793  1
  O  O183  1  -0.00569672  0.87971811  0.18929729  1
  O  O184  1  0.00024497  0.87745500  0.52621907  1
  O  O185  1  0.00407307  0.87551812  0.84554967  1
  O  O186  1  0.34446182  0.37260319  0.19320400  1
  O  O187  1  0.32284366  0.37336439  0.50908306  1
  O  O188  1  0.33444134  0.37381267  0.84396221  1
  O  O189  1  0.34539674  0.87671517  0.17868259  1
  O  O190  1  0.33940599  0.87601559  0.52825776  1
  O  O191  1  0.32371745  0.87559067  0.85278694  1
  O  O192  1  0.66583329  0.37488299  0.19134561  1
  O  O193  1  0.67044312  0.36879329  0.52314790  1
  O  O194  1  0.66831976  0.37540253  0.84039747  1
  O  O195  1  0.66812488  0.87651896  0.18789515  1
  O  O196  1  0.66496938  0.87931140  0.52386027  1
  O  O197  1  0.67328297  0.87273722  0.84234397  1
  O  O198  1  -0.01152430  0.12380804  0.14126244  1
  O  O199  1  -0.00928451  0.12346449  0.47354295  1
  O  O200  1  -0.00254723  0.12344054  0.80569010  1
  O  O201  1  -0.00855939  0.62774525  0.14840018  1
  O  O202  1  0.00207071  0.62852149  0.49282895  1
  O  O203  1  -0.00538370  0.62777220  0.80235215  1
  O  O204  1  0.32828774  0.12338582  0.14602497  1
  O  O205  1  0.33818942  0.12254508  0.48374062  1
  O  O206  1  0.32474960  0.12373212  0.80827341  1
  O  O207  1  0.33819305  0.62591562  0.14966445  1
  O  O208  1  0.33558590  0.62854144  0.47646562  1
  O  O209  1  0.32518949  0.62717337  0.80901966  1
  O  O210  1  0.66825378  0.12698909  0.15291215  1
  O  O211  1  0.67661553  0.12355813  0.47242463  1
  O  O212  1  0.67592481  0.12603474  0.82044105  1
  O  O213  1  0.66629320  0.62187463  0.13789045  1
  O  O214  1  0.66272035  0.62946052  0.47790607  1
  O  O215  1  0.67732200  0.62538779  0.81969235  1
  O  O216  1  0.08126111  0.02354747  0.24443178  1
  O  O217  1  0.08977452  0.01487545  0.57828859  1
  O  O218  1  0.08964925  0.01887143  0.90940990  1
  O  O219  1  0.08081573  0.50108064  0.25476369  1
  O  O220  1  0.09214912  0.51625928  0.57655641  1
  O  O221  1  0.08611956  0.52151273  0.90495368  1
  O  O222  1  0.42403929  0.01948712  0.24523081  1
  O  O223  1  0.41926011  0.02026905  0.58119309  1
  O  O224  1  0.41397313  0.01910055  0.91507893  1
  O  O225  1  0.41985260  0.52640593  0.25032784  1
  O  O226  1  0.41652026  0.51692223  0.57732011  1
  O  O227  1  0.41457830  0.51865396  0.92470192  1
  O  O228  1  0.75114284  0.02405170  0.25336950  1
  O  O229  1  0.76245662  0.01232746  0.57279627  1
  O  O230  1  0.76309999  0.00979119  0.90725434  1
  O  O231  1  0.74568570  0.51760452  0.24738380  1
  O  O232  1  0.75690976  0.50097292  0.58120185  1
  O  O233  1  0.75953380  0.51625133  0.91002354  1
  O  O234  1  0.25110065  0.23123051  0.25514342  1
  O  O235  1  0.25438856  0.22731554  0.59482003  1
  O  O236  1  0.25314660  0.22580943  0.92047552  1
  O  O237  1  0.25680180  0.73998431  0.25717884  1
  O  O238  1  0.25784451  0.73338622  0.60012342  1
  O  O239  1  0.25354383  0.72794422  0.92071810  1
  O  O240  1  0.58338919  0.23007129  0.24842444  1
  O  O241  1  0.58175453  0.23020830  0.57252290  1
  O  O242  1  0.57923375  0.24348397  0.90743573  1
  O  O243  1  0.58432271  0.72305391  0.25168892  1
  O  O244  1  0.57830648  0.74297343  0.57191044  1
  O  O245  1  0.59065668  0.73602579  0.92495397  1
  O  O246  1  0.91900481  0.22450927  0.25948178  1
  O  O247  1  0.92576114  0.22574691  0.59176038  1
  O  O248  1  0.92731915  0.22765119  0.91991780  1
  O  O249  1  0.90791546  0.73858892  0.24651825  1
  O  O250  1  0.92844023  0.73970990  0.59629309  1
  O  O251  1  0.92185984  0.72341041  0.92058615  1
  O  O252  1  0.07876009  0.49698821  0.07851074  1
  O  O253  1  0.07624156  0.47508886  0.41558793  1
  O  O254  1  0.07202675  0.48609505  0.73773149  1
  O  O255  1  0.08479998  0.98787673  0.08559427  1
  O  O256  1  0.07479765  0.97687997  0.41210971  1
  O  O257  1  0.07609082  0.98001687  0.74088822  1
  O  O258  1  0.42251654  0.48712996  0.09251477  1
  O  O259  1  0.40245461  0.48766371  0.40752635  1
  O  O260  1  0.41628762  0.48997920  0.75298364  1
  O  O261  1  0.41416405  0.99504688  0.08186190  1
  O  O262  1  0.42673732  0.98636808  0.42028599  1
  O  O263  1  0.40267630  0.98601711  0.74275099  1
  O  O264  1  0.75092506  0.48325139  0.08706070  1
  O  O265  1  0.74619157  0.47618000  0.41257726  1
  O  O266  1  0.74819444  0.47839213  0.74384822  1
  O  O267  1  0.75234304  0.98905771  0.09150601  1
  O  O268  1  0.74919888  0.97204958  0.41295934  1
  O  O269  1  0.74915911  0.97667549  0.74022937  1
  O  O270  1  0.24864896  0.25320543  0.08822537  1
  O  O271  1  0.24016819  0.25984319  0.42508315  1
  O  O272  1  0.23592933  0.26217438  0.76129168  1
  O  O273  1  0.25001517  0.76774970  0.09072660  1
  O  O274  1  0.24347016  0.77008439  0.43100876  1
  O  O275  1  0.23653411  0.77166195  0.75689363  1
  O  O276  1  0.57764592  0.26235918  0.08773841  1
  O  O277  1  0.58809008  0.26381936  0.40641580  1
  O  O278  1  0.58542963  0.26579386  0.74593159  1
  O  O279  1  0.57710053  0.76394576  0.09385545  1
  O  O280  1  0.58654207  0.77643417  0.41086185  1
  O  O281  1  0.58350937  0.76378164  0.74124794  1
  O  O282  1  0.90788921  0.26467704  0.09559453  1
  O  O283  1  0.91004199  0.27247060  0.42487597  1
  O  O284  1  0.90939233  0.27019325  0.75946445  1
  O  O285  1  0.91146721  0.76329179  0.08768046  1
  O  O286  1  0.91382506  0.77335437  0.41875730  1
  O  O287  1  0.90988432  0.77257038  0.75863000  1
  O  O288  1  0.25493339  0.49474365  0.08837726  1
  O  O289  1  0.23827578  0.48594495  0.42784232  1
  O  O290  1  0.23436426  0.48698294  0.75854565  1
  O  O291  1  0.24551287  0.98276544  0.09013576  1
  O  O292  1  0.24319312  0.98413244  0.43142312  1
  O  O293  1  0.23710340  0.98072948  0.76057199  1
  O  O294  1  0.57844931  0.47949726  0.08985195  1
  O  O295  1  0.58511225  0.48574566  0.40717282  1
  O  O296  1  0.58238567  0.48350978  0.75245808  1
  O  O297  1  0.57569653  0.99255922  0.09241996  1
  O  O298  1  0.58744718  0.97673115  0.41007203  1
  O  O299  1  0.58517194  0.98482124  0.73953904  1
  O  O300  1  0.90933456  0.48780514  0.09001290  1
  O  O301  1  0.91338274  0.47659262  0.42385139  1
  O  O302  1  0.90689048  0.48052087  0.76210779  1
  O  O303  1  0.90887955  0.98428793  0.09344231  1
  O  O304  1  0.91120297  0.97669455  0.42007183  1
  O  O305  1  0.91044566  0.97922492  0.75629108  1
  O  O306  1  0.07788906  0.25092789  0.07863976  1
  O  O307  1  0.07201031  0.26891457  0.40861485  1
  O  O308  1  0.07308799  0.26397410  0.73855175  1
  O  O309  1  0.08519412  0.76440405  0.08577223  1
  O  O310  1  0.07879666  0.77555977  0.41704163  1
  O  O311  1  0.07761261  0.77322778  0.74062194  1
  O  O312  1  0.41985832  0.26000324  0.08779585  1
  O  O313  1  0.41057481  0.26106984  0.40694709  1
  O  O314  1  0.41905044  0.25914436  0.75544744  1
  O  O315  1  0.41913944  0.75707450  0.08915551  1
  O  O316  1  0.42565784  0.76970793  0.42119616  1
  O  O317  1  0.40449356  0.76438762  0.74256057  1
  O  O318  1  0.75225309  0.26437264  0.09007218  1
  O  O319  1  0.74714410  0.27663817  0.41143316  1
  O  O320  1  0.74784085  0.27324362  0.73920182  1
  O  O321  1  0.75166395  0.76275302  0.08721138  1
  O  O322  1  0.74853504  0.77638269  0.41350112  1
  O  O323  1  0.75128069  0.77212377  0.74429733  1
  O  O324  1  0.24929157  0.01767793  0.24983983  1
  O  O325  1  0.25896500  0.01578026  0.60022880  1
  O  O326  1  0.25388363  0.02455703  0.92229985  1
  O  O327  1  0.25987774  0.50832835  0.26376748  1
  O  O328  1  0.25727418  0.52242000  0.59273278  1
  O  O329  1  0.25279987  0.52089189  0.91917414  1
  O  O330  1  0.58699906  0.02359628  0.25228830  1
  O  O331  1  0.57923314  0.01645226  0.56833790  1
  O  O332  1  0.58161726  0.00913941  0.91446706  1
  O  O333  1  0.58385782  0.52367856  0.24698783  1
  O  O334  1  0.58331964  0.51065765  0.57804729  1
  O  O335  1  0.59407146  0.51652723  0.92222207  1
  O  O336  1  0.91695679  0.02656367  0.25724364  1
  O  O337  1  0.92437072  0.02184100  0.58971182  1
  O  O338  1  0.92625220  0.02180066  0.91897689  1
  O  O339  1  0.90941121  0.51202818  0.24943209  1
  O  O340  1  0.93037272  0.51073558  0.59788068  1
  O  O341  1  0.92460139  0.52795095  0.92181642  1
  O  O342  1  0.08464019  0.22601693  0.24504885  1
  O  O343  1  0.08799419  0.22471584  0.57552003  1
  O  O344  1  0.08934482  0.22696624  0.90748557  1
  O  O345  1  0.07866245  0.75009453  0.25106021  1
  O  O346  1  0.09296458  0.73940188  0.58127899  1
  O  O347  1  0.08554462  0.73278036  0.90762332  1
  O  O348  1  0.42229169  0.22509916  0.24531486  1
  O  O349  1  0.41765795  0.23175012  0.58137239  1
  O  O350  1  0.41305747  0.23026183  0.91812218  1
  O  O351  1  0.41872649  0.72657187  0.25352511  1
  O  O352  1  0.41642053  0.72988449  0.58069245  1
  O  O353  1  0.41551658  0.73564853  0.92398688  1
  O  O354  1  0.75273859  0.22965245  0.25219945  1
  O  O355  1  0.76432435  0.23549404  0.57238723  1
  O  O356  1  0.76141249  0.24177641  0.90532573  1
  O  O357  1  0.74517023  0.73091795  0.24860207  1
  O  O358  1  0.75432321  0.75007316  0.58041676  1
  O  O359  1  0.75916724  0.73080231  0.91423242  1
