# generated using pymatgen
data_Ba17Sr5La8Pr42Mn72O216
_symmetry_space_group_name_H-M   'P 1'
_cell_length_a   16.68021976
_cell_length_b   15.70240312
_cell_length_c   16.82543229
_cell_angle_alpha   90.00111057
_cell_angle_beta   90.01591228
_cell_angle_gamma   90.02379651
_symmetry_Int_Tables_number   1
_chemical_formula_structural   Ba17Sr5La8Pr42Mn72O216
_chemical_formula_sum   'Ba17 Sr5 La8 Pr42 Mn72 O216'
_cell_volume   4406.90884846
_cell_formula_units_Z   1
loop_
 _symmetry_equiv_pos_site_id
 _symmetry_equiv_pos_as_xyz
  1  'x, y, z'
loop_
 _atom_site_type_symbol
 _atom_site_label
 _atom_site_symmetry_multiplicity
 _atom_site_fract_x
 _atom_site_fract_y
 _atom_site_fract_z
 _atom_site_occupancy
  Ba  Ba0  1  0.50079146  0.62470577  0.83513736  1
  Ba  Ba1  1  0.83200725  0.87628300  0.83141192  1
  Ba  Ba2  1  0.33371313  0.12711706  0.33305796  1
  Ba  Ba3  1  0.83151380  0.62302598  0.49692050  1
  Ba  Ba4  1  0.16743395  0.87693523  0.16907700  1
  Ba  Ba5  1  0.16308795  0.62407457  0.83696306  1
  Ba  Ba6  1  0.66730849  0.62402456  0.99865837  1
  Ba  Ba7  1  0.16713336  0.12585191  0.83381233  1
  Ba  Ba8  1  0.33580824  0.12669687  0.66577504  1
  Ba  Ba9  1  0.16571251  0.37539039  0.83221644  1
  Ba  Ba10  1  0.83259602  0.87654077  0.16301018  1
  Ba  Ba11  1  0.49815550  0.87668026  0.16797847  1
  Ba  Ba12  1  0.66543233  0.62382028  0.33233853  1
  Ba  Ba13  1  0.83435058  0.37341607  0.16374590  1
  Ba  Ba14  1  0.16553008  0.62501743  0.50034482  1
  Ba  Ba15  1  0.50232737  0.12642047  0.83284715  1
  Ba  Ba16  1  0.33293290  0.62571792  0.99931038  1
  Sr  Sr17  1  0.33112343  0.37586806  0.66833070  1
  Sr  Sr18  1  0.16830358  0.37486956  0.50089759  1
  Sr  Sr19  1  0.32988874  0.62396279  0.33156460  1
  Sr  Sr20  1  0.67150822  0.12465019  0.33417256  1
  Sr  Sr21  1  -0.00286906  0.62584989  1.00265936  1
  La  La22  1  0.00029273  0.87118204  0.66897603  1
  La  La23  1  0.83143137  0.37599276  0.83311566  1
  La  La24  1  0.33428068  0.37595766  -0.00474184  1
  La  La25  1  0.16355666  0.62554994  0.17159950  1
  La  La26  1  0.66148481  0.37264232  -0.00005380  1
  La  La27  1  0.83608913  0.12418356  0.83004823  1
  La  La28  1  0.83112982  0.62401251  0.16941211  1
  La  La29  1  0.49828090  0.87229499  0.83672462  1
  Pr  Pr30  1  0.33017165  0.87167066  0.33529617  1
  Pr  Pr31  1  0.00328028  0.87422393  0.00396820  1
  Pr  Pr32  1  0.83738834  0.12639337  0.16966415  1
  Pr  Pr33  1  0.33143327  0.87299569  -0.00043763  1
  Pr  Pr34  1  -0.00214941  0.62357131  0.66628991  1
  Pr  Pr35  1  0.33491833  0.11984745  0.99270193  1
  Pr  Pr36  1  0.66068857  0.37235043  0.33710533  1
  Pr  Pr37  1  0.00004344  0.37664445  0.33715002  1
  Pr  Pr38  1  0.49345448  0.87663328  0.49491700  1
  Pr  Pr39  1  -0.00085179  0.37884018  0.66924727  1
  Pr  Pr40  1  0.49371012  0.37401664  0.49961406  1
  Pr  Pr41  1  0.67668724  0.12416664  0.66091426  1
  Pr  Pr42  1  0.16806799  0.12539986  0.16714598  1
  Pr  Pr43  1  -0.00375167  0.12319011  1.00089507  1
  Pr  Pr44  1  0.49786609  0.37515737  0.16940910  1
  Pr  Pr45  1  0.66715342  0.62749930  0.66189065  1
  Pr  Pr46  1  0.16617847  0.87291111  0.83672358  1
  Pr  Pr47  1  0.66320315  0.87478836  0.66711193  1
  Pr  Pr48  1  0.66010345  0.87569984  0.00187207  1
  Pr  Pr49  1  0.17101170  0.12474058  0.50873757  1
  Pr  Pr50  1  0.67605461  0.12329072  1.00001279  1
  Pr  Pr51  1  0.50048275  0.62403100  0.50546840  1
  Pr  Pr52  1  0.83328813  0.62577504  0.83467325  1
  Pr  Pr53  1  0.49489154  0.38001103  0.83127431  1
  Pr  Pr54  1  0.17247455  0.37428821  0.16652687  1
  Pr  Pr55  1  0.00054525  0.87294443  0.33677524  1
  Pr  Pr56  1  0.83133670  0.87519605  0.49181272  1
  Pr  Pr57  1  0.32813431  0.61958376  0.66527492  1
  Pr  Pr58  1  0.33118825  0.37776195  0.33847287  1
  Pr  Pr59  1  0.33069597  0.87242909  0.66839486  1
  Pr  Pr60  1  0.00568245  0.12461543  0.66548277  1
  Pr  Pr61  1  -0.00343519  0.62429910  0.32905196  1
  Pr  Pr62  1  0.00765464  0.37436218  0.00255977  1
  Pr  Pr63  1  0.00213459  0.12550293  0.33234145  1
  Pr  Pr64  1  0.17075059  0.87732733  0.49585197  1
  Pr  Pr65  1  0.51041853  0.12635546  0.50885801  1
  Pr  Pr66  1  0.49597534  0.62515662  0.17144807  1
  Pr  Pr67  1  0.65915784  0.87634915  0.33554058  1
  Pr  Pr68  1  0.66298596  0.37536288  0.66652554  1
  Pr  Pr69  1  0.83147411  0.37446979  0.49223553  1
  Pr  Pr70  1  0.84433459  0.12749493  0.49940037  1
  Pr  Pr71  1  0.50937718  0.12603514  0.17100645  1
  Mn  Mn72  1  0.00089762  0.00188335  0.16792516  1
  Mn  Mn73  1  -0.00006084  -0.00081797  0.50062446  1
  Mn  Mn74  1  0.00011824  0.00031797  0.83374029  1
  Mn  Mn75  1  0.00157729  0.49844568  0.16673060  1
  Mn  Mn76  1  -0.00095254  0.49941269  0.50094778  1
  Mn  Mn77  1  -0.00341983  0.49980787  0.83604029  1
  Mn  Mn78  1  0.33384565  0.00266306  0.16412157  1
  Mn  Mn79  1  0.33537605  0.00030939  0.49926741  1
  Mn  Mn80  1  0.33409726  -0.00187344  0.83240266  1
  Mn  Mn81  1  0.33270087  0.49879522  0.16849729  1
  Mn  Mn82  1  0.33308422  0.50015519  0.50007346  1
  Mn  Mn83  1  0.33247415  0.50007790  0.83244381  1
  Mn  Mn84  1  0.66742336  0.00174864  0.16758763  1
  Mn  Mn85  1  0.66933498  -0.00008292  0.49958131  1
  Mn  Mn86  1  0.66618733  0.00186317  0.83176340  1
  Mn  Mn87  1  0.66493463  0.49783530  0.16617886  1
  Mn  Mn88  1  0.66511016  0.49832898  0.50044298  1
  Mn  Mn89  1  0.66813943  0.49710951  0.83151150  1
  Mn  Mn90  1  0.00352264  0.24928607  0.16845104  1
  Mn  Mn91  1  0.00154855  0.25142676  0.50076411  1
  Mn  Mn92  1  -0.00247684  0.24919964  0.83362459  1
  Mn  Mn93  1  -0.00066655  0.75044211  0.16657220  1
  Mn  Mn94  1  -0.00198234  0.75013503  0.50208174  1
  Mn  Mn95  1  -0.00157507  0.75073650  0.83584426  1
  Mn  Mn96  1  0.33465563  0.25048641  0.16408767  1
  Mn  Mn97  1  0.33367209  0.25170104  0.49925636  1
  Mn  Mn98  1  0.33414795  0.24965590  0.83252191  1
  Mn  Mn99  1  0.33228905  0.75003206  0.16750968  1
  Mn  Mn100  1  0.33460620  0.74754404  0.50151014  1
  Mn  Mn101  1  0.33222647  0.75215201  0.83260178  1
  Mn  Mn102  1  0.66666240  0.25020549  0.16832499  1
  Mn  Mn103  1  0.66887624  0.25031909  0.50006198  1
  Mn  Mn104  1  0.66740084  0.24861705  0.83185153  1
  Mn  Mn105  1  0.66552994  0.74992839  0.16571216  1
  Mn  Mn106  1  0.66594796  0.75149363  0.50004584  1
  Mn  Mn107  1  0.66696016  0.75167203  0.83165308  1
  Mn  Mn108  1  0.16907513  0.25024375  0.00280811  1
  Mn  Mn109  1  0.16562682  0.24993984  0.33443338  1
  Mn  Mn110  1  0.16612772  0.25149235  0.66554205  1
  Mn  Mn111  1  0.16449862  0.75028600  0.00235478  1
  Mn  Mn112  1  0.16491209  0.75016916  0.33550227  1
  Mn  Mn113  1  0.16542946  0.75048109  0.66769990  1
  Mn  Mn114  1  0.49928252  0.24946331  0.00338405  1
  Mn  Mn115  1  0.50034239  0.24807096  0.33519145  1
  Mn  Mn116  1  0.50333282  0.25132396  0.66747460  1
  Mn  Mn117  1  0.50038654  0.75036538  0.00153562  1
  Mn  Mn118  1  0.49777325  0.74919184  0.33451548  1
  Mn  Mn119  1  0.49989722  0.75087548  0.66580493  1
  Mn  Mn120  1  0.83484924  0.24964891  -0.00213031  1
  Mn  Mn121  1  0.83336787  0.24913278  0.33248418  1
  Mn  Mn122  1  0.83469803  0.25195444  0.66284886  1
  Mn  Mn123  1  0.83358160  0.75039765  -0.00130526  1
  Mn  Mn124  1  0.83293353  0.75159383  0.32993986  1
  Mn  Mn125  1  0.83244755  0.75019711  0.66401237  1
  Mn  Mn126  1  0.16688841  0.00150538  0.00159019  1
  Mn  Mn127  1  0.16664705  0.00228521  0.33530717  1
  Mn  Mn128  1  0.16634006  -0.00349140  0.66643549  1
  Mn  Mn129  1  0.16616703  0.49878838  0.00304624  1
  Mn  Mn130  1  0.16413336  0.49896787  0.33368921  1
  Mn  Mn131  1  0.16480635  0.49997962  0.66634014  1
  Mn  Mn132  1  0.50046750  0.00316267  0.00177498  1
  Mn  Mn133  1  0.49977083  0.00293639  0.33459155  1
  Mn  Mn134  1  0.50250045  -0.00231966  0.66559769  1
  Mn  Mn135  1  0.50052787  0.49684577  0.00175080  1
  Mn  Mn136  1  0.49767559  0.49987321  0.33464004  1
  Mn  Mn137  1  0.50025394  0.50010648  0.66678991  1
  Mn  Mn138  1  0.83420793  -0.00005692  -0.00180676  1
  Mn  Mn139  1  0.83353945  0.00083958  0.33167262  1
  Mn  Mn140  1  0.83517626  0.00025262  0.66102173  1
  Mn  Mn141  1  0.83485800  0.49923244  -0.00117679  1
  Mn  Mn142  1  0.83290855  0.49766214  0.33069721  1
  Mn  Mn143  1  0.83148168  0.49762562  0.66604460  1
  O  O144  1  0.17963528  0.12728401  0.02344710  1
  O  O145  1  0.15973386  0.12568208  0.36510396  1
  O  O146  1  0.16075821  0.12259253  0.67460496  1
  O  O147  1  0.16539314  0.62177649  0.02531083  1
  O  O148  1  0.15925241  0.62494325  0.34468963  1
  O  O149  1  0.16751706  0.62770729  0.67848126  1
  O  O150  1  0.48719267  0.12776381  0.02816821  1
  O  O151  1  0.50115832  0.12628113  0.36435856  1
  O  O152  1  0.51042922  0.12412148  0.67410663  1
  O  O153  1  0.50043273  0.61981985  0.02466116  1
  O  O154  1  0.49718238  0.62458673  0.36114549  1
  O  O155  1  0.51102153  0.62650659  0.67938685  1
  O  O156  1  0.83278363  0.12628097  0.02552449  1
  O  O157  1  0.83654805  0.12502891  0.35715608  1
  O  O158  1  0.83047093  0.12739828  0.68657515  1
  O  O159  1  0.83566976  0.62468238  0.02501946  1
  O  O160  1  0.83925848  0.62447042  0.34095765  1
  O  O161  1  0.83024615  0.61895184  0.69085756  1
  O  O162  1  0.16268659  0.37320249  0.30951511  1
  O  O163  1  0.15559896  0.37553477  0.65173673  1
  O  O164  1  0.15750364  0.37293666  0.99039450  1
  O  O165  1  0.16862610  0.87655005  0.32460292  1
  O  O166  1  0.16373274  0.87272127  0.64010718  1
  O  O167  1  0.15709736  0.87844733  0.98296702  1
  O  O168  1  0.50146847  0.37263817  0.31283864  1
  O  O169  1  0.50486560  0.37573389  0.64337716  1
  O  O170  1  0.50456633  0.37045526  0.97750022  1
  O  O171  1  0.50327446  0.87658142  0.32353746  1
  O  O172  1  0.49965188  0.87373135  0.63832476  1
  O  O173  1  0.50897729  0.88103618  0.98302590  1
  O  O174  1  0.83827365  0.37149674  0.32121636  1
  O  O175  1  0.83652031  0.37322242  0.63471136  1
  O  O176  1  0.83847709  0.37107785  0.97660927  1
  O  O177  1  0.84020661  0.87798688  0.31950841  1
  O  O178  1  0.83517169  0.87989191  0.63622255  1
  O  O179  1  0.84014626  0.87762878  0.98675723  1
  O  O180  1  0.00919342  0.37060198  0.19370610  1
  O  O181  1  -0.00883512  0.37262280  0.52548738  1
  O  O182  1  -0.00862442  0.37313174  0.85809318  1
  O  O183  1  -0.00095851  0.87970385  0.19162629  1
  O  O184  1  -0.01099095  0.87804042  0.52604212  1
  O  O185  1  0.00304590  0.87774619  0.85905377  1
  O  O186  1  0.33422040  0.37407556  0.19632383  1
  O  O187  1  0.34056463  0.37625844  0.51775456  1
  O  O188  1  0.34109731  0.37307037  0.84659433  1
  O  O189  1  0.33395216  0.87613768  0.19285600  1
  O  O190  1  0.33679737  0.87329753  0.52339982  1
  O  O191  1  0.33659282  0.87610633  0.85206834  1
  O  O192  1  0.66002871  0.37253977  0.19326938  1
  O  O193  1  0.67562802  0.37270875  0.52306289  1
  O  O194  1  0.67543767  0.37063977  0.85677216  1
  O  O195  1  0.66655194  0.87960564  0.19075889  1
  O  O196  1  0.67773557  0.87744136  0.52391024  1
  O  O197  1  0.66510801  0.88210929  0.85704436  1
  O  O198  1  -0.00184739  0.12672601  0.14516323  1
  O  O199  1  0.00194985  0.12404161  0.47509533  1
  O  O200  1  -0.00515179  0.12460790  0.80815430  1
  O  O201  1  0.00457600  0.62378989  0.15354032  1
  O  O202  1  -0.00014599  0.62461530  0.47402925  1
  O  O203  1  -0.00862538  0.62445762  0.81007187  1
  O  O204  1  0.32628041  0.12955903  0.13726145  1
  O  O205  1  0.32773195  0.12576853  0.49054146  1
  O  O206  1  0.33328849  0.12160111  0.82606884  1
  O  O207  1  0.33452710  0.62275232  0.15621221  1
  O  O208  1  0.34046799  0.62490353  0.48150862  1
  O  O209  1  0.33259414  0.63037673  0.81208088  1
  O  O210  1  0.66398212  0.12756812  0.14470333  1
  O  O211  1  0.65750476  0.12563302  0.48292430  1
  O  O212  1  0.66946437  0.12459749  0.80370734  1
  O  O213  1  0.66334037  0.62096685  0.15572828  1
  O  O214  1  0.65621679  0.62465541  0.48876720  1
  O  O215  1  0.67199800  0.62045703  0.80609230  1
  O  O216  1  0.08208508  0.02369576  0.25336648  1
  O  O217  1  0.08238015  0.01657770  0.58065049  1
  O  O218  1  0.07934573  0.01893734  0.92568565  1
  O  O219  1  0.07646071  0.51719684  0.25638599  1
  O  O220  1  0.07605910  0.51364436  0.58829538  1
  O  O221  1  0.07507797  0.50692191  0.92693627  1
  O  O222  1  0.42236809  0.02303721  0.23842363  1
  O  O223  1  0.43133660  0.01243162  0.56984196  1
  O  O224  1  0.41972463  0.00798897  0.91626433  1
  O  O225  1  0.41297045  0.51514705  0.25423141  1
  O  O226  1  0.41797478  0.52169862  0.58536687  1
  O  O227  1  0.41778723  0.50124049  0.91961094  1
  O  O228  1  0.75604260  0.02248416  0.24135256  1
  O  O229  1  0.75969636  0.02561926  0.57071206  1
  O  O230  1  0.75531405  0.02444862  0.91118779  1
  O  O231  1  0.75157677  0.50934299  0.24351755  1
  O  O232  1  0.74223103  0.51387197  0.59069467  1
  O  O233  1  0.75603283  0.51259141  0.90415846  1
  O  O234  1  0.24469253  0.23562521  0.24087348  1
  O  O235  1  0.24637905  0.24162378  0.57728970  1
  O  O236  1  0.25511884  0.24262814  0.92450849  1
  O  O237  1  0.24577412  0.73465453  0.24798828  1
  O  O238  1  0.25939544  0.73726724  0.59082373  1
  O  O239  1  0.24524574  0.75228694  0.91491936  1
  O  O240  1  0.58752515  0.23154198  0.25998711  1
  O  O241  1  0.59768242  0.23717011  0.59277050  1
  O  O242  1  0.59115069  0.23206095  0.93515066  1
  O  O243  1  0.57660090  0.73550047  0.24906993  1
  O  O244  1  0.58404364  0.73646258  0.58473509  1
  O  O245  1  0.58449933  0.74749594  0.91511374  1
  O  O246  1  0.92095140  0.22872040  0.25181959  1
  O  O247  1  0.92377510  0.22482806  0.58812600  1
  O  O248  1  0.91584878  0.22358073  0.91566999  1
  O  O249  1  0.91633223  0.73068307  0.24662293  1
  O  O250  1  0.91763285  0.73065660  0.58560161  1
  O  O251  1  0.91274401  0.73120898  0.91202403  1
  O  O252  1  0.09020008  0.47983635  0.09403741  1
  O  O253  1  0.08074656  0.47767415  0.41600010  1
  O  O254  1  0.07303613  0.49000751  0.74810643  1
  O  O255  1  0.08221827  0.99478188  0.08464169  1
  O  O256  1  0.07930698  0.97447594  0.42050458  1
  O  O257  1  0.08370448  0.97753371  0.75089056  1
  O  O258  1  0.41934398  0.47782302  0.08983786  1
  O  O259  1  0.41862931  0.47788024  0.41872557  1
  O  O260  1  0.42029156  0.48667758  0.74873570  1
  O  O261  1  0.40834147  0.98470428  0.07302870  1
  O  O262  1  0.41051640  0.97755019  0.41094028  1
  O  O263  1  0.41433624  0.97883354  0.74187157  1
  O  O264  1  0.74710440  0.48241517  0.07461639  1
  O  O265  1  0.74796904  0.47921732  0.41598414  1
  O  O266  1  0.74900896  0.47121466  0.74623923  1
  O  O267  1  0.74179119  0.98903692  0.07152448  1
  O  O268  1  0.74461728  0.97951535  0.40990249  1
  O  O269  1  0.74321861  0.98666510  0.73214132  1
  O  O270  1  0.25360051  0.27770063  0.08368749  1
  O  O271  1  0.24906839  0.27090018  0.41049092  1
  O  O272  1  0.24844579  0.25900823  0.74526307  1
  O  O273  1  0.25397795  0.76670204  0.07887316  1
  O  O274  1  0.25063256  0.76941797  0.42023744  1
  O  O275  1  0.24832205  0.77524372  0.75003457  1
  O  O276  1  0.57451232  0.26729018  0.09499279  1
  O  O277  1  0.57937523  0.27375078  0.42718165  1
  O  O278  1  0.58039402  0.27605342  0.75711041  1
  O  O279  1  0.58630761  0.76508214  0.08125376  1
  O  O280  1  0.58264327  0.77316092  0.42088873  1
  O  O281  1  0.58094262  0.77444477  0.74894066  1
  O  O282  1  0.92780307  0.26225779  0.07816414  1
  O  O283  1  0.91275221  0.26533749  0.42400231  1
  O  O284  1  0.90770029  0.27210684  0.74925910  1
  O  O285  1  0.92343950  0.76385241  0.07769610  1
  O  O286  1  0.91794686  0.77018457  0.41465066  1
  O  O287  1  0.92158516  0.76384142  0.74392433  1
  O  O288  1  0.25393107  0.47620653  0.08347745  1
  O  O289  1  0.25228030  0.48321855  0.41028758  1
  O  O290  1  0.25270920  0.49431562  0.74408971  1
  O  O291  1  0.25400550  0.98269079  0.07816592  1
  O  O292  1  0.25097511  0.98026433  0.41867957  1
  O  O293  1  0.24850828  0.97463658  0.74987825  1
  O  O294  1  0.58249104  0.47354185  0.08406321  1
  O  O295  1  0.58262617  0.47454685  0.41660017  1
  O  O296  1  0.58459746  0.47546780  0.74948246  1
  O  O297  1  0.58206685  0.99453993  0.08674837  1
  O  O298  1  0.58121374  0.97851698  0.42757972  1
  O  O299  1  0.57727578  0.97420539  0.75218399  1
  O  O300  1  0.92825118  0.48245921  0.07771598  1
  O  O301  1  0.91716102  0.47940945  0.41698056  1
  O  O302  1  0.91175256  0.47618548  0.74958718  1
  O  O303  1  0.92262439  0.99174513  0.07794036  1
  O  O304  1  0.91583277  0.98269823  0.41988804  1
  O  O305  1  0.91925604  0.98770848  0.73990224  1
  O  O306  1  0.09208410  0.26295142  0.09422154  1
  O  O307  1  0.07496228  0.27204351  0.41352111  1
  O  O308  1  0.07141704  0.26150615  0.74203332  1
  O  O309  1  0.08178760  0.76387770  0.08659137  1
  O  O310  1  0.08209662  0.77531647  0.42403140  1
  O  O311  1  0.08457086  0.77142101  0.75652586  1
  O  O312  1  0.41485059  0.27877547  0.08192669  1
  O  O313  1  0.41321827  0.27262794  0.41106382  1
  O  O314  1  0.42026407  0.26577796  0.74757140  1
  O  O315  1  0.41399224  0.76379732  0.08146588  1
  O  O316  1  0.41463726  0.77236299  0.41678047  1
  O  O317  1  0.41421880  0.77104293  0.74407077  1
  O  O318  1  0.74269662  0.26294712  0.07096305  1
  O  O319  1  0.74356658  0.26898955  0.41128467  1
  O  O320  1  0.74532089  0.26862515  0.73329412  1
  O  O321  1  0.74585988  0.76587753  0.07379254  1
  O  O322  1  0.74744031  0.77139519  0.41343771  1
  O  O323  1  0.74295079  0.76573628  0.74018271  1
  O  O324  1  0.24777337  0.01949440  0.24368315  1
  O  O325  1  0.24803490  0.00694932  0.57857362  1
  O  O326  1  0.25299169  0.00478837  0.92054147  1
  O  O327  1  0.23935719  0.51196092  0.24320022  1
  O  O328  1  0.25427968  0.51134105  0.58402720  1
  O  O329  1  0.24836541  0.50169642  0.91996983  1
  O  O330  1  0.58765253  0.01903368  0.25670379  1
  O  O331  1  0.59694245  0.01262612  0.59158025  1
  O  O332  1  0.59068522  0.02026761  0.92865078  1
  O  O333  1  0.57157337  0.51240285  0.24541080  1
  O  O334  1  0.58024096  0.51333217  0.58130651  1
  O  O335  1  0.58618963  0.49999704  0.91423189  1
  O  O336  1  0.91925114  0.02532190  0.25121364  1
  O  O337  1  0.92026521  0.02788643  0.58201206  1
  O  O338  1  0.91609272  0.02339812  0.91563696  1
  O  O339  1  0.91740194  0.51530966  0.24680947  1
  O  O340  1  0.91865173  0.51690441  0.59022692  1
  O  O341  1  0.91112266  0.51952398  0.91148474  1
  O  O342  1  0.08352321  0.22208106  0.25285478  1
  O  O343  1  0.08509392  0.22936679  0.57762364  1
  O  O344  1  0.07803487  0.23462198  0.93074770  1
  O  O345  1  0.07476470  0.73783790  0.25834152  1
  O  O346  1  0.07467508  0.73731267  0.59299634  1
  O  O347  1  0.07653811  0.74190248  0.92350960  1
  O  O348  1  0.42526727  0.23369395  0.23838085  1
  O  O349  1  0.43340701  0.23902306  0.57294643  1
  O  O350  1  0.41664819  0.23818404  0.92358913  1
  O  O351  1  0.41514127  0.73273878  0.25195450  1
  O  O352  1  0.42026557  0.72765971  0.58209070  1
  O  O353  1  0.41764383  0.75001183  0.91598991  1
  O  O354  1  0.75626211  0.23067209  0.24198026  1
  O  O355  1  0.76104783  0.22765340  0.57138841  1
  O  O356  1  0.75479922  0.22629607  0.90704973  1
  O  O357  1  0.75300629  0.73729970  0.24263805  1
  O  O358  1  0.74514275  0.73436574  0.58371243  1
  O  O359  1  0.75478986  0.73474529  0.90782150  1
