# generated using pymatgen
data_Ba17Sr5La8Pr42Mn72O216
_symmetry_space_group_name_H-M   'P 1'
_cell_length_a   16.67280044
_cell_length_b   15.70348539
_cell_length_c   16.81932040
_cell_angle_alpha   89.99831310
_cell_angle_beta   90.01605174
_cell_angle_gamma   90.01422838
_symmetry_Int_Tables_number   1
_chemical_formula_structural   Ba17Sr5La8Pr42Mn72O216
_chemical_formula_sum   'Ba17 Sr5 La8 Pr42 Mn72 O216'
_cell_volume   4403.65228868
_cell_formula_units_Z   1
loop_
 _symmetry_equiv_pos_site_id
 _symmetry_equiv_pos_as_xyz
  1  'x, y, z'
loop_
 _atom_site_type_symbol
 _atom_site_label
 _atom_site_symmetry_multiplicity
 _atom_site_fract_x
 _atom_site_fract_y
 _atom_site_fract_z
 _atom_site_occupancy
  Ba  Ba0  1  0.49865698  0.37554727  0.16481487  1
  Ba  Ba1  1  0.83333253  0.37505193  0.49713951  1
  Ba  Ba2  1  0.49646827  0.87332609  0.49793372  1
  Ba  Ba3  1  0.33643771  0.12563707  0.66630249  1
  Ba  Ba4  1  0.00069377  0.87373329  0.33533174  1
  Ba  Ba5  1  0.66549618  0.87491745  0.33520965  1
  Ba  Ba6  1  0.16268724  0.37699082  0.16688170  1
  Ba  Ba7  1  0.00134712  0.12673658  0.66853417  1
  Ba  Ba8  1  0.16706903  0.87315903  0.83477259  1
  Ba  Ba9  1  0.16770191  0.12663353  0.16910010  1
  Ba  Ba10  1  0.00302451  0.62456609  0.66532934  1
  Ba  Ba11  1  0.66613733  0.62272505  0.66662157  1
  Ba  Ba12  1  0.66517300  0.87444869  0.00086295  1
  Ba  Ba13  1  0.00020678  0.87505009  0.66850364  1
  Ba  Ba14  1  0.66713825  0.12480969  0.33203380  1
  Ba  Ba15  1  0.83480526  0.87507604  0.50009166  1
  Ba  Ba16  1  0.66449801  0.37448615  0.33309851  1
  Sr  Sr17  1  0.32865779  0.87401405  0.33489894  1
  Sr  Sr18  1  0.00044003  0.62608781  0.33409259  1
  Sr  Sr19  1  0.67143789  0.12612801  0.99823210  1
  Sr  Sr20  1  0.16964593  0.62318357  0.17325703  1
  Sr  Sr21  1  0.16698390  0.62564636  0.49972788  1
  La  La22  1  -0.00296509  0.87549827  0.00308921  1
  La  La23  1  0.82911144  0.37535662  0.16703966  1
  La  La24  1  0.50690854  0.12448878  0.83401960  1
  La  La25  1  0.50559396  0.12209112  0.49807120  1
  La  La26  1  0.16502174  0.87369791  0.50222596  1
  La  La27  1  -0.00370729  0.37833432  0.66706191  1
  La  La28  1  0.83905492  0.62537037  0.83569390  1
  La  La29  1  0.83280419  0.12224679  0.16558775  1
  Pr  Pr30  1  0.49803492  0.87584685  0.82907589  1
  Pr  Pr31  1  0.16037285  0.37640227  0.50062389  1
  Pr  Pr32  1  0.82883762  0.87669591  0.82574716  1
  Pr  Pr33  1  0.67084937  0.12556062  0.66277866  1
  Pr  Pr34  1  0.66311167  0.87461877  0.67069916  1
  Pr  Pr35  1  0.66919740  0.62114370  0.99471424  1
  Pr  Pr36  1  0.32516272  0.37641976  0.33359902  1
  Pr  Pr37  1  0.00725905  0.62317350  0.99837417  1
  Pr  Pr38  1  0.33612366  0.62681547  0.33134771  1
  Pr  Pr39  1  0.16795291  0.12231382  0.50256948  1
  Pr  Pr40  1  0.32538772  0.37511505  0.00548311  1
  Pr  Pr41  1  0.16975571  0.62860005  0.83508609  1
  Pr  Pr42  1  0.82929030  0.87558518  0.16788455  1
  Pr  Pr43  1  0.00764224  0.12720836  0.99656463  1
  Pr  Pr44  1  0.15980242  0.37449969  0.83340523  1
  Pr  Pr45  1  0.50470409  0.62635104  0.16818051  1
  Pr  Pr46  1  0.49404580  0.37548752  0.83046368  1
  Pr  Pr47  1  0.32835962  0.87532557  0.00466673  1
  Pr  Pr48  1  0.65752571  0.37557194  0.66463713  1
  Pr  Pr49  1  0.00381365  0.37653694  0.33416924  1
  Pr  Pr50  1  0.50487297  0.12314342  0.16715515  1
  Pr  Pr51  1  0.49487456  0.37487642  0.49190493  1
  Pr  Pr52  1  0.32622078  0.37499629  0.66636399  1
  Pr  Pr53  1  0.50486289  0.62772084  0.83515896  1
  Pr  Pr54  1  0.50385543  0.62631453  0.49984439  1
  Pr  Pr55  1  0.33388066  0.62625861  0.66260896  1
  Pr  Pr56  1  0.17210584  0.11912763  0.83872695  1
  Pr  Pr57  1  -0.00300953  0.12446492  0.33301910  1
  Pr  Pr58  1  0.83302601  0.62877883  0.16893954  1
  Pr  Pr59  1  0.49448263  0.87774139  0.16668781  1
  Pr  Pr60  1  0.66221264  0.37513339  0.00587944  1
  Pr  Pr61  1  0.15869176  0.87077025  0.16562936  1
  Pr  Pr62  1  0.33755985  0.12417171  0.33141999  1
  Pr  Pr63  1  0.67146924  0.62593834  0.33636440  1
  Pr  Pr64  1  0.84426296  0.12471230  0.83815366  1
  Pr  Pr65  1  0.83798882  0.62789366  0.49963337  1
  Pr  Pr66  1  0.33941721  0.12987447  0.99572286  1
  Pr  Pr67  1  -0.00752474  0.37481137  0.00552025  1
  Pr  Pr68  1  0.33656349  0.62082119  0.99931310  1
  Pr  Pr69  1  0.82392084  0.37284356  0.82826735  1
  Pr  Pr70  1  0.83177249  0.12369986  0.49745429  1
  Pr  Pr71  1  0.33142422  0.87460787  0.67021548  1
  Mn  Mn72  1  -0.00088864  -0.00022838  0.16665911  1
  Mn  Mn73  1  0.00238388  0.00207879  0.49963628  1
  Mn  Mn74  1  0.00076055  0.00003815  0.83661782  1
  Mn  Mn75  1  -0.00307816  0.50179366  0.16697557  1
  Mn  Mn76  1  0.00063516  0.50098912  0.49966145  1
  Mn  Mn77  1  0.00059981  0.49893215  0.83605681  1
  Mn  Mn78  1  0.33308000  -0.00089692  0.16699901  1
  Mn  Mn79  1  0.33200731  -0.00002764  0.49868034  1
  Mn  Mn80  1  0.33524803  0.00006270  0.83533006  1
  Mn  Mn81  1  0.33403209  0.50141976  0.16622509  1
  Mn  Mn82  1  0.33288798  0.50020857  0.50037669  1
  Mn  Mn83  1  0.33374385  0.49932171  0.83255095  1
  Mn  Mn84  1  0.66567839  -0.00114756  0.16495651  1
  Mn  Mn85  1  0.66694138  0.00033048  0.50139823  1
  Mn  Mn86  1  0.66734704  0.00204152  0.83272138  1
  Mn  Mn87  1  0.66704869  0.50267190  0.16460410  1
  Mn  Mn88  1  0.66513834  0.49946311  0.49968164  1
  Mn  Mn89  1  0.66536914  0.49801100  0.83359168  1
  Mn  Mn90  1  -0.00295452  0.24931328  0.16635357  1
  Mn  Mn91  1  0.00151259  0.24964929  0.49933413  1
  Mn  Mn92  1  0.00153652  0.25257952  0.83523307  1
  Mn  Mn93  1  -0.00078381  0.74873578  0.16623872  1
  Mn  Mn94  1  0.00229980  0.74904059  0.49965455  1
  Mn  Mn95  1  -0.00012062  0.74787562  0.83586376  1
  Mn  Mn96  1  0.33339267  0.24879757  0.16518418  1
  Mn  Mn97  1  0.33317986  0.25063793  0.49876085  1
  Mn  Mn98  1  0.33357483  0.25255306  0.83367044  1
  Mn  Mn99  1  0.33383489  0.75010440  0.16724320  1
  Mn  Mn100  1  0.33107861  0.74868834  0.49919006  1
  Mn  Mn101  1  0.33570069  0.74745565  0.83413166  1
  Mn  Mn102  1  0.66645842  0.24964482  0.16350216  1
  Mn  Mn103  1  0.66555816  0.24959022  0.50073450  1
  Mn  Mn104  1  0.66557718  0.25144486  0.83257786  1
  Mn  Mn105  1  0.66592088  0.74921310  0.16623369  1
  Mn  Mn106  1  0.66662289  0.74819013  0.50105076  1
  Mn  Mn107  1  0.66720957  0.74887620  0.83471739  1
  Mn  Mn108  1  0.16755535  0.25048814  -0.00072786  1
  Mn  Mn109  1  0.16710644  0.25093129  0.33723703  1
  Mn  Mn110  1  0.16726663  0.25137443  0.66774895  1
  Mn  Mn111  1  0.16750792  0.74795389  0.00302955  1
  Mn  Mn112  1  0.16783141  0.74868941  0.33357354  1
  Mn  Mn113  1  0.16909465  0.74820966  0.66691185  1
  Mn  Mn114  1  0.50108514  0.24951732  -0.00325782  1
  Mn  Mn115  1  0.49624929  0.25028512  0.33101325  1
  Mn  Mn116  1  0.49933076  0.25194272  0.66473612  1
  Mn  Mn117  1  0.49776867  0.75001936  0.00064400  1
  Mn  Mn118  1  0.49858153  0.74794021  0.33283129  1
  Mn  Mn119  1  0.49875468  0.74917966  0.66689451  1
  Mn  Mn120  1  0.83333636  0.25127287  -0.00151141  1
  Mn  Mn121  1  0.83548110  0.24983884  0.33064228  1
  Mn  Mn122  1  0.83205376  0.25033574  0.66704478  1
  Mn  Mn123  1  0.83538819  0.74978886  0.00065264  1
  Mn  Mn124  1  0.83410736  0.74776650  0.33359096  1
  Mn  Mn125  1  0.83202869  0.74859068  0.66728219  1
  Mn  Mn126  1  0.16782392  -0.00123380  0.00370192  1
  Mn  Mn127  1  0.16856203  0.00007325  0.33485478  1
  Mn  Mn128  1  0.16879521  0.00171932  0.66863526  1
  Mn  Mn129  1  0.16710822  0.50232643  -0.00000950  1
  Mn  Mn130  1  0.16672951  0.50223269  0.33515937  1
  Mn  Mn131  1  0.16799562  0.49861925  0.66809919  1
  Mn  Mn132  1  0.49885706  -0.00028708  -0.00100906  1
  Mn  Mn133  1  0.49727160  -0.00064538  0.33253549  1
  Mn  Mn134  1  0.50054894  0.00022428  0.66692150  1
  Mn  Mn135  1  0.49964003  0.50083349  -0.00293402  1
  Mn  Mn136  1  0.49788059  0.50119450  0.33252857  1
  Mn  Mn137  1  0.49578686  0.49871483  0.66424504  1
  Mn  Mn138  1  0.83456434  -0.00049782  -0.00054849  1
  Mn  Mn139  1  0.83434970  0.00099820  0.33299302  1
  Mn  Mn140  1  0.83186873  0.00244868  0.66744370  1
  Mn  Mn141  1  0.83422791  0.50022746  0.00000690  1
  Mn  Mn142  1  0.83508004  0.50128298  0.33179450  1
  Mn  Mn143  1  0.83177354  0.49814157  0.66684698  1
  O  O144  1  0.16638601  0.12567733  0.01093768  1
  O  O145  1  0.17127625  0.12944535  0.35932630  1
  O  O146  1  0.16931676  0.13202423  0.69494056  1
  O  O147  1  0.16748965  0.62561981  0.02251813  1
  O  O148  1  0.17541369  0.62349141  0.35111319  1
  O  O149  1  0.17681351  0.61951105  0.69200101  1
  O  O150  1  0.49188155  0.12580480  0.02258802  1
  O  O151  1  0.49054165  0.12716939  0.35258924  1
  O  O152  1  0.50654426  0.12742737  0.69037787  1
  O  O153  1  0.49734533  0.62713482  0.02351567  1
  O  O154  1  0.49153493  0.62298945  0.35566227  1
  O  O155  1  0.49065711  0.62155546  0.69327738  1
  O  O156  1  0.83823288  0.12932884  0.02084607  1
  O  O157  1  0.84002255  0.12795673  0.35014551  1
  O  O158  1  0.82440567  0.12930966  0.69527724  1
  O  O159  1  0.83394052  0.62349137  0.02585424  1
  O  O160  1  0.83172702  0.62278643  0.35256057  1
  O  O161  1  0.83252436  0.61948226  0.69185523  1
  O  O162  1  0.16694539  0.37698309  0.32109054  1
  O  O163  1  0.17152390  0.37531780  0.64550157  1
  O  O164  1  0.16983379  0.37763673  0.97760311  1
  O  O165  1  0.16949663  0.87226526  0.30847704  1
  O  O166  1  0.17777000  0.87290950  0.64987820  1
  O  O167  1  0.16843669  0.87160408  0.99030784  1
  O  O168  1  0.49200192  0.37619706  0.32165457  1
  O  O169  1  0.49738201  0.37573391  0.63759759  1
  O  O170  1  0.50803712  0.37458348  0.97375528  1
  O  O171  1  0.49605624  0.87110049  0.31095345  1
  O  O172  1  0.49866375  0.87555802  0.65554658  1
  O  O173  1  0.49213315  0.87255191  0.97244382  1
  O  O174  1  0.84068367  0.37565605  0.31092474  1
  O  O175  1  0.84170159  0.37329977  0.65500161  1
  O  O176  1  0.83367381  0.37715008  0.97111016  1
  O  O177  1  0.83335470  0.87270746  0.31416364  1
  O  O178  1  0.82645166  0.87751910  0.65919827  1
  O  O179  1  0.83914079  0.87088628  0.97063854  1
  O  O180  1  -0.00765760  0.37669695  0.18942138  1
  O  O181  1  0.00434974  0.37374876  0.52247993  1
  O  O182  1  0.00862808  0.37725617  0.86366110  1
  O  O183  1  0.00649842  0.87487232  0.17920188  1
  O  O184  1  0.00616418  0.87692684  0.50983931  1
  O  O185  1  -0.00736677  0.87546638  0.85615507  1
  O  O186  1  0.33437863  0.37639553  0.18603864  1
  O  O187  1  0.34506372  0.37832158  0.52491536  1
  O  O188  1  0.34312453  0.37818715  0.86366115  1
  O  O189  1  0.34357432  0.87426962  0.18679910  1
  O  O190  1  0.32873866  0.87356577  0.52659385  1
  O  O191  1  0.34389346  0.87540254  0.86034342  1
  O  O192  1  0.67180877  0.37833486  0.17472216  1
  O  O193  1  0.65729721  0.37352335  0.51825843  1
  O  O194  1  0.66894495  0.37425198  0.86318251  1
  O  O195  1  0.67024816  0.87166967  0.17797120  1
  O  O196  1  0.66766490  0.87636424  0.52414176  1
  O  O197  1  0.67123094  0.87447586  0.84575602  1
  O  O198  1  -0.00846372  0.12308923  0.13886775  1
  O  O199  1  0.01140228  0.12842081  0.47782060  1
  O  O200  1  -0.00359117  0.12702744  0.82643639  1
  O  O201  1  -0.01084652  0.62536920  0.13991226  1
  O  O202  1  -0.00279872  0.62220678  0.48636930  1
  O  O203  1  -0.00228187  0.62017057  0.82189651  1
  O  O204  1  0.33668890  0.12191370  0.13881042  1
  O  O205  1  0.32356665  0.12764710  0.47566544  1
  O  O206  1  0.32435895  0.12606663  0.82284440  1
  O  O207  1  0.33691694  0.62681877  0.14214152  1
  O  O208  1  0.33095944  0.62013626  0.47589732  1
  O  O209  1  0.33121559  0.61969313  0.80551492  1
  O  O210  1  0.66463939  0.12393915  0.14915898  1
  O  O211  1  0.66039866  0.12673114  0.49225073  1
  O  O212  1  0.66055781  0.12890110  0.80629194  1
  O  O213  1  0.66690889  0.62679708  0.13784732  1
  O  O214  1  0.65999750  0.62181593  0.48306594  1
  O  O215  1  0.66287953  0.62356430  0.82170183  1
  O  O216  1  0.08021300  0.01755685  0.25474215  1
  O  O217  1  0.08841793  0.01328378  0.58096075  1
  O  O218  1  0.08540427  0.01689190  0.91851283  1
  O  O219  1  0.07938295  0.51422829  0.24909044  1
  O  O220  1  0.08914594  0.50589924  0.58188138  1
  O  O221  1  0.09180304  0.52282849  0.91076147  1
  O  O222  1  0.42037817  0.02149757  0.24083204  1
  O  O223  1  0.42232098  0.01645859  0.57546293  1
  O  O224  1  0.41987973  0.02461117  0.91400524  1
  O  O225  1  0.42013214  0.52358452  0.24582004  1
  O  O226  1  0.41747422  0.52585455  0.57816369  1
  O  O227  1  0.42122724  0.52477280  0.90753033  1
  O  O228  1  0.75695047  0.00956771  0.24232236  1
  O  O229  1  0.75273969  0.02472825  0.58322263  1
  O  O230  1  0.75851353  0.01924950  0.90539714  1
  O  O231  1  0.75063339  0.52256271  0.24503907  1
  O  O232  1  0.74799785  0.50716319  0.57950198  1
  O  O233  1  0.75652607  0.52201496  0.91637718  1
  O  O234  1  0.25720501  0.23904746  0.26340741  1
  O  O235  1  0.25471855  0.24244591  0.58545765  1
  O  O236  1  0.25827322  0.23784004  0.92307305  1
  O  O237  1  0.25868890  0.73195722  0.25547131  1
  O  O238  1  0.25498132  0.72932568  0.58772431  1
  O  O239  1  0.25493559  0.72799827  0.91946724  1
  O  O240  1  0.57862890  0.23697746  0.24748095  1
  O  O241  1  0.59150424  0.23723555  0.59608879  1
  O  O242  1  0.58681793  0.22882555  0.91633100  1
  O  O243  1  0.58565948  0.72408068  0.25269346  1
  O  O244  1  0.57969980  0.73603174  0.58388214  1
  O  O245  1  0.58496033  0.72916406  0.92237131  1
  O  O246  1  0.91712469  0.22565108  0.24616708  1
  O  O247  1  0.91603738  0.23300916  0.57596822  1
  O  O248  1  0.92746307  0.23602864  0.92818770  1
  O  O249  1  0.91212115  0.73513159  0.24367999  1
  O  O250  1  0.91424015  0.73652262  0.58335439  1
  O  O251  1  0.92069912  0.72517332  0.92498586  1
  O  O252  1  0.07165403  0.48800098  0.07337036  1
  O  O253  1  0.08292327  0.48113013  0.41767629  1
  O  O254  1  0.08021583  0.47689106  0.75000060  1
  O  O255  1  0.08032267  0.98349358  0.08304910  1
  O  O256  1  0.09045024  0.99067536  0.42221463  1
  O  O257  1  0.08474276  0.99573150  0.75660010  1
  O  O258  1  0.41061036  0.48591208  0.06906686  1
  O  O259  1  0.40776114  0.48104998  0.41429375  1
  O  O260  1  0.41052884  0.47358561  0.74459097  1
  O  O261  1  0.41017718  0.97744092  0.07802038  1
  O  O262  1  0.40842298  0.99297455  0.40876713  1
  O  O263  1  0.41755475  0.98239659  0.75108079  1
  O  O264  1  0.74924096  0.48148486  0.07647046  1
  O  O265  1  0.74720001  0.49660732  0.41249278  1
  O  O266  1  0.74349022  0.47461766  0.75008034  1
  O  O267  1  0.75434602  0.98817177  0.08186950  1
  O  O268  1  0.75210724  0.99874180  0.41981848  1
  O  O269  1  0.74063191  0.98438241  0.74300957  1
  O  O270  1  0.24941050  0.26457706  0.08237771  1
  O  O271  1  0.24650407  0.27723421  0.42494122  1
  O  O272  1  0.24588469  0.27642122  0.75813222  1
  O  O273  1  0.24691134  0.77070406  0.09032989  1
  O  O274  1  0.24581699  0.76826227  0.42408918  1
  O  O275  1  0.25818779  0.76267982  0.74744585  1
  O  O276  1  0.58343036  0.26210416  0.07712741  1
  O  O277  1  0.57003322  0.25913912  0.42685722  1
  O  O278  1  0.57641380  0.27819815  0.75615453  1
  O  O279  1  0.56954118  0.76501255  0.09268715  1
  O  O280  1  0.58015129  0.75075202  0.41670667  1
  O  O281  1  0.57860999  0.76615130  0.75484061  1
  O  O282  1  0.90685587  0.27591365  0.08521407  1
  O  O283  1  0.92639008  0.26167005  0.40540621  1
  O  O284  1  0.91058949  0.26697952  0.76212854  1
  O  O285  1  0.91487281  0.77503045  0.08348914  1
  O  O286  1  0.91432435  0.74976292  0.41757626  1
  O  O287  1  0.90654950  0.76053896  0.76087197  1
  O  O288  1  0.25099588  0.48801552  0.07964376  1
  O  O289  1  0.24877336  0.47640060  0.42678485  1
  O  O290  1  0.24670313  0.47237124  0.75819256  1
  O  O291  1  0.24683808  0.97475921  0.09198428  1
  O  O292  1  0.24636873  0.97973800  0.42218582  1
  O  O293  1  0.25703978  0.98378008  0.75011310  1
  O  O294  1  0.58722710  0.49078722  0.07687003  1
  O  O295  1  0.57361274  0.48985044  0.42134860  1
  O  O296  1  0.57578426  0.47556395  0.74950864  1
  O  O297  1  0.57204760  0.98606621  0.08817918  1
  O  O298  1  0.57820225  0.99599950  0.42080413  1
  O  O299  1  0.58057852  0.97943633  0.75522793  1
  O  O300  1  0.91126367  0.47544626  0.08367752  1
  O  O301  1  0.92368196  0.48648320  0.40764426  1
  O  O302  1  0.91425645  0.47751862  0.76061145  1
  O  O303  1  0.91373901  0.97490161  0.08699444  1
  O  O304  1  0.92043854  1.00270198  0.41529968  1
  O  O305  1  0.90628241  0.99148498  0.76137912  1
  O  O306  1  0.07128469  0.26279939  0.07274307  1
  O  O307  1  0.08418344  0.27444502  0.41799301  1
  O  O308  1  0.07691992  0.27703351  0.74539363  1
  O  O309  1  0.07837670  0.76512076  0.07972932  1
  O  O310  1  0.08727168  0.75807998  0.41737010  1
  O  O311  1  0.08838865  0.75217529  0.75254677  1
  O  O312  1  0.40926972  0.26651641  0.06657008  1
  O  O313  1  0.40454587  0.26713404  0.40534358  1
  O  O314  1  0.41165772  0.27305751  0.74329780  1
  O  O315  1  0.40954767  0.77037177  0.07615907  1
  O  O316  1  0.40841831  0.75618495  0.41039370  1
  O  O317  1  0.41681122  0.76993459  0.75128618  1
  O  O318  1  0.74631425  0.26878920  0.07174294  1
  O  O319  1  0.75161011  0.25378639  0.41626941  1
  O  O320  1  0.73800602  0.27635303  0.74461801  1
  O  O321  1  0.75710232  0.76401700  0.08762392  1
  O  O322  1  0.74769848  0.74897851  0.41501425  1
  O  O323  1  0.74584544  0.76695627  0.74806631  1
  O  O324  1  0.25872333  0.01653674  0.25740860  1
  O  O325  1  0.24826064  0.01619936  0.57987645  1
  O  O326  1  0.25557715  0.01423823  0.92348550  1
  O  O327  1  0.25755806  0.51385200  0.25850987  1
  O  O328  1  0.26100083  0.51241314  0.59144785  1
  O  O329  1  0.25568699  0.52237589  0.91766934  1
  O  O330  1  0.57751759  0.00958177  0.24611687  1
  O  O331  1  0.58956430  0.01586998  0.59263619  1
  O  O332  1  0.58471431  0.01751523  0.91534690  1
  O  O333  1  0.58549153  0.52378849  0.24997593  1
  O  O334  1  0.57613434  0.51343236  0.58162646  1
  O  O335  1  0.58354961  0.52125878  0.91697832  1
  O  O336  1  0.91716027  0.01897168  0.24680459  1
  O  O337  1  0.91339550  0.01857570  0.58008787  1
  O  O338  1  0.92322353  0.02033308  0.92563718  1
  O  O339  1  0.91121290  0.52083748  0.24331366  1
  O  O340  1  0.91408187  0.51288672  0.57857262  1
  O  O341  1  0.92307110  0.51899046  0.92532447  1
  O  O342  1  0.07886573  0.23767005  0.25879994  1
  O  O343  1  0.09343400  0.23713561  0.57752970  1
  O  O344  1  0.09492687  0.23241611  0.90630040  1
  O  O345  1  0.08692655  0.73518307  0.24357843  1
  O  O346  1  0.09152779  0.74296434  0.58097810  1
  O  O347  1  0.08690734  0.72882113  0.91802993  1
  O  O348  1  0.41847849  0.22540832  0.24153262  1
  O  O349  1  0.42787439  0.23340819  0.56642260  1
  O  O350  1  0.42518269  0.23040010  0.90613302  1
  O  O351  1  0.42307709  0.72756955  0.24195094  1
  O  O352  1  0.41620500  0.72757573  0.58176152  1
  O  O353  1  0.41934079  0.72168222  0.91411667  1
  O  O354  1  0.75837104  0.24011581  0.23869233  1
  O  O355  1  0.75174445  0.23075704  0.58145171  1
  O  O356  1  0.76230762  0.23273327  0.90427950  1
  O  O357  1  0.75002590  0.72747632  0.24993534  1
  O  O358  1  0.75523324  0.73104884  0.57896127  1
  O  O359  1  0.75442364  0.72645344  0.91737324  1
