# generated using pymatgen
data_Ba17Sr5La8Pr42Mn72O216
_symmetry_space_group_name_H-M   'P 1'
_cell_length_a   16.67364411
_cell_length_b   15.70129510
_cell_length_c   16.82037612
_cell_angle_alpha   90.00048658
_cell_angle_beta   90.02126578
_cell_angle_gamma   89.97166709
_symmetry_Int_Tables_number   1
_chemical_formula_structural   Ba17Sr5La8Pr42Mn72O216
_chemical_formula_sum   'Ba17 Sr5 La8 Pr42 Mn72 O216'
_cell_volume   4403.53673227
_cell_formula_units_Z   1
loop_
 _symmetry_equiv_pos_site_id
 _symmetry_equiv_pos_as_xyz
  1  'x, y, z'
loop_
 _atom_site_type_symbol
 _atom_site_label
 _atom_site_symmetry_multiplicity
 _atom_site_fract_x
 _atom_site_fract_y
 _atom_site_fract_z
 _atom_site_occupancy
  Ba  Ba0  1  0.33218441  0.12151402  0.66472439  1
  Ba  Ba1  1  -0.00380027  0.12364976  0.33102120  1
  Ba  Ba2  1  0.16673704  0.37429565  0.49679263  1
  Ba  Ba3  1  0.83073880  0.37245848  0.83479718  1
  Ba  Ba4  1  0.16879719  0.62330255  0.83210881  1
  Ba  Ba5  1  0.50099085  0.37500271  0.49945253  1
  Ba  Ba6  1  0.00174329  0.37540191  0.33225093  1
  Ba  Ba7  1  0.83159515  0.87399953  0.50004957  1
  Ba  Ba8  1  0.16793044  0.37225437  0.83192663  1
  Ba  Ba9  1  0.50031287  0.12298130  0.16939344  1
  Ba  Ba10  1  0.50150142  0.12638711  0.50246908  1
  Ba  Ba11  1  0.33410779  0.62695407  0.66553987  1
  Ba  Ba12  1  0.16699385  0.37441257  0.16491441  1
  Ba  Ba13  1  0.00037232  0.62564475  0.66798370  1
  Ba  Ba14  1  0.17038568  0.62740184  0.16473781  1
  Ba  Ba15  1  0.33113545  0.87581388  0.66506149  1
  Ba  Ba16  1  0.33693703  0.62616742  0.99879166  1
  Sr  Sr17  1  0.83962997  0.62506680  0.16490754  1
  Sr  Sr18  1  0.66626120  0.37607394  0.33409854  1
  Sr  Sr19  1  0.83320049  0.12432695  0.83335124  1
  Sr  Sr20  1  -0.00433550  0.87606577  0.66824936  1
  Sr  Sr21  1  0.16158402  0.87647435  0.16361217  1
  La  La22  1  0.16374588  0.12449984  0.49899649  1
  La  La23  1  0.50398073  0.62706322  0.83808339  1
  La  La24  1  0.66218291  0.37534489  0.66894073  1
  La  La25  1  0.49759694  0.12166319  0.83702984  1
  La  La26  1  0.67045495  0.12796372  0.66653059  1
  La  La27  1  0.50564946  0.62430363  0.50179271  1
  La  La28  1  0.16324495  0.87063298  0.82781000  1
  La  La29  1  0.00755517  0.62374713  0.99583185  1
  Pr  Pr30  1  0.32675188  0.87775669  0.33280354  1
  Pr  Pr31  1  -0.00225239  0.12806943  0.66236626  1
  Pr  Pr32  1  0.84420859  0.62489939  0.83816314  1
  Pr  Pr33  1  0.16831574  0.62262046  0.50288876  1
  Pr  Pr34  1  0.33214415  0.12728040  0.33209737  1
  Pr  Pr35  1  0.66126104  0.87550302  0.67156122  1
  Pr  Pr36  1  0.16657181  0.12262665  0.16950667  1
  Pr  Pr37  1  0.00226981  0.62626923  0.33218039  1
  Pr  Pr38  1  0.83409781  0.37825953  0.49713315  1
  Pr  Pr39  1  0.50817509  0.62727275  0.17222523  1
  Pr  Pr40  1  0.32502812  0.87497346  0.00030721  1
  Pr  Pr41  1  0.00325733  0.37750397  0.00449095  1
  Pr  Pr42  1  0.82933222  0.12717456  0.16984645  1
  Pr  Pr43  1  0.33449470  0.37707948  0.00051186  1
  Pr  Pr44  1  0.83227786  0.87557809  0.16701849  1
  Pr  Pr45  1  0.66642067  0.12525714  0.33603615  1
  Pr  Pr46  1  0.66631770  0.12539224  0.99841994  1
  Pr  Pr47  1  0.33003254  0.12558386  0.99597038  1
  Pr  Pr48  1  0.82951904  0.87512544  0.82529470  1
  Pr  Pr49  1  0.33655610  0.62047135  0.32883551  1
  Pr  Pr50  1  0.49730155  0.37629179  0.83275024  1
  Pr  Pr51  1  0.49141292  0.87444867  0.83350096  1
  Pr  Pr52  1  0.49066588  0.87509124  0.50046264  1
  Pr  Pr53  1  0.83467653  0.37457449  0.16287256  1
  Pr  Pr54  1  0.49848241  0.37394460  0.16823263  1
  Pr  Pr55  1  0.66019948  0.87373893  0.34005582  1
  Pr  Pr56  1  -0.00063946  0.12633734  0.99841317  1
  Pr  Pr57  1  0.66299173  0.87597204  0.00517978  1
  Pr  Pr58  1  0.83905416  0.62337859  0.50199954  1
  Pr  Pr59  1  0.67771766  0.62230019  0.33433263  1
  Pr  Pr60  1  0.00048506  0.37544922  0.66765649  1
  Pr  Pr61  1  -0.00316212  0.87303560  -0.00030202  1
  Pr  Pr62  1  0.83462468  0.12697761  0.50263908  1
  Pr  Pr63  1  0.67792043  0.62698009  1.00022132  1
  Pr  Pr64  1  0.33306055  0.37363713  0.33397311  1
  Pr  Pr65  1  0.66728403  0.37459980  0.00797011  1
  Pr  Pr66  1  0.00371713  0.87207298  0.33575369  1
  Pr  Pr67  1  0.33388720  0.37101044  0.66710891  1
  Pr  Pr68  1  0.16418625  0.87406684  0.50075796  1
  Pr  Pr69  1  0.16401689  0.12060235  0.83189398  1
  Pr  Pr70  1  0.49079205  0.87682564  0.16775206  1
  Pr  Pr71  1  0.67319068  0.62314851  0.66920931  1
  Mn  Mn72  1  -0.00355810  -0.00215741  0.16413444  1
  Mn  Mn73  1  -0.00160047  -0.00113197  0.49958126  1
  Mn  Mn74  1  -0.00355722  0.00166720  0.83333552  1
  Mn  Mn75  1  -0.00035107  0.50315284  0.16620483  1
  Mn  Mn76  1  -0.00011707  0.50118293  0.49913959  1
  Mn  Mn77  1  0.00048847  0.49565852  0.83379269  1
  Mn  Mn78  1  0.33115483  -0.00121798  0.16461076  1
  Mn  Mn79  1  0.33162901  -0.00146848  0.49718134  1
  Mn  Mn80  1  0.33192889  0.00073031  0.83439004  1
  Mn  Mn81  1  0.33811267  0.50006788  0.16523058  1
  Mn  Mn82  1  0.33467045  0.50075289  0.49713012  1
  Mn  Mn83  1  0.33621102  0.49849852  0.83262104  1
  Mn  Mn84  1  0.66761758  -0.00229798  0.17006823  1
  Mn  Mn85  1  0.66632102  -0.00127060  0.50276259  1
  Mn  Mn86  1  0.66609892  -0.00022944  0.83609220  1
  Mn  Mn87  1  0.66865971  0.50155735  0.16843209  1
  Mn  Mn88  1  0.66875490  0.50155034  0.50087415  1
  Mn  Mn89  1  0.66583244  0.50098320  0.83748730  1
  Mn  Mn90  1  -0.00218045  0.24915800  0.16347116  1
  Mn  Mn91  1  -0.00161333  0.24898451  0.49909625  1
  Mn  Mn92  1  -0.00134990  0.24772415  0.83220469  1
  Mn  Mn93  1  -0.00099320  0.75107516  0.16618545  1
  Mn  Mn94  1  -0.00025898  0.75182016  0.49885603  1
  Mn  Mn95  1  -0.00137102  0.75238753  0.83433415  1
  Mn  Mn96  1  0.33472163  0.24874443  0.16429236  1
  Mn  Mn97  1  0.33345628  0.24909337  0.49897575  1
  Mn  Mn98  1  0.33383489  0.24801959  0.83359878  1
  Mn  Mn99  1  0.33520555  0.75152925  0.16631765  1
  Mn  Mn100  1  0.33287210  0.75066804  0.49385998  1
  Mn  Mn101  1  0.33442068  0.75040794  0.83321046  1
  Mn  Mn102  1  0.66663296  0.25000514  0.16908416  1
  Mn  Mn103  1  0.66955787  0.25139358  0.49952198  1
  Mn  Mn104  1  0.66437528  0.24962357  0.83570303  1
  Mn  Mn105  1  0.66792788  0.75073614  0.17037571  1
  Mn  Mn106  1  0.66544924  0.74861322  0.50307124  1
  Mn  Mn107  1  0.66807931  0.75131145  0.83715224  1
  Mn  Mn108  1  0.16610117  0.24708268  -0.00161433  1
  Mn  Mn109  1  0.16743446  0.24794380  0.33089350  1
  Mn  Mn110  1  0.16563797  0.24893756  0.66467630  1
  Mn  Mn111  1  0.16566966  0.75368427  -0.00169860  1
  Mn  Mn112  1  0.16890409  0.75107055  0.33327904  1
  Mn  Mn113  1  0.16439855  0.75026831  0.66364975  1
  Mn  Mn114  1  0.50058294  0.24878147  0.00093463  1
  Mn  Mn115  1  0.50034270  0.24996412  0.33351661  1
  Mn  Mn116  1  0.50147575  0.25100531  0.67050568  1
  Mn  Mn117  1  0.50371404  0.75258833  0.00417998  1
  Mn  Mn118  1  0.50067619  0.75025146  0.33465582  1
  Mn  Mn119  1  0.50234113  0.74853099  0.66856983  1
  Mn  Mn120  1  0.83260570  0.24785850  0.00057083  1
  Mn  Mn121  1  0.83049627  0.25179774  0.33370339  1
  Mn  Mn122  1  0.83231429  0.25073038  0.66597056  1
  Mn  Mn123  1  0.83392208  0.75295677  -0.00152995  1
  Mn  Mn124  1  0.83271158  0.75014527  0.33112173  1
  Mn  Mn125  1  0.83091506  0.74915310  0.66727385  1
  Mn  Mn126  1  0.16371229  0.00131578  -0.00049246  1
  Mn  Mn127  1  0.16562022  -0.00094551  0.33090591  1
  Mn  Mn128  1  0.16164091  -0.00071690  0.66650752  1
  Mn  Mn129  1  0.16836701  0.49844764  -0.00122712  1
  Mn  Mn130  1  0.16927324  0.50232590  0.33294942  1
  Mn  Mn131  1  0.16783393  0.49931788  0.66426008  1
  Mn  Mn132  1  0.49947227  -0.00116515  0.00210651  1
  Mn  Mn133  1  0.49999424  -0.00089917  0.33487893  1
  Mn  Mn134  1  0.50242442  -0.00090632  0.66887521  1
  Mn  Mn135  1  0.50468737  0.49995511  0.00216657  1
  Mn  Mn136  1  0.50221422  0.50086389  0.33351161  1
  Mn  Mn137  1  0.50092690  0.50125695  0.66913600  1
  Mn  Mn138  1  0.83222688  -0.00114872  -0.00099886  1
  Mn  Mn139  1  0.83006699  -0.00131101  0.33243778  1
  Mn  Mn140  1  0.83163034  0.00036988  0.66726808  1
  Mn  Mn141  1  0.83347734  0.50061938  0.00034387  1
  Mn  Mn142  1  0.83470246  0.50076166  0.33136923  1
  Mn  Mn143  1  0.83197990  0.49903276  0.66735977  1
  O  O144  1  0.16990084  0.12283118  0.02648729  1
  O  O145  1  0.17442750  0.12080701  0.35223293  1
  O  O146  1  0.15774440  0.12344436  0.68797021  1
  O  O147  1  0.16025055  0.62829594  0.00563984  1
  O  O148  1  0.17625196  0.63128507  0.35610538  1
  O  O149  1  0.16683192  0.62668319  0.67246954  1
  O  O150  1  0.49655446  0.12313222  0.01524059  1
  O  O151  1  0.50037327  0.12308561  0.34479047  1
  O  O152  1  0.50961865  0.12721232  0.69178785  1
  O  O153  1  0.50605516  0.63106098  0.02888698  1
  O  O154  1  0.48767579  0.63075009  0.35690768  1
  O  O155  1  0.50598283  0.62576216  0.69345125  1
  O  O156  1  0.83195353  0.12104443  0.02771372  1
  O  O157  1  0.82585649  0.12262702  0.35813063  1
  O  O158  1  0.83304032  0.12543308  0.68457362  1
  O  O159  1  0.83258471  0.62772637  0.01603664  1
  O  O160  1  0.83384854  0.62657317  0.35773542  1
  O  O161  1  0.82611306  0.62321650  0.69407581  1
  O  O162  1  0.17386689  0.37240608  0.32128723  1
  O  O163  1  0.16914430  0.37226980  0.65354206  1
  O  O164  1  0.16183828  0.36897727  0.99032165  1
  O  O165  1  0.16360551  0.87583131  0.31141884  1
  O  O166  1  0.15977039  0.87633195  0.64585532  1
  O  O167  1  0.16275876  0.88206504  0.97402754  1
  O  O168  1  0.49743639  0.37524029  0.31221857  1
  O  O169  1  0.50410408  0.37652073  0.65701167  1
  O  O170  1  0.50705839  0.36978431  0.97608453  1
  O  O171  1  0.51163624  0.87163819  0.31119358  1
  O  O172  1  0.51023376  0.87058325  0.64522630  1
  O  O173  1  0.51130443  0.87650939  0.97701350  1
  O  O174  1  0.83017762  0.37955003  0.30695111  1
  O  O175  1  0.82946229  0.37508309  0.64240934  1
  O  O176  1  0.82377044  0.37427705  0.99044840  1
  O  O177  1  0.82409220  0.87338453  0.31023613  1
  O  O178  1  0.82564680  0.87501269  0.65784276  1
  O  O179  1  0.83208488  0.87715929  0.96893401  1
  O  O180  1  -0.00580232  0.37622334  0.17456171  1
  O  O181  1  -0.00660193  0.37291772  0.52106471  1
  O  O182  1  -0.00122857  0.36847271  0.85914635  1
  O  O183  1  -0.00356580  0.87450131  0.19153704  1
  O  O184  1  0.00825836  0.87602671  0.51816893  1
  O  O185  1  -0.00840829  0.87951135  0.85637155  1
  O  O186  1  0.34239576  0.37573110  0.18868330  1
  O  O187  1  0.33327965  0.37677473  0.52030146  1
  O  O188  1  0.34217137  0.37101294  0.85584025  1
  O  O189  1  0.33447270  0.87542806  0.18841151  1
  O  O190  1  0.33776094  0.87442771  0.50936486  1
  O  O191  1  0.33612193  0.87864866  0.85368882  1
  O  O192  1  0.67650179  0.37875032  0.18457683  1
  O  O193  1  0.67675286  0.37849509  0.52386502  1
  O  O194  1  0.66058834  0.37895463  0.86492968  1
  O  O195  1  0.67798565  0.87529248  0.19721399  1
  O  O196  1  0.66287577  0.87028028  0.52664640  1
  O  O197  1  0.67984516  0.87609008  0.86271882  1
  O  O198  1  -0.01112422  0.12132976  0.14257848  1
  O  O199  1  -0.00799866  0.12248735  0.48760223  1
  O  O200  1  0.00164617  0.12427266  0.80611403  1
  O  O201  1  -0.00315558  0.62975475  0.14058737  1
  O  O202  1  -0.00735283  0.62875263  0.47793683  1
  O  O203  1  -0.00583399  0.62394563  0.82766913  1
  O  O204  1  0.32898752  0.12071331  0.13946738  1
  O  O205  1  0.32898993  0.12024160  0.47716371  1
  O  O206  1  0.33920187  0.12445247  0.82217322  1
  O  O207  1  0.34534023  0.62842531  0.15613692  1
  O  O208  1  0.33008324  0.62933545  0.47186211  1
  O  O209  1  0.34237688  0.62413943  0.82568996  1
  O  O210  1  0.67099343  0.11987513  0.14127201  1
  O  O211  1  0.67389917  0.12637502  0.47952889  1
  O  O212  1  0.65859376  0.12033718  0.81035009  1
  O  O213  1  0.65726616  0.62583864  0.14177354  1
  O  O214  1  0.66303144  0.62563755  0.47833516  1
  O  O215  1  0.65808976  0.62704617  0.81345790  1
  O  O216  1  0.08572656  0.01481627  0.24146285  1
  O  O217  1  0.08021968  0.02218018  0.58429614  1
  O  O218  1  0.08337144  0.02599200  0.91562383  1
  O  O219  1  0.08433689  0.51904186  0.25249287  1
  O  O220  1  0.08483336  0.51142190  0.57718964  1
  O  O221  1  0.07983559  0.50617547  0.91862686  1
  O  O222  1  0.41305373  0.00650853  0.25133907  1
  O  O223  1  0.42067849  0.00327890  0.57876420  1
  O  O224  1  0.41501994  0.01331826  0.91851030  1
  O  O225  1  0.42923515  0.51626524  0.24013584  1
  O  O226  1  0.42364465  0.51864348  0.57221618  1
  O  O227  1  0.43179296  0.50927935  0.90767142  1
  O  O228  1  0.75025646  0.02609659  0.24862968  1
  O  O229  1  0.75371783  0.02108195  0.57995847  1
  O  O230  1  0.74718526  0.02408933  0.91976742  1
  O  O231  1  0.75341947  0.52309621  0.24712117  1
  O  O232  1  0.75352747  0.52451700  0.58075688  1
  O  O233  1  0.75481503  0.52475522  0.91099852  1
  O  O234  1  0.24743866  0.22639429  0.24173126  1
  O  O235  1  0.24140829  0.23174275  0.57406522  1
  O  O236  1  0.24598786  0.22561768  0.91144503  1
  O  O237  1  0.26361563  0.73871958  0.26073869  1
  O  O238  1  0.24921986  0.74103875  0.57280965  1
  O  O239  1  0.25398244  0.75215808  0.91920422  1
  O  O240  1  0.58198503  0.24271192  0.24829511  1
  O  O241  1  0.59345768  0.24075987  0.59171691  1
  O  O242  1  0.57928458  0.22415821  0.91792979  1
  O  O243  1  0.59165387  0.72615214  0.26854793  1
  O  O244  1  0.59096196  0.72543317  0.59307792  1
  O  O245  1  0.59917137  0.73609723  0.93346074  1
  O  O246  1  0.90490652  0.23893076  0.24101980  1
  O  O247  1  0.91500848  0.23183253  0.58409160  1
  O  O248  1  0.91669546  0.22794157  0.91930241  1
  O  O249  1  0.92030280  0.73424087  0.25205707  1
  O  O250  1  0.91334820  0.73679856  0.57935918  1
  O  O251  1  0.92305998  0.73457388  0.92548827  1
  O  O252  1  0.07561738  0.49142350  0.07718542  1
  O  O253  1  0.08222477  0.50348282  0.41494203  1
  O  O254  1  0.07716220  0.48311852  0.74522460  1
  O  O255  1  0.07546655  0.98458941  0.07608190  1
  O  O256  1  0.08472905  0.98178479  0.41662912  1
  O  O257  1  0.08006010  0.98024665  0.75415194  1
  O  O258  1  0.41799207  0.47526351  0.07778035  1
  O  O259  1  0.41013153  0.48649957  0.40386988  1
  O  O260  1  0.41316650  0.47683751  0.74519636  1
  O  O261  1  0.41403535  0.97527334  0.08097199  1
  O  O262  1  0.41430634  0.97917804  0.41100098  1
  O  O263  1  0.42178585  0.98821904  0.75523801  1
  O  O264  1  0.74354178  0.48867667  0.07755621  1
  O  O265  1  0.75118547  0.48806530  0.41583192  1
  O  O266  1  0.73644189  0.48559676  0.74387894  1
  O  O267  1  0.74925940  0.97426456  0.08350084  1
  O  O268  1  0.73826393  0.98440667  0.40894257  1
  O  O269  1  0.74361964  0.98310351  0.74845615  1
  O  O270  1  0.26239522  0.26247908  0.07159335  1
  O  O271  1  0.25972514  0.25765467  0.40290404  1
  O  O272  1  0.25755181  0.26057652  0.74233494  1
  O  O273  1  0.24654725  0.77001397  0.08108419  1
  O  O274  1  0.24594723  0.77761224  0.41724809  1
  O  O275  1  0.24181283  0.76429765  0.75193353  1
  O  O276  1  0.58923566  0.26840814  0.08112424  1
  O  O277  1  0.59063951  0.25767062  0.41295106  1
  O  O278  1  0.58269130  0.27283104  0.75556308  1
  O  O279  1  0.57706457  0.77661297  0.09874086  1
  O  O280  1  0.57075615  0.76722528  0.42772364  1
  O  O281  1  0.58057467  0.77483685  0.76727370  1
  O  O282  1  0.91678565  0.26971466  0.07859022  1
  O  O283  1  0.91065273  0.26457650  0.42161644  1
  O  O284  1  0.91946929  0.26632560  0.74186272  1
  O  O285  1  0.90930065  0.77682132  0.08417095  1
  O  O286  1  0.92141132  0.76696172  0.40981130  1
  O  O287  1  0.90626123  0.76187661  0.76082782  1
  O  O288  1  0.25663325  0.48666459  0.08177668  1
  O  O289  1  0.25494415  0.48890747  0.41155173  1
  O  O290  1  0.25578277  0.48623143  0.74496705  1
  O  O291  1  0.24826753  0.97946300  0.08017692  1
  O  O292  1  0.24916822  0.97913348  0.41317238  1
  O  O293  1  0.24141682  0.98973650  0.75653520  1
  O  O294  1  0.58014622  0.47503292  0.09284892  1
  O  O295  1  0.58293936  0.49566023  0.41854965  1
  O  O296  1  0.57729859  0.48379140  0.76501884  1
  O  O297  1  0.58266887  0.97611903  0.09207340  1
  O  O298  1  0.57838187  0.97828020  0.42663523  1
  O  O299  1  0.58225621  0.97201188  0.76113666  1
  O  O300  1  0.91062712  0.48231721  0.08507976  1
  O  O301  1  0.91095063  0.48650623  0.42101662  1
  O  O302  1  0.91658578  0.48264240  0.74772336  1
  O  O303  1  0.91364463  0.97166503  0.08026031  1
  O  O304  1  0.91851751  0.98061379  0.40720103  1
  O  O305  1  0.90870396  0.98459987  0.75500063  1
  O  O306  1  0.07665015  0.25521374  0.07488700  1
  O  O307  1  0.08616798  0.24957482  0.41811540  1
  O  O308  1  0.07793655  0.26354671  0.74315649  1
  O  O309  1  0.07632957  0.76990311  0.07726016  1
  O  O310  1  0.08366620  0.76887312  0.41443313  1
  O  O311  1  0.07667454  0.76859228  0.75078279  1
  O  O312  1  0.42331115  0.27319740  0.08636646  1
  O  O313  1  0.41634458  0.26155827  0.41306517  1
  O  O314  1  0.42094396  0.26765195  0.75688620  1
  O  O315  1  0.41356598  0.77880183  0.07581439  1
  O  O316  1  0.40968508  0.77433812  0.40102022  1
  O  O317  1  0.41887706  0.76526307  0.75030226  1
  O  O318  1  0.75402742  0.26381542  0.09077376  1
  O  O319  1  0.75345702  0.27228585  0.41970143  1
  O  O320  1  0.74294609  0.26227081  0.74272946  1
  O  O321  1  0.74413010  0.76964288  0.07188120  1
  O  O322  1  0.73770166  0.76059176  0.40901895  1
  O  O323  1  0.73846482  0.76636095  0.74516026  1
  O  O324  1  0.25083691  0.02086664  0.24797573  1
  O  O325  1  0.24105218  0.00879233  0.57366875  1
  O  O326  1  0.24914263  0.02156379  0.91895331  1
  O  O327  1  0.26272281  0.51178227  0.25436144  1
  O  O328  1  0.25028310  0.51591385  0.57482343  1
  O  O329  1  0.25859074  0.49875322  0.91915275  1
  O  O330  1  0.59255348  0.01180327  0.26212171  1
  O  O331  1  0.59511879  0.01404067  0.59658358  1
  O  O332  1  0.58524241  0.01942742  0.92232022  1
  O  O333  1  0.58896263  0.52357622  0.25604340  1
  O  O334  1  0.59107773  0.51729510  0.59327675  1
  O  O335  1  0.59340607  0.52481107  0.92987824  1
  O  O336  1  0.90615861  0.00995520  0.23930737  1
  O  O337  1  0.91536486  0.01682922  0.58529843  1
  O  O338  1  0.91924157  0.02221552  0.92129836  1
  O  O339  1  0.92206242  0.52282109  0.25436984  1
  O  O340  1  0.91345321  0.51254436  0.57882475  1
  O  O341  1  0.91900384  0.51303906  0.92169090  1
  O  O342  1  0.08523644  0.23184618  0.24172596  1
  O  O343  1  0.07831491  0.23082968  0.58379179  1
  O  O344  1  0.08336061  0.22212867  0.91419801  1
  O  O345  1  0.08266593  0.73445753  0.25670803  1
  O  O346  1  0.08924475  0.73506331  0.57208310  1
  O  O347  1  0.08256130  0.74700463  0.91564394  1
  O  O348  1  0.40747051  0.23569409  0.25550732  1
  O  O349  1  0.41470526  0.24556130  0.59180993  1
  O  O350  1  0.41172764  0.23258143  0.92420827  1
  O  O351  1  0.43524658  0.74033661  0.24119600  1
  O  O352  1  0.42524928  0.73782219  0.56427180  1
  O  O353  1  0.43449580  0.74173832  0.91206570  1
  O  O354  1  0.74401100  0.22603483  0.25454472  1
  O  O355  1  0.75453536  0.22947192  0.58004564  1
  O  O356  1  0.74366960  0.23049507  0.92318135  1
  O  O357  1  0.75389233  0.72649209  0.24470820  1
  O  O358  1  0.75196863  0.72424557  0.57967007  1
  O  O359  1  0.76047555  0.72753045  0.90613043  1
