# generated using pymatgen
data_Ba17Sr5La8Pr42Mn72O216
_symmetry_space_group_name_H-M   'P 1'
_cell_length_a   16.67108500
_cell_length_b   15.70159809
_cell_length_c   16.81776251
_cell_angle_alpha   90.00006793
_cell_angle_beta   89.98869353
_cell_angle_gamma   89.98750784
_symmetry_Int_Tables_number   1
_chemical_formula_structural   Ba17Sr5La8Pr42Mn72O216
_chemical_formula_sum   'Ba17 Sr5 La8 Pr42 Mn72 O216'
_cell_volume   4402.26233532
_cell_formula_units_Z   1
loop_
 _symmetry_equiv_pos_site_id
 _symmetry_equiv_pos_as_xyz
  1  'x, y, z'
loop_
 _atom_site_type_symbol
 _atom_site_label
 _atom_site_symmetry_multiplicity
 _atom_site_fract_x
 _atom_site_fract_y
 _atom_site_fract_z
 _atom_site_occupancy
  Ba  Ba0  1  0.00056182  0.37545008  0.00277879  1
  Ba  Ba1  1  0.33640839  0.87396763  -0.00114456  1
  Ba  Ba2  1  0.49956353  0.37407992  0.49651473  1
  Ba  Ba3  1  0.00121852  0.37451432  0.33560130  1
  Ba  Ba4  1  0.83366121  0.37534153  0.49855809  1
  Ba  Ba5  1  0.00383895  0.87587350  0.33435233  1
  Ba  Ba6  1  0.16785874  0.87594039  0.49854280  1
  Ba  Ba7  1  0.49751371  0.62642339  0.50009147  1
  Ba  Ba8  1  0.16521189  0.37761051  0.83382373  1
  Ba  Ba9  1  0.33100476  0.12531317  0.66619640  1
  Ba  Ba10  1  0.66792958  0.37478456  0.33486087  1
  Ba  Ba11  1  0.66499541  0.12418785  0.99703481  1
  Ba  Ba12  1  0.66689271  0.87611918  0.33399824  1
  Ba  Ba13  1  0.33354117  0.62382537  0.33165557  1
  Ba  Ba14  1  0.33464000  0.37467499  0.32957934  1
  Ba  Ba15  1  0.67021445  0.87502165  0.00206875  1
  Ba  Ba16  1  0.16329702  0.12575260  0.83455147  1
  Sr  Sr17  1  -0.00064963  0.12547426  0.99752332  1
  Sr  Sr18  1  0.49873600  0.62811354  0.17100669  1
  Sr  Sr19  1  0.16466859  0.12628020  0.16415616  1
  Sr  Sr20  1  0.16048769  0.62560959  0.83605951  1
  Sr  Sr21  1  0.50041054  0.87659950  0.49952435  1
  La  La22  1  0.83302870  0.12533627  0.49716658  1
  La  La23  1  0.82987808  0.62334971  0.83541306  1
  La  La24  1  0.83273111  0.12596337  0.83873422  1
  La  La25  1  0.50603732  0.86928265  0.16508749  1
  La  La26  1  0.83490681  0.12570580  0.16504854  1
  La  La27  1  0.32316584  0.62312752  0.65979136  1
  La  La28  1  0.00698684  0.87539424  0.00327592  1
  La  La29  1  0.17316884  0.87592581  0.82940069  1
  Pr  Pr30  1  0.83552420  0.87503294  0.49552468  1
  Pr  Pr31  1  0.66510309  0.62558963  0.66104567  1
  Pr  Pr32  1  -0.00109596  0.12290549  0.33223298  1
  Pr  Pr33  1  0.83188638  0.62548959  0.16954352  1
  Pr  Pr34  1  0.66081387  0.62257943  0.33521429  1
  Pr  Pr35  1  0.16211637  0.62396738  0.49837834  1
  Pr  Pr36  1  0.50180715  0.37132108  0.83010491  1
  Pr  Pr37  1  0.00433220  0.87460157  0.67057575  1
  Pr  Pr38  1  0.33781850  0.87370256  0.33416138  1
  Pr  Pr39  1  0.66672046  0.12509423  0.66518844  1
  Pr  Pr40  1  0.33114001  0.12531968  0.33281095  1
  Pr  Pr41  1  0.17457929  0.37500656  0.16083911  1
  Pr  Pr42  1  0.32727291  0.12613166  0.99312268  1
  Pr  Pr43  1  0.49246180  0.12433614  0.83952376  1
  Pr  Pr44  1  0.83072993  0.62451088  0.49888938  1
  Pr  Pr45  1  0.50699581  0.87729394  0.83210307  1
  Pr  Pr46  1  -0.00179342  0.62764624  0.33497089  1
  Pr  Pr47  1  0.66366255  0.37835191  0.66609135  1
  Pr  Pr48  1  0.49580857  0.62677146  0.83441231  1
  Pr  Pr49  1  0.83528455  0.37496569  0.16509246  1
  Pr  Pr50  1  -0.00168122  0.62362627  0.66673676  1
  Pr  Pr51  1  0.34290515  0.87333216  0.67089362  1
  Pr  Pr52  1  0.33064337  0.37145360  0.00152566  1
  Pr  Pr53  1  0.16153398  0.12577122  0.50176945  1
  Pr  Pr54  1  0.83093685  0.37211364  0.82969788  1
  Pr  Pr55  1  0.16242102  0.62414760  0.16902472  1
  Pr  Pr56  1  0.49883745  0.11920733  0.16764120  1
  Pr  Pr57  1  -0.00009328  0.12668246  0.66733419  1
  Pr  Pr58  1  0.32983400  0.62340534  0.99795749  1
  Pr  Pr59  1  -0.00321676  0.62520574  0.99887291  1
  Pr  Pr60  1  0.17583183  0.87547133  0.16475997  1
  Pr  Pr61  1  0.17082421  0.37376037  0.49854578  1
  Pr  Pr62  1  0.33987206  0.37545047  0.66753633  1
  Pr  Pr63  1  0.50245765  0.37994753  0.16444824  1
  Pr  Pr64  1  0.66757948  0.87071259  0.66845226  1
  Pr  Pr65  1  0.50039190  0.12526673  0.49836710  1
  Pr  Pr66  1  0.66161434  0.62753431  0.99960455  1
  Pr  Pr67  1  0.66602979  0.12842943  0.33030473  1
  Pr  Pr68  1  0.84238682  0.87655028  0.16232146  1
  Pr  Pr69  1  0.66650908  0.37544800  0.00441073  1
  Pr  Pr70  1  0.83490793  0.87747078  0.83255861  1
  Pr  Pr71  1  -0.00343986  0.37537694  0.67364892  1
  Mn  Mn72  1  0.00311148  0.00139259  0.16605588  1
  Mn  Mn73  1  -0.00094325  0.00128328  0.50187434  1
  Mn  Mn74  1  -0.00155414  -0.00254054  0.83555165  1
  Mn  Mn75  1  0.00046904  0.50059488  0.16932333  1
  Mn  Mn76  1  0.00005388  0.50080665  0.50228514  1
  Mn  Mn77  1  -0.00358140  0.50203536  0.83446960  1
  Mn  Mn78  1  0.33423465  0.00216710  0.16652318  1
  Mn  Mn79  1  0.33370786  -0.00053685  0.49887369  1
  Mn  Mn80  1  0.33416014  -0.00153436  0.83353268  1
  Mn  Mn81  1  0.33483513  0.49999462  0.16226087  1
  Mn  Mn82  1  0.33078354  0.50053847  0.49941735  1
  Mn  Mn83  1  0.33370190  0.50141285  0.83147924  1
  Mn  Mn84  1  0.66876901  0.00114290  0.16747174  1
  Mn  Mn85  1  0.66743712  0.00062198  0.50099340  1
  Mn  Mn86  1  0.66690714  -0.00150657  0.82989315  1
  Mn  Mn87  1  0.66763141  0.50057797  0.16597503  1
  Mn  Mn88  1  0.66687761  0.50132582  0.49991599  1
  Mn  Mn89  1  0.66478651  0.50157127  0.83439929  1
  Mn  Mn90  1  0.00097362  0.24830808  0.16834113  1
  Mn  Mn91  1  0.00010855  0.24972505  0.50185549  1
  Mn  Mn92  1  -0.00282629  0.25068711  0.83465803  1
  Mn  Mn93  1  0.00236826  0.75007795  0.16635994  1
  Mn  Mn94  1  -0.00126906  0.74913460  0.50218618  1
  Mn  Mn95  1  -0.00196763  0.74959055  0.83541055  1
  Mn  Mn96  1  0.33528250  0.24693880  0.16390829  1
  Mn  Mn97  1  0.33218312  0.24833359  0.49854769  1
  Mn  Mn98  1  0.33273098  0.25300618  0.83337757  1
  Mn  Mn99  1  0.33418747  0.74973114  0.16598369  1
  Mn  Mn100  1  0.33179138  0.75186525  0.50072127  1
  Mn  Mn101  1  0.33365861  0.74706850  0.83172224  1
  Mn  Mn102  1  0.66636846  0.24967225  0.16542432  1
  Mn  Mn103  1  0.66721244  0.24635983  0.49915877  1
  Mn  Mn104  1  0.66546933  0.25118940  0.83191000  1
  Mn  Mn105  1  0.67004184  0.74843857  0.16767343  1
  Mn  Mn106  1  0.66730535  0.75179654  0.50095629  1
  Mn  Mn107  1  0.66668254  0.74852852  0.83252931  1
  Mn  Mn108  1  0.16535845  0.24930003  0.00093664  1
  Mn  Mn109  1  0.16720552  0.24902257  0.33274569  1
  Mn  Mn110  1  0.16409764  0.25098586  0.66473113  1
  Mn  Mn111  1  0.16691647  0.74872878  0.00017096  1
  Mn  Mn112  1  0.16782844  0.74935895  0.33231531  1
  Mn  Mn113  1  0.16539637  0.74969559  0.66764450  1
  Mn  Mn114  1  0.49897627  0.25172330  -0.00006271  1
  Mn  Mn115  1  0.49947091  0.24702470  0.33150488  1
  Mn  Mn116  1  0.50133826  0.24816572  0.66661708  1
  Mn  Mn117  1  0.49975558  0.74642577  0.00055147  1
  Mn  Mn118  1  0.50057705  0.75170722  0.33351489  1
  Mn  Mn119  1  0.50002230  0.75027481  0.66831244  1
  Mn  Mn120  1  0.83264666  0.25140919  -0.00031532  1
  Mn  Mn121  1  0.83490569  0.24816243  0.33271978  1
  Mn  Mn122  1  0.83139732  0.24857732  0.66758671  1
  Mn  Mn123  1  0.83480628  0.74809485  0.00078033  1
  Mn  Mn124  1  0.83334479  0.75035548  0.33335428  1
  Mn  Mn125  1  0.83384812  0.75076236  0.66633905  1
  Mn  Mn126  1  0.16689346  -0.00106306  0.00001519  1
  Mn  Mn127  1  0.16924773  0.00276936  0.33145912  1
  Mn  Mn128  1  0.16633422  -0.00057420  0.66545947  1
  Mn  Mn129  1  0.16693461  0.50221532  0.00054492  1
  Mn  Mn130  1  0.16554235  0.49898073  0.33285931  1
  Mn  Mn131  1  0.16329346  0.49994706  0.66543042  1
  Mn  Mn132  1  0.49975964  -0.00082075  0.00209065  1
  Mn  Mn133  1  0.49945988  0.00061475  0.33473156  1
  Mn  Mn134  1  0.50224111  0.00146338  0.66572484  1
  Mn  Mn135  1  0.49914704  0.50133742  -0.00201877  1
  Mn  Mn136  1  0.50038748  0.50083678  0.33098395  1
  Mn  Mn137  1  0.49959489  0.49984529  0.66923516  1
  Mn  Mn138  1  0.83637770  -0.00038184  -0.00073464  1
  Mn  Mn139  1  0.83358102  -0.00061831  0.33270681  1
  Mn  Mn140  1  0.83324692  -0.00040717  0.66616823  1
  Mn  Mn141  1  0.83125046  0.50131561  0.00103169  1
  Mn  Mn142  1  0.83471656  0.50301154  0.33320118  1
  Mn  Mn143  1  0.83133184  0.50119821  0.66803392  1
  O  O144  1  0.17078351  0.12549216  0.01186552  1
  O  O145  1  0.17383853  0.12632725  0.35780675  1
  O  O146  1  0.15945830  0.12460979  0.67917434  1
  O  O147  1  0.16542564  0.62638552  0.02369321  1
  O  O148  1  0.16403797  0.62252682  0.35405350  1
  O  O149  1  0.16749543  0.62553769  0.68787914  1
  O  O150  1  0.49218515  0.12974257  0.02251046  1
  O  O151  1  0.49718261  0.12162365  0.35406114  1
  O  O152  1  0.50914333  0.12515117  0.69675870  1
  O  O153  1  0.49645943  0.62215520  0.02241591  1
  O  O154  1  0.50544128  0.62769895  0.33929122  1
  O  O155  1  0.50658020  0.62392019  0.69052416  1
  O  O156  1  0.83354653  0.12891806  0.01766641  1
  O  O157  1  0.83662238  0.12041486  0.35217065  1
  O  O158  1  0.82926687  0.12142220  0.69712533  1
  O  O159  1  0.83046956  0.62450073  0.02564166  1
  O  O160  1  0.83962693  0.62916284  0.35512423  1
  O  O161  1  0.82771987  0.62621520  0.69366168  1
  O  O162  1  0.16476969  0.37371681  0.30608400  1
  O  O163  1  0.15311906  0.37606031  0.64251346  1
  O  O164  1  0.17432033  0.37652285  0.99390118  1
  O  O165  1  0.17202525  0.87787216  0.30797005  1
  O  O166  1  0.15825225  0.87336735  0.65542238  1
  O  O167  1  0.16275193  0.86992197  0.97614737  1
  O  O168  1  0.50262397  0.36988653  0.31071329  1
  O  O169  1  0.50014834  0.37321509  0.65313530  1
  O  O170  1  0.50729655  0.37897517  0.97161572  1
  O  O171  1  0.49576679  0.87934302  0.30980339  1
  O  O172  1  0.49814176  0.87726064  0.64904185  1
  O  O173  1  0.50286774  0.86874401  0.97641904  1
  O  O174  1  0.83519581  0.37793061  0.30986970  1
  O  O175  1  0.83699450  0.37708619  0.65391037  1
  O  O176  1  0.82724962  0.37905722  0.97463063  1
  O  O177  1  0.83366850  0.87471549  0.30721485  1
  O  O178  1  0.83441958  0.87552784  0.63703355  1
  O  O179  1  0.84133519  0.86900827  0.97736269  1
  O  O180  1  -0.00776232  0.37567409  0.17986824  1
  O  O181  1  0.00341798  0.37533521  0.52849462  1
  O  O182  1  -0.01240664  0.37777271  0.84300690  1
  O  O183  1  -0.00570571  0.87442251  0.17942696  1
  O  O184  1  -0.00946634  0.87457627  0.52646755  1
  O  O185  1  -0.01073461  0.87111473  0.85883722  1
  O  O186  1  0.32374214  0.37309573  0.17315042  1
  O  O187  1  0.32615459  0.37529211  0.52305670  1
  O  O188  1  0.34138008  0.37921414  0.85659074  1
  O  O189  1  0.32519536  0.87961839  0.18952403  1
  O  O190  1  0.33546930  0.87686464  0.52649794  1
  O  O191  1  0.33131590  0.87196176  0.84240889  1
  O  O192  1  0.66198121  0.37469778  0.17923394  1
  O  O193  1  0.66752596  0.37179345  0.52104413  1
  O  O194  1  0.66412084  0.38164285  0.86153810  1
  O  O195  1  0.66653502  0.87538714  0.17691304  1
  O  O196  1  0.67287467  0.87736849  0.52528126  1
  O  O197  1  0.66285120  0.87299790  0.84695036  1
  O  O198  1  -0.00358539  0.12330587  0.14578623  1
  O  O199  1  0.00245180  0.12529839  0.47925151  1
  O  O200  1  -0.00791412  0.12179542  0.81180249  1
  O  O201  1  0.00624598  0.62668168  0.14116546  1
  O  O202  1  0.00186007  0.62579924  0.47987543  1
  O  O203  1  -0.00393673  0.62800811  0.81037170  1
  O  O204  1  0.34624382  0.12480696  0.13578731  1
  O  O205  1  0.33381504  0.12236611  0.47828485  1
  O  O206  1  0.34008057  0.12549796  0.82499824  1
  O  O207  1  0.33547738  0.62276723  0.14300981  1
  O  O208  1  0.32441228  0.62529951  0.49234791  1
  O  O209  1  0.34225932  0.62373202  0.80323259  1
  O  O210  1  0.66957531  0.12691096  0.15240522  1
  O  O211  1  0.67011913  0.12156400  0.47697277  1
  O  O212  1  0.67154339  0.12113266  0.80833708  1
  O  O213  1  0.67724938  0.62248655  0.14129267  1
  O  O214  1  0.67349870  0.62881476  0.48335354  1
  O  O215  1  0.66861930  0.62412760  0.80351250  1
  O  O216  1  0.08090124  0.02046243  0.25366442  1
  O  O217  1  0.07504365  0.01650819  0.58997280  1
  O  O218  1  0.07523945  0.00474954  0.92264010  1
  O  O219  1  0.07765047  0.52419582  0.25712468  1
  O  O220  1  0.07950213  0.52746658  0.58584978  1
  O  O221  1  0.07862214  0.51807858  0.92388274  1
  O  O222  1  0.41254324  0.02294042  0.25362763  1
  O  O223  1  0.42315211  0.01752852  0.58066760  1
  O  O224  1  0.41460235  0.01777608  0.92308270  1
  O  O225  1  0.42151388  0.50248254  0.23840716  1
  O  O226  1  0.40597356  0.51054884  0.59488900  1
  O  O227  1  0.41562934  0.52512894  0.91699033  1
  O  O228  1  0.74859510  0.02170414  0.25459833  1
  O  O229  1  0.74961299  0.02393908  0.58681836  1
  O  O230  1  0.75233831  0.00808074  0.90810699  1
  O  O231  1  0.75406737  0.52109878  0.24802931  1
  O  O232  1  0.75031833  0.52046081  0.58602363  1
  O  O233  1  0.74535743  0.52573497  0.91714700  1
  O  O234  1  0.25349963  0.22946390  0.24699419  1
  O  O235  1  0.24009300  0.23859657  0.57518222  1
  O  O236  1  0.25279931  0.24221757  0.92018665  1
  O  O237  1  0.24090607  0.73542438  0.23932160  1
  O  O238  1  0.23943493  0.73164174  0.57981914  1
  O  O239  1  0.24786708  0.72894128  0.91219592  1
  O  O240  1  0.58211123  0.22585574  0.24834676  1
  O  O241  1  0.58440812  0.22523068  0.58422128  1
  O  O242  1  0.57299239  0.23425469  0.90731191  1
  O  O243  1  0.58595118  0.73768590  0.24751076  1
  O  O244  1  0.58806543  0.73912112  0.59085894  1
  O  O245  1  0.57815969  0.72471432  0.91369646  1
  O  O246  1  0.91739061  0.22704450  0.25016772  1
  O  O247  1  0.91604246  0.22715007  0.58828998  1
  O  O248  1  0.91207239  0.23519475  0.91512499  1
  O  O249  1  0.91506077  0.72977698  0.24389282  1
  O  O250  1  0.91213548  0.72323981  0.58414780  1
  O  O251  1  0.91018394  0.72306772  0.91359567  1
  O  O252  1  0.09283998  0.48775771  0.09844660  1
  O  O253  1  0.08932070  0.48548360  0.42816856  1
  O  O254  1  0.07479809  0.48898947  0.74326381  1
  O  O255  1  0.08963220  0.97838074  0.08838502  1
  O  O256  1  0.08684420  0.99768735  0.41945572  1
  O  O257  1  0.08167379  0.97697831  0.75743292  1
  O  O258  1  0.41874578  0.47359167  0.07696970  1
  O  O259  1  0.41471557  0.49439767  0.41839018  1
  O  O260  1  0.42128381  0.47769031  0.75459947  1
  O  O261  1  0.42534599  0.98002452  0.09741786  1
  O  O262  1  0.41623456  0.98050452  0.41528469  1
  O  O263  1  0.42316042  0.98172578  0.75415200  1
  O  O264  1  0.74962467  0.47580316  0.08292959  1
  O  O265  1  0.75238734  0.50007852  0.41452619  1
  O  O266  1  0.74583041  0.47668949  0.75158926  1
  O  O267  1  0.76477411  0.98790759  0.09071854  1
  O  O268  1  0.75698959  0.98551709  0.42478270  1
  O  O269  1  0.75195341  0.97245498  0.74671741  1
  O  O270  1  0.25575385  0.25995172  0.07931079  1
  O  O271  1  0.24774083  0.26544827  0.41638836  1
  O  O272  1  0.25328602  0.26981096  0.74089741  1
  O  O273  1  0.25158961  0.76157959  0.08125735  1
  O  O274  1  0.25638546  0.76663939  0.40583532  1
  O  O275  1  0.25638411  0.76700365  0.74082356  1
  O  O276  1  0.58278412  0.27103901  0.07886476  1
  O  O277  1  0.58326439  0.24853403  0.41575458  1
  O  O278  1  0.58733145  0.27335267  0.74645335  1
  O  O279  1  0.58980628  0.75445598  0.08169489  1
  O  O280  1  0.58633325  0.75889463  0.41809331  1
  O  O281  1  0.58488659  0.76981215  0.74894854  1
  O  O282  1  0.90801650  0.26343782  0.08937143  1
  O  O283  1  0.91899861  0.25278027  0.41890357  1
  O  O284  1  0.91102119  0.26538589  0.75156828  1
  O  O285  1  0.92674904  0.76350382  0.07623082  1
  O  O286  1  0.91489180  0.76458678  0.42003410  1
  O  O287  1  0.91839894  0.77225827  0.74476740  1
  O  O288  1  0.25856922  0.48864959  0.07285880  1
  O  O289  1  0.24585849  0.48410221  0.41734287  1
  O  O290  1  0.25802230  0.48266662  0.73746184  1
  O  O291  1  0.25073530  0.98770564  0.08559062  1
  O  O292  1  0.25970777  0.98570854  0.40450270  1
  O  O293  1  0.25324846  0.98075114  0.74412116  1
  O  O294  1  0.58427574  0.48207690  0.07890411  1
  O  O295  1  0.58613116  0.49804129  0.41582761  1
  O  O296  1  0.58312062  0.47710395  0.75447043  1
  O  O297  1  0.58192549  0.99096913  0.08519730  1
  O  O298  1  0.58050775  0.99270358  0.42141158  1
  O  O299  1  0.58870260  0.97672842  0.74343113  1
  O  O300  1  0.91095751  0.49074428  0.09126749  1
  O  O301  1  0.91912886  0.49700449  0.41851605  1
  O  O302  1  0.90867063  0.48769292  0.75286994  1
  O  O303  1  0.92432669  0.98129721  0.08002264  1
  O  O304  1  0.91461713  0.98730137  0.42157331  1
  O  O305  1  0.91749719  0.97443563  0.74718071  1
  O  O306  1  0.09146423  0.26344763  0.09417412  1
  O  O307  1  0.09016004  0.26333230  0.42771014  1
  O  O308  1  0.07385920  0.26279204  0.74345735  1
  O  O309  1  0.09107338  0.77107708  0.09180377  1
  O  O310  1  0.08646147  0.75399135  0.42044763  1
  O  O311  1  0.08652808  0.77002108  0.75850739  1
  O  O312  1  0.42128885  0.27916881  0.08308725  1
  O  O313  1  0.41567981  0.25201431  0.41300489  1
  O  O314  1  0.42048188  0.26787949  0.75249143  1
  O  O315  1  0.42512257  0.76572771  0.08998072  1
  O  O316  1  0.41812506  0.76837436  0.41797202  1
  O  O317  1  0.42539731  0.76966522  0.75779772  1
  O  O318  1  0.74952185  0.27273275  0.08147200  1
  O  O319  1  0.75126511  0.25078601  0.41578936  1
  O  O320  1  0.74699354  0.27385625  0.74727852  1
  O  O321  1  0.76557329  0.76435762  0.09575344  1
  O  O322  1  0.75717132  0.76445478  0.42598546  1
  O  O323  1  0.75529506  0.77345580  0.75032287  1
  O  O324  1  0.25121093  0.02456730  0.24610279  1
  O  O325  1  0.24367870  0.01594971  0.57203993  1
  O  O326  1  0.24947017  0.00866712  0.91613959  1
  O  O327  1  0.24133268  0.51247829  0.23628413  1
  O  O328  1  0.23955118  0.51478592  0.57783351  1
  O  O329  1  0.25185402  0.52206471  0.91118205  1
  O  O330  1  0.58084851  0.02061049  0.25164305  1
  O  O331  1  0.58528300  0.02481165  0.58424695  1
  O  O332  1  0.57459820  0.01359634  0.90332943  1
  O  O333  1  0.58949245  0.51780155  0.24765326  1
  O  O334  1  0.58861552  0.51151272  0.59359006  1
  O  O335  1  0.58190322  0.52911051  0.91527778  1
  O  O336  1  0.91524537  0.01892302  0.24645308  1
  O  O337  1  0.91343934  0.02686793  0.58585837  1
  O  O338  1  0.91067603  0.01591213  0.91044804  1
  O  O339  1  0.91740624  0.52646712  0.25044656  1
  O  O340  1  0.91608347  0.52363768  0.58730584  1
  O  O341  1  0.91290364  0.52436471  0.92021060  1
  O  O342  1  0.07988973  0.22686322  0.25943446  1
  O  O343  1  0.07865214  0.22674008  0.58513217  1
  O  O344  1  0.07886067  0.24261860  0.92007432  1
  O  O345  1  0.08003805  0.72844774  0.25348236  1
  O  O346  1  0.07515832  0.73118949  0.59345507  1
  O  O347  1  0.07395272  0.73232066  0.92846264  1
  O  O348  1  0.41849339  0.22701679  0.24489418  1
  O  O349  1  0.42033105  0.23473320  0.58129569  1
  O  O350  1  0.41370156  0.23525937  0.92277797  1
  O  O351  1  0.41447878  0.74807222  0.24988294  1
  O  O352  1  0.40737948  0.73784563  0.59859960  1
  O  O353  1  0.41245003  0.72499341  0.91910680  1
  O  O354  1  0.75272237  0.23218276  0.24782797  1
  O  O355  1  0.74973688  0.22677573  0.58600307  1
  O  O356  1  0.75181836  0.24009068  0.90994938  1
  O  O357  1  0.74722019  0.72428271  0.25566207  1
  O  O358  1  0.74936459  0.72990689  0.58804798  1
  O  O359  1  0.74526204  0.72755872  0.92029267  1
