# generated using pymatgen
data_Ba17Sr5La8Pr42Mn72O216
_symmetry_space_group_name_H-M   'P 1'
_cell_length_a   16.68243011
_cell_length_b   15.71292288
_cell_length_c   16.82146541
_cell_angle_alpha   89.99468204
_cell_angle_beta   89.96916229
_cell_angle_gamma   90.00345871
_symmetry_Int_Tables_number   1
_chemical_formula_structural   Ba17Sr5La8Pr42Mn72O216
_chemical_formula_sum   'Ba17 Sr5 La8 Pr42 Mn72 O216'
_cell_volume   4409.40565174
_cell_formula_units_Z   1
loop_
 _symmetry_equiv_pos_site_id
 _symmetry_equiv_pos_as_xyz
  1  'x, y, z'
loop_
 _atom_site_type_symbol
 _atom_site_label
 _atom_site_symmetry_multiplicity
 _atom_site_fract_x
 _atom_site_fract_y
 _atom_site_fract_z
 _atom_site_occupancy
  Ba  Ba0  1  0.33318670  0.37444689  0.33304440  1
  Ba  Ba1  1  0.83735950  0.87553187  0.83444548  1
  Ba  Ba2  1  0.50099917  0.12755403  0.50332269  1
  Ba  Ba3  1  0.66767296  0.37702346  0.33468607  1
  Ba  Ba4  1  0.16307316  0.62568017  0.50065009  1
  Ba  Ba5  1  0.33521378  0.12632982  0.66719629  1
  Ba  Ba6  1  0.16187085  0.62487431  0.17015274  1
  Ba  Ba7  1  0.16668290  0.37515168  0.83167821  1
  Ba  Ba8  1  0.16712006  0.37362347  0.16674523  1
  Ba  Ba9  1  0.33681446  0.87516509  0.33204349  1
  Ba  Ba10  1  0.66878800  0.12523092  0.66380629  1
  Ba  Ba11  1  0.83131780  0.37510900  0.16699912  1
  Ba  Ba12  1  0.83475414  0.12426081  0.50044039  1
  Ba  Ba13  1  0.33772407  0.87548842  -0.00045861  1
  Ba  Ba14  1  0.50183464  0.87301632  0.16245803  1
  Ba  Ba15  1  0.16199757  0.12425617  0.16781654  1
  Ba  Ba16  1  0.33009694  0.62458753  0.33194519  1
  Sr  Sr17  1  0.50508577  0.37547507  0.83086673  1
  Sr  Sr18  1  0.49652729  0.13163625  0.83358220  1
  Sr  Sr19  1  0.00238590  0.37366023  0.66604273  1
  Sr  Sr20  1  0.50336926  0.37107610  0.49824961  1
  Sr  Sr21  1  0.49257155  0.62475244  0.16581863  1
  La  La22  1  0.83739626  0.87522763  0.16211043  1
  La  La23  1  0.49096592  0.62098886  0.83572501  1
  La  La24  1  0.82517354  0.62544193  0.17082484  1
  La  La25  1  0.50796346  0.87625136  0.83094709  1
  La  La26  1  0.66210099  0.12765067  0.99462901  1
  La  La27  1  0.17801838  0.87537680  0.83303522  1
  La  La28  1  -0.00758867  0.12954570  1.00092570  1
  La  La29  1  0.15925627  0.62487356  0.83621622  1
  Pr  Pr30  1  0.17766727  0.87360644  0.16528715  1
  Pr  Pr31  1  0.17973363  0.87461409  0.50196567  1
  Pr  Pr32  1  0.16142632  0.12443107  0.83898975  1
  Pr  Pr33  1  0.00086749  0.12568125  0.66849101  1
  Pr  Pr34  1  0.49024816  0.61960432  0.49838716  1
  Pr  Pr35  1  0.34709286  0.87306618  0.66807933  1
  Pr  Pr36  1  0.00463319  0.37561710  0.00474848  1
  Pr  Pr37  1  0.67232259  0.37158297  0.66273379  1
  Pr  Pr38  1  -0.00606858  0.62389331  0.33076739  1
  Pr  Pr39  1  0.65798793  0.62224107  0.99981604  1
  Pr  Pr40  1  0.67191302  0.87382584  0.00143172  1
  Pr  Pr41  1  0.00526718  0.37331005  0.33736654  1
  Pr  Pr42  1  0.65739601  0.12725169  0.33218925  1
  Pr  Pr43  1  0.84235927  0.87746774  0.50043682  1
  Pr  Pr44  1  0.50064057  0.38006011  0.16591107  1
  Pr  Pr45  1  0.00995960  0.87671793  0.33675672  1
  Pr  Pr46  1  0.01054927  0.87517106  0.67155125  1
  Pr  Pr47  1  0.49154126  0.12571006  0.16650266  1
  Pr  Pr48  1  0.82589274  0.62736048  0.83530319  1
  Pr  Pr49  1  0.67754145  0.87872834  0.66457953  1
  Pr  Pr50  1  -0.00992069  0.62014113  1.00158413  1
  Pr  Pr51  1  -0.00875120  0.12554210  0.33151111  1
  Pr  Pr52  1  0.82923818  0.12477632  0.83270703  1
  Pr  Pr53  1  0.32307567  0.62072233  0.66313257  1
  Pr  Pr54  1  0.34103285  0.37302682  0.00497006  1
  Pr  Pr55  1  0.67203172  0.87268628  0.33261421  1
  Pr  Pr56  1  0.34404360  0.37607261  0.66692725  1
  Pr  Pr57  1  0.83734423  0.37085874  0.49445428  1
  Pr  Pr58  1  0.16765967  0.12353803  0.50289409  1
  Pr  Pr59  1  0.65404481  0.62371097  0.32918991  1
  Pr  Pr60  1  -0.00674298  0.62283000  0.66650645  1
  Pr  Pr61  1  0.32366467  0.62666761  1.00228665  1
  Pr  Pr62  1  0.82730566  0.62519080  0.50114785  1
  Pr  Pr63  1  0.65905019  0.62758016  0.66412787  1
  Pr  Pr64  1  0.33108998  0.12637585  0.33439859  1
  Pr  Pr65  1  0.83606037  0.37545834  0.82996334  1
  Pr  Pr66  1  0.17417907  0.37410651  0.49864267  1
  Pr  Pr67  1  0.82348638  0.12464869  0.17080470  1
  Pr  Pr68  1  0.50827067  0.87859069  0.49514982  1
  Pr  Pr69  1  0.32525427  0.12529044  0.99289941  1
  Pr  Pr70  1  0.66770337  0.37570366  0.00207153  1
  Pr  Pr71  1  0.00935119  0.87359868  0.00490294  1
  Mn  Mn72  1  -0.00332331  -0.00127118  0.16806822  1
  Mn  Mn73  1  0.00384426  -0.00134110  0.50257292  1
  Mn  Mn74  1  0.00137055  -0.00059022  0.83612286  1
  Mn  Mn75  1  -0.00398426  0.49970082  0.16761081  1
  Mn  Mn76  1  -0.00170799  0.50031995  0.50127754  1
  Mn  Mn77  1  -0.00306560  0.50117738  0.83299075  1
  Mn  Mn78  1  0.33326250  0.00330942  0.16472409  1
  Mn  Mn79  1  0.33625740  -0.00115592  0.50138942  1
  Mn  Mn80  1  0.33627518  0.00049184  0.83154867  1
  Mn  Mn81  1  0.33256796  0.49854940  0.16578670  1
  Mn  Mn82  1  0.33245012  0.49923344  0.50160230  1
  Mn  Mn83  1  0.33255498  0.49914663  0.83337374  1
  Mn  Mn84  1  0.66581372  0.00149201  0.16462362  1
  Mn  Mn85  1  0.67035047  -0.00291376  0.49769983  1
  Mn  Mn86  1  0.66652465  0.00090317  0.83329982  1
  Mn  Mn87  1  0.66379764  0.50041602  0.16527049  1
  Mn  Mn88  1  0.66740074  0.50396844  0.50017293  1
  Mn  Mn89  1  0.66790486  0.49958482  0.83065804  1
  Mn  Mn90  1  -0.00413554  0.24909679  0.16702390  1
  Mn  Mn91  1  0.00257537  0.24892256  0.50285733  1
  Mn  Mn92  1  -0.00178583  0.24984198  0.83276286  1
  Mn  Mn93  1  -0.00312469  0.75182721  0.16885977  1
  Mn  Mn94  1  -0.00013137  0.75081805  0.50164290  1
  Mn  Mn95  1  0.00062498  0.75021221  0.83593622  1
  Mn  Mn96  1  0.33325938  0.24872445  0.16537189  1
  Mn  Mn97  1  0.33372917  0.24943738  0.50097818  1
  Mn  Mn98  1  0.33302722  0.25275487  0.83318307  1
  Mn  Mn99  1  0.33408024  0.74920028  0.16537103  1
  Mn  Mn100  1  0.33549604  0.74894353  0.50307095  1
  Mn  Mn101  1  0.33518502  0.74847612  0.83106493  1
  Mn  Mn102  1  0.66295228  0.25059322  0.16345061  1
  Mn  Mn103  1  0.66880145  0.25171083  0.49894298  1
  Mn  Mn104  1  0.66757374  0.25289559  0.83260284  1
  Mn  Mn105  1  0.66626716  0.74875622  0.16672614  1
  Mn  Mn106  1  0.66763637  0.74832386  0.49833836  1
  Mn  Mn107  1  0.66653074  0.74857509  0.83134375  1
  Mn  Mn108  1  0.16510488  0.25012183  -0.00147341  1
  Mn  Mn109  1  0.16413106  0.24796631  0.33708666  1
  Mn  Mn110  1  0.16745821  0.25003672  0.66680391  1
  Mn  Mn111  1  0.16400356  0.74864974  0.00071046  1
  Mn  Mn112  1  0.16439613  0.75153818  0.33494627  1
  Mn  Mn113  1  0.16782329  0.75046183  0.66986786  1
  Mn  Mn114  1  0.49990550  0.25168394  0.00004233  1
  Mn  Mn115  1  0.49890854  0.24859608  0.33239624  1
  Mn  Mn116  1  0.50288403  0.25357036  0.66793201  1
  Mn  Mn117  1  0.50052796  0.74646603  -0.00391111  1
  Mn  Mn118  1  0.50133645  0.75072721  0.33217470  1
  Mn  Mn119  1  0.50249759  0.74728222  0.66456648  1
  Mn  Mn120  1  0.83178942  0.25076675  -0.00236047  1
  Mn  Mn121  1  0.83255704  0.24878151  0.33299943  1
  Mn  Mn122  1  0.83676415  0.25258785  0.66611216  1
  Mn  Mn123  1  0.83235864  0.74842573  0.00199263  1
  Mn  Mn124  1  0.83314961  0.75234710  0.33456774  1
  Mn  Mn125  1  0.83564140  0.74863908  0.66714812  1
  Mn  Mn126  1  0.16446283  -0.00000995  0.00102199  1
  Mn  Mn127  1  0.16564530  0.00044197  0.33620659  1
  Mn  Mn128  1  0.17005088  0.00002674  0.66922446  1
  Mn  Mn129  1  0.16486437  0.50062520  -0.00086951  1
  Mn  Mn130  1  0.16320891  0.49899344  0.33580927  1
  Mn  Mn131  1  0.16430199  0.49807688  0.66748504  1
  Mn  Mn132  1  0.50182566  0.00266948  -0.00313310  1
  Mn  Mn133  1  0.50185869  0.00018196  0.33131064  1
  Mn  Mn134  1  0.50420645  -0.00137539  0.66527873  1
  Mn  Mn135  1  0.49752202  0.49961332  -0.00230401  1
  Mn  Mn136  1  0.49879321  0.49914146  0.33307616  1
  Mn  Mn137  1  0.50261381  0.50093836  0.66841143  1
  Mn  Mn138  1  0.83350213  0.00126576  0.00132516  1
  Mn  Mn139  1  0.83137876  -0.00230726  0.33121865  1
  Mn  Mn140  1  0.83895096  -0.00082161  0.66739842  1
  Mn  Mn141  1  0.83013064  0.50079945  -0.00221910  1
  Mn  Mn142  1  0.83454689  0.50194571  0.33611722  1
  Mn  Mn143  1  0.83327108  0.50103848  0.66597964  1
  O  O144  1  0.17199673  0.12530287  0.00819833  1
  O  O145  1  0.16129975  0.12218811  0.35882787  1
  O  O146  1  0.16659938  0.12247448  0.69501466  1
  O  O147  1  0.17130028  0.62464401  0.01140386  1
  O  O148  1  0.15445389  0.62667852  0.34344652  1
  O  O149  1  0.17432352  0.62813437  0.69077131  1
  O  O150  1  0.51220063  0.13202798  0.02154320  1
  O  O151  1  0.50483993  0.12310127  0.34496510  1
  O  O152  1  0.50479209  0.13081539  0.68137406  1
  O  O153  1  0.51039579  0.62177371  0.01440159  1
  O  O154  1  0.50344513  0.62829613  0.35247608  1
  O  O155  1  0.51009801  0.62544672  0.69369537  1
  O  O156  1  0.83740818  0.12499694  0.02621449  1
  O  O157  1  0.83565697  0.12114430  0.34473096  1
  O  O158  1  0.84284815  0.12555014  0.68902651  1
  O  O159  1  0.83997415  0.62554674  0.02661689  1
  O  O160  1  0.84282563  0.63037164  0.35913053  1
  O  O161  1  0.84139307  0.62487446  0.69247689  1
  O  O162  1  0.15866593  0.37212417  0.32516607  1
  O  O163  1  0.15773152  0.37144595  0.64238658  1
  O  O164  1  0.15558576  0.37500886  0.98910145  1
  O  O165  1  0.15874400  0.87916307  0.30970624  1
  O  O166  1  0.15707632  0.87574164  0.64605605  1
  O  O167  1  0.15766662  0.87380039  0.97845203  1
  O  O168  1  0.50076264  0.37003358  0.31172617  1
  O  O169  1  0.49633854  0.38103099  0.65005690  1
  O  O170  1  0.49021441  0.37638247  0.97869692  1
  O  O171  1  0.50977748  0.87606640  0.32089592  1
  O  O172  1  0.49395960  0.86415035  0.63870878  1
  O  O173  1  0.50573047  0.87028740  0.97531641  1
  O  O174  1  0.84119237  0.37456642  0.32455000  1
  O  O175  1  0.82982719  0.38196329  0.63995923  1
  O  O176  1  0.82301266  0.37744934  0.97297453  1
  O  O177  1  0.82481801  0.87495742  0.30413368  1
  O  O178  1  0.83328394  0.87016953  0.64663296  1
  O  O179  1  0.82222580  0.87337889  0.98969509  1
  O  O180  1  -0.00315359  0.37229228  0.18829194  1
  O  O181  1  -0.01255814  0.37738366  0.51848729  1
  O  O182  1  -0.00911657  0.37770499  0.86099442  1
  O  O183  1  -0.01221908  0.87557124  0.19242739  1
  O  O184  1  -0.00675899  0.87438955  0.52893708  1
  O  O185  1  0.00639620  0.87492448  0.86060075  1
  O  O186  1  0.33845578  0.37134139  0.17345297  1
  O  O187  1  0.32594183  0.37575497  0.52008429  1
  O  O188  1  0.33659175  0.37827973  0.86051199  1
  O  O189  1  0.32912358  0.87967307  0.17255760  1
  O  O190  1  0.33327210  0.87247608  0.52277511  1
  O  O191  1  0.34030188  0.87305906  0.84391518  1
  O  O192  1  0.66023401  0.37540226  0.17750811  1
  O  O193  1  0.67175399  0.38434043  0.51777400  1
  O  O194  1  0.67701246  0.37810700  0.85902591  1
  O  O195  1  0.67218691  0.87499130  0.18664027  1
  O  O196  1  0.65824448  0.86806658  0.52083803  1
  O  O197  1  0.66277194  0.87313314  0.85830369  1
  O  O198  1  -0.00967560  0.12239462  0.14555408  1
  O  O199  1  0.01092543  0.11936747  0.47423745  1
  O  O200  1  0.00122702  0.12233886  0.81227357  1
  O  O201  1  -0.00735913  0.62905506  0.14649858  1
  O  O202  1  -0.00462514  0.62841680  0.47394400  1
  O  O203  1  -0.00169841  0.62644677  0.81151816  1
  O  O204  1  0.33747211  0.12677479  0.14018189  1
  O  O205  1  0.32869193  0.12219606  0.48184424  1
  O  O206  1  0.32567474  0.12542823  0.82322512  1
  O  O207  1  0.33255039  0.62149663  0.14804506  1
  O  O208  1  0.33865947  0.62502753  0.49269914  1
  O  O209  1  0.33313207  0.62524670  0.80599407  1
  O  O210  1  0.66869590  0.12683726  0.13946355  1
  O  O211  1  0.67027775  0.11952103  0.47936945  1
  O  O212  1  0.67124321  0.12822517  0.82064384  1
  O  O213  1  0.67016598  0.62426581  0.14486483  1
  O  O214  1  0.67829562  0.62830869  0.47238658  1
  O  O215  1  0.67191863  0.62233123  0.80668159  1
  O  O216  1  0.06504925  0.01420478  0.26302010  1
  O  O217  1  0.08152030  0.02034579  0.59443375  1
  O  O218  1  0.07375508  0.02127878  0.92611744  1
  O  O219  1  0.06838020  0.50824442  0.26502754  1
  O  O220  1  0.07004767  0.51729558  0.59102621  1
  O  O221  1  0.07358233  0.52007570  0.92160732  1
  O  O222  1  0.41133608  0.02271352  0.25241652  1
  O  O223  1  0.41390478  0.00187765  0.58800498  1
  O  O224  1  0.40980459  0.02049398  0.92006480  1
  O  O225  1  0.41666185  0.50578248  0.24646106  1
  O  O226  1  0.41183337  0.51760023  0.59448171  1
  O  O227  1  0.40692423  0.52521690  0.92453368  1
  O  O228  1  0.73748686  0.02257837  0.25534430  1
  O  O229  1  0.75185690  -0.00300303  0.58046366  1
  O  O230  1  0.74577242  0.01925469  0.92604366  1
  O  O231  1  0.74708936  0.52223826  0.26004094  1
  O  O232  1  0.74331429  0.52711505  0.59218167  1
  O  O233  1  0.74549150  0.52762232  0.91822700  1
  O  O234  1  0.25054261  0.23192717  0.25472393  1
  O  O235  1  0.24145717  0.23530364  0.57630603  1
  O  O236  1  0.24279727  0.23467065  0.91039690  1
  O  O237  1  0.24082610  0.74908177  0.24681928  1
  O  O238  1  0.24708144  0.74162153  0.58556505  1
  O  O239  1  0.24221987  0.73539517  0.90601169  1
  O  O240  1  0.57846133  0.22865588  0.24214210  1
  O  O241  1  0.58785980  0.25384405  0.58486637  1
  O  O242  1  0.58542767  0.24250039  0.91873550  1
  O  O243  1  0.58141324  0.73124421  0.24452685  1
  O  O244  1  0.57348875  0.72333113  0.57360188  1
  O  O245  1  0.57493083  0.72788266  0.90163601  1
  O  O246  1  0.90892227  0.22789295  0.24581776  1
  O  O247  1  0.92537656  0.23452367  0.58936599  1
  O  O248  1  0.91210378  0.22728628  0.91254203  1
  O  O249  1  0.90390693  0.73189155  0.24084829  1
  O  O250  1  0.90808363  0.72944987  0.57488130  1
  O  O251  1  0.90690085  0.72812835  0.91325834  1
  O  O252  1  0.07777953  0.49102938  0.08360138  1
  O  O253  1  0.08511883  0.47712467  0.42707960  1
  O  O254  1  0.08505853  0.49657535  0.75415109  1
  O  O255  1  0.08436758  0.97609109  0.09465446  1
  O  O256  1  0.09065889  0.97265325  0.42844040  1
  O  O257  1  0.09581557  0.98198022  0.76146077  1
  O  O258  1  0.42108304  0.48210461  0.08449505  1
  O  O259  1  0.42194291  0.49107191  0.42680158  1
  O  O260  1  0.42436598  0.48727505  0.75912709  1
  O  O261  1  0.42665536  0.99949591  0.08416997  1
  O  O262  1  0.42650424  0.98561211  0.42380484  1
  O  O263  1  0.42649582  0.98187685  0.75392930  1
  O  O264  1  0.74608023  0.48992271  0.07746141  1
  O  O265  1  0.76624568  0.48962909  0.43084049  1
  O  O266  1  0.75775916  0.47965232  0.75484191  1
  O  O267  1  0.76070925  0.98743570  0.09493964  1
  O  O268  1  0.75641317  0.97133441  0.41809988  1
  O  O269  1  0.75418931  0.98951057  0.75133493  1
  O  O270  1  0.25952658  0.26093185  0.07125895  1
  O  O271  1  0.24628287  0.25688385  0.42000384  1
  O  O272  1  0.25698308  0.27217078  0.73825789  1
  O  O273  1  0.24890477  0.76002967  0.07885480  1
  O  O274  1  0.24976341  0.76406194  0.41918550  1
  O  O275  1  0.26077104  0.77129283  0.74222538  1
  O  O276  1  0.58273717  0.27595678  0.07911952  1
  O  O277  1  0.58678042  0.25587826  0.41281756  1
  O  O278  1  0.59131091  0.27392590  0.74825997  1
  O  O279  1  0.59641156  0.76058483  0.06489980  1
  O  O280  1  0.59613768  0.76459594  0.40603671  1
  O  O281  1  0.59349728  0.77153289  0.73161610  1
  O  O282  1  0.91866480  0.26861707  0.07059963  1
  O  O283  1  0.92362084  0.26026139  0.41378393  1
  O  O284  1  0.91377094  0.26937122  0.75360397  1
  O  O285  1  0.92506512  0.77003387  0.07439801  1
  O  O286  1  0.92175165  0.77781874  0.40652351  1
  O  O287  1  0.93360682  0.76575460  0.73981012  1
  O  O288  1  0.26003135  0.48764936  0.06921169  1
  O  O289  1  0.24623324  0.48843838  0.42035107  1
  O  O290  1  0.26291031  0.48294452  0.74180880  1
  O  O291  1  0.24738303  0.98912222  0.08245776  1
  O  O292  1  0.25248941  0.98574652  0.42069891  1
  O  O293  1  0.25986910  0.97470527  0.74139559  1
  O  O294  1  0.58316313  0.48040183  0.07314152  1
  O  O295  1  0.58768460  0.49865220  0.41559086  1
  O  O296  1  0.59685970  0.48179473  0.73931715  1
  O  O297  1  0.59990937  0.98516999  0.06917706  1
  O  O298  1  0.59595180  0.98364897  0.40717113  1
  O  O299  1  0.58976431  0.97302873  0.74205433  1
  O  O300  1  0.91965637  0.48305239  0.06979734  1
  O  O301  1  0.92616198  0.48508256  0.40844676  1
  O  O302  1  0.91930245  0.48105520  0.74678433  1
  O  O303  1  0.92438302  0.97879629  0.07301850  1
  O  O304  1  0.92315594  0.97950236  0.41100409  1
  O  O305  1  0.93222109  0.98388211  0.74422276  1
  O  O306  1  0.07802455  0.25665450  0.07991691  1
  O  O307  1  0.08591859  0.27174716  0.42726366  1
  O  O308  1  0.08073028  0.25646512  0.74907283  1
  O  O309  1  0.08585700  0.77493677  0.09610209  1
  O  O310  1  0.08821570  0.77663772  0.42755258  1
  O  O311  1  0.09870247  0.76689140  0.76426927  1
  O  O312  1  0.42602035  0.26698994  0.08941162  1
  O  O313  1  0.41563451  0.25509241  0.41645564  1
  O  O314  1  0.42037037  0.26815084  0.75408154  1
  O  O315  1  0.42075692  0.74926703  0.07957031  1
  O  O316  1  0.43153572  0.76078444  0.43198321  1
  O  O317  1  0.43220420  0.76561625  0.75562446  1
  O  O318  1  0.74364456  0.26272935  0.07490571  1
  O  O319  1  0.75746546  0.26383872  0.41936982  1
  O  O320  1  0.75401880  0.27266488  0.74995296  1
  O  O321  1  0.75989996  0.76266792  0.09479952  1
  O  O322  1  0.76167708  0.77500261  0.42541050  1
  O  O323  1  0.75578078  0.76033172  0.75370925  1
  O  O324  1  0.24839901  0.01645900  0.25476353  1
  O  O325  1  0.24043491  0.01028622  0.57707103  1
  O  O326  1  0.24185690  0.00986422  0.90542888  1
  O  O327  1  0.24421558  0.50387676  0.24763000  1
  O  O328  1  0.24787422  0.50890536  0.58467352  1
  O  O329  1  0.24370251  0.52172012  0.90679325  1
  O  O330  1  0.57810419  0.02242855  0.23821483  1
  O  O331  1  0.58384959  -0.00043059  0.57837484  1
  O  O332  1  0.57674135  0.01685701  0.90762510  1
  O  O333  1  0.58013844  0.51553932  0.24575325  1
  O  O334  1  0.57997315  0.52572916  0.57799435  1
  O  O335  1  0.57929428  0.51591930  0.90820214  1
  O  O336  1  0.90309994  0.01638806  0.23881358  1
  O  O337  1  0.92244418  0.01403953  0.58404154  1
  O  O338  1  0.90881333  0.02292967  0.91170837  1
  O  O339  1  0.90817972  0.52284529  0.24542486  1
  O  O340  1  0.90872032  0.52516433  0.57693877  1
  O  O341  1  0.90754468  0.52350248  0.91004470  1
  O  O342  1  0.07177239  0.23445287  0.26479708  1
  O  O343  1  0.08439180  0.22261369  0.58593212  1
  O  O344  1  0.07778605  0.23058377  0.91793183  1
  O  O345  1  0.06449771  0.74189910  0.26398207  1
  O  O346  1  0.07187292  0.73473933  0.60289253  1
  O  O347  1  0.07074919  0.72853877  0.92964249  1
  O  O348  1  0.41299815  0.22563477  0.25143419  1
  O  O349  1  0.41347278  0.25035067  0.58629872  1
  O  O350  1  0.40932113  0.23201581  0.92951064  1
  O  O351  1  0.41585628  0.74185083  0.25167620  1
  O  O352  1  0.41119158  0.72497910  0.59867116  1
  O  O353  1  0.40974536  0.72375268  0.91888923  1
  O  O354  1  0.74314219  0.22996151  0.24975798  1
  O  O355  1  0.75492813  0.24859436  0.58303960  1
  O  O356  1  0.75270618  0.22860594  0.91411616  1
  O  O357  1  0.74234999  0.72904028  0.26425158  1
  O  O358  1  0.74231760  0.73084199  0.58933337  1
  O  O359  1  0.74256548  0.72670774  0.92874750  1
