# generated using pymatgen
data_Ba17Sr5La8Pr42Mn72O216
_symmetry_space_group_name_H-M   'P 1'
_cell_length_a   16.67008158
_cell_length_b   15.70726425
_cell_length_c   16.82101810
_cell_angle_alpha   89.99481882
_cell_angle_beta   89.99496119
_cell_angle_gamma   89.96717694
_symmetry_Int_Tables_number   1
_chemical_formula_structural   Ba17Sr5La8Pr42Mn72O216
_chemical_formula_sum   'Ba17 Sr5 La8 Pr42 Mn72 O216'
_cell_volume   4404.43777474
_cell_formula_units_Z   1
loop_
 _symmetry_equiv_pos_site_id
 _symmetry_equiv_pos_as_xyz
  1  'x, y, z'
loop_
 _atom_site_type_symbol
 _atom_site_label
 _atom_site_symmetry_multiplicity
 _atom_site_fract_x
 _atom_site_fract_y
 _atom_site_fract_z
 _atom_site_occupancy
  Ba  Ba0  1  0.83197587  0.87428135  0.49579390  1
  Ba  Ba1  1  0.16830614  0.62591857  0.83625798  1
  Ba  Ba2  1  0.33625557  0.62636752  0.33265069  1
  Ba  Ba3  1  -0.00098977  0.87604684  0.33587816  1
  Ba  Ba4  1  0.50206726  0.62471158  0.16604388  1
  Ba  Ba5  1  -0.00056000  0.12583403  0.33245999  1
  Ba  Ba6  1  0.50108970  0.12322774  0.50129159  1
  Ba  Ba7  1  0.66600886  0.62661825  0.99888356  1
  Ba  Ba8  1  0.16328217  0.12336150  0.83516410  1
  Ba  Ba9  1  0.83197044  0.62382181  0.83298693  1
  Ba  Ba10  1  0.66769325  0.62435635  0.66613445  1
  Ba  Ba11  1  0.17044803  0.37486214  0.50226382  1
  Ba  Ba12  1  0.16928534  0.62420132  0.50290858  1
  Ba  Ba13  1  -0.00089503  0.12532705  0.66627050  1
  Ba  Ba14  1  0.33477624  0.62570784  0.66736717  1
  Ba  Ba15  1  0.49777243  0.37210894  0.83418421  1
  Ba  Ba16  1  0.83439171  0.37563411  0.83133273  1
  Sr  Sr17  1  0.33535787  0.37617408  0.67027730  1
  Sr  Sr18  1  0.33259952  0.37496944  -0.00158375  1
  Sr  Sr19  1  0.33388878  0.87416593  0.33616180  1
  Sr  Sr20  1  0.33492861  0.62364236  0.99690339  1
  Sr  Sr21  1  0.49761772  0.87482991  0.49801509  1
  La  La22  1  0.16599066  0.12213779  0.50500428  1
  La  La23  1  0.66493398  0.12222487  0.33352906  1
  La  La24  1  -0.00008355  0.87338755  0.66601260  1
  La  La25  1  0.66287716  0.87301336  0.00039188  1
  La  La26  1  0.83425422  0.12180277  0.49889407  1
  La  La27  1  0.00221977  0.37573145  0.33614887  1
  La  La28  1  0.16531313  0.87465920  0.83342083  1
  La  La29  1  0.49846960  0.61963034  0.83813564  1
  Pr  Pr30  1  0.33244195  0.12800158  0.66408321  1
  Pr  Pr31  1  0.83267585  0.37535665  0.49901133  1
  Pr  Pr32  1  -0.00006292  0.62495221  0.99599088  1
  Pr  Pr33  1  0.34016505  0.37721350  0.33718953  1
  Pr  Pr34  1  0.50018126  0.37723714  0.50375670  1
  Pr  Pr35  1  0.50060754  0.62834793  0.50163155  1
  Pr  Pr36  1  0.00550894  0.62519808  0.33354909  1
  Pr  Pr37  1  -0.00111543  0.62199920  0.66547990  1
  Pr  Pr38  1  0.66264013  0.12638222  0.99637465  1
  Pr  Pr39  1  0.00668100  0.37719035  -0.00110779  1
  Pr  Pr40  1  0.66161825  0.87519003  0.33655098  1
  Pr  Pr41  1  0.49981917  0.37776183  0.16076318  1
  Pr  Pr42  1  0.66806799  0.12869527  0.66318940  1
  Pr  Pr43  1  0.82866044  0.87218070  0.82717914  1
  Pr  Pr44  1  0.32530770  0.87686779  0.00414749  1
  Pr  Pr45  1  0.83233046  0.87877098  0.16485102  1
  Pr  Pr46  1  0.32921994  0.12618705  0.99753915  1
  Pr  Pr47  1  0.16887356  0.87393624  0.49782824  1
  Pr  Pr48  1  -0.00676329  0.12518644  0.99584101  1
  Pr  Pr49  1  0.33256316  0.87621965  0.66532718  1
  Pr  Pr50  1  0.66568199  0.37264048  0.67126053  1
  Pr  Pr51  1  0.49649809  0.12844154  0.17254042  1
  Pr  Pr52  1  0.17285326  0.37482167  0.16736892  1
  Pr  Pr53  1  0.66581642  0.37293691  0.33187840  1
  Pr  Pr54  1  0.49523299  0.87134573  0.83195300  1
  Pr  Pr55  1  0.16587708  0.12392827  0.17059959  1
  Pr  Pr56  1  0.83671774  0.62367285  0.16722399  1
  Pr  Pr57  1  0.17319357  0.37514099  0.82884013  1
  Pr  Pr58  1  0.66793378  0.38125393  0.00040568  1
  Pr  Pr59  1  0.83827506  0.37067722  0.15878188  1
  Pr  Pr60  1  0.66238994  0.87800081  0.66605520  1
  Pr  Pr61  1  0.49049221  0.87430381  0.16451429  1
  Pr  Pr62  1  0.00961509  0.37608520  0.67078352  1
  Pr  Pr63  1  0.16387396  0.87413035  0.17012872  1
  Pr  Pr64  1  0.49654124  0.12603964  0.83295700  1
  Pr  Pr65  1  0.33198537  0.12449943  0.33583581  1
  Pr  Pr66  1  0.83080355  0.12514702  0.83295352  1
  Pr  Pr67  1  0.67113760  0.62707907  0.32806788  1
  Pr  Pr68  1  0.16909305  0.62519233  0.17083293  1
  Pr  Pr69  1  0.82684372  0.12612179  0.16800153  1
  Pr  Pr70  1  -0.00112095  0.87210477  0.00302813  1
  Pr  Pr71  1  0.83927553  0.62753088  0.50131070  1
  Mn  Mn72  1  -0.00092888  -0.00021485  0.16420026  1
  Mn  Mn73  1  0.00047230  0.00076597  0.50061419  1
  Mn  Mn74  1  -0.00392950  -0.00139124  0.83522254  1
  Mn  Mn75  1  0.00094327  0.49942490  0.16748486  1
  Mn  Mn76  1  -0.00066733  0.49782048  0.50028245  1
  Mn  Mn77  1  0.00169600  0.49975815  0.83441516  1
  Mn  Mn78  1  0.33143271  0.00114921  0.16777986  1
  Mn  Mn79  1  0.33414286  0.00017075  0.50005018  1
  Mn  Mn80  1  0.33325814  -0.00057668  0.83519654  1
  Mn  Mn81  1  0.33356200  0.49915571  0.16588727  1
  Mn  Mn82  1  0.33701031  0.49887907  0.50144546  1
  Mn  Mn83  1  0.33370623  0.49947621  0.83494872  1
  Mn  Mn84  1  0.66420343  -0.00020188  0.16515281  1
  Mn  Mn85  1  0.66620529  0.00004317  0.49966637  1
  Mn  Mn86  1  0.66481481  0.00106059  0.83345173  1
  Mn  Mn87  1  0.67031540  0.49946775  0.16803265  1
  Mn  Mn88  1  0.66704697  0.49820086  0.49669185  1
  Mn  Mn89  1  0.66563444  0.49794687  0.83343733  1
  Mn  Mn90  1  0.00196263  0.25036314  0.16419066  1
  Mn  Mn91  1  -0.00055108  0.25168584  0.49956317  1
  Mn  Mn92  1  -0.00116982  0.24945594  0.83414290  1
  Mn  Mn93  1  -0.00155273  0.74928256  0.16669211  1
  Mn  Mn94  1  0.00145272  0.74919860  0.50071403  1
  Mn  Mn95  1  -0.00136659  0.75206856  0.83505199  1
  Mn  Mn96  1  0.33245409  0.24864939  0.16823558  1
  Mn  Mn97  1  0.33579265  0.25101349  0.50013786  1
  Mn  Mn98  1  0.33209726  0.24707111  0.83385025  1
  Mn  Mn99  1  0.33140190  0.75170794  0.16596697  1
  Mn  Mn100  1  0.33561929  0.75162069  0.49987657  1
  Mn  Mn101  1  0.33381317  0.75249396  0.83560435  1
  Mn  Mn102  1  0.66675162  0.24967041  0.16516623  1
  Mn  Mn103  1  0.66850590  0.25221328  0.49974979  1
  Mn  Mn104  1  0.66542714  0.24692352  0.83261309  1
  Mn  Mn105  1  0.66850272  0.75304417  0.16778802  1
  Mn  Mn106  1  0.66507193  0.74933540  0.49642555  1
  Mn  Mn107  1  0.66457510  0.75285274  0.83377381  1
  Mn  Mn108  1  0.16507764  0.25084797  0.00228230  1
  Mn  Mn109  1  0.16863579  0.24976512  0.33363958  1
  Mn  Mn110  1  0.16804284  0.24898467  0.66780579  1
  Mn  Mn111  1  0.16618205  0.75061182  0.00281625  1
  Mn  Mn112  1  0.16803058  0.75080497  0.33408832  1
  Mn  Mn113  1  0.16591349  0.75200704  0.66752172  1
  Mn  Mn114  1  0.50020591  0.24819675  0.00269081  1
  Mn  Mn115  1  0.50107043  0.25014158  0.33283849  1
  Mn  Mn116  1  0.50003975  0.24818074  0.66701526  1
  Mn  Mn117  1  0.49733751  0.75351972  -0.00132244  1
  Mn  Mn118  1  0.50118633  0.75162254  0.33337876  1
  Mn  Mn119  1  0.50060050  0.75262131  0.66579300  1
  Mn  Mn120  1  0.83297241  0.24872401  -0.00075999  1
  Mn  Mn121  1  0.83226764  0.25233659  0.33013307  1
  Mn  Mn122  1  0.83369299  0.25041314  0.66406785  1
  Mn  Mn123  1  0.83236707  0.75264476  -0.00072095  1
  Mn  Mn124  1  0.83373005  0.74760188  0.33104155  1
  Mn  Mn125  1  0.83174485  0.75039456  0.66384542  1
  Mn  Mn126  1  0.16280780  -0.00012398  0.00387019  1
  Mn  Mn127  1  0.16862065  0.00059091  0.33562615  1
  Mn  Mn128  1  0.16729703  -0.00186879  0.66707797  1
  Mn  Mn129  1  0.16817433  0.49838611  0.00196343  1
  Mn  Mn130  1  0.16855327  0.49954004  0.33234956  1
  Mn  Mn131  1  0.16873757  0.50023605  0.66892397  1
  Mn  Mn132  1  0.49781698  0.00227595  0.00103372  1
  Mn  Mn133  1  0.49901956  0.00125168  0.33200029  1
  Mn  Mn134  1  0.50015836  -0.00191854  0.66852226  1
  Mn  Mn135  1  0.49852335  0.49805253  0.00001694  1
  Mn  Mn136  1  0.50419719  0.49684363  0.33378567  1
  Mn  Mn137  1  0.50157157  0.50065229  0.66692633  1
  Mn  Mn138  1  0.83107298  0.00024748  -0.00227717  1
  Mn  Mn139  1  0.83078013  0.00236962  0.33035588  1
  Mn  Mn140  1  0.83202361  -0.00147054  0.66597694  1
  Mn  Mn141  1  0.83464934  0.49822442  0.00069869  1
  Mn  Mn142  1  0.83294326  0.49788862  0.33178533  1
  Mn  Mn143  1  0.83395443  0.49974101  0.66230160  1
  O  O144  1  0.16506291  0.12467477  0.02730452  1
  O  O145  1  0.17452095  0.12572988  0.35922602  1
  O  O146  1  0.17494250  0.12237291  0.67824445  1
  O  O147  1  0.16155081  0.62555852  0.02700780  1
  O  O148  1  0.16149807  0.62513293  0.34389292  1
  O  O149  1  0.15962817  0.62688833  0.67910431  1
  O  O150  1  0.50565049  0.12347135  0.03051072  1
  O  O151  1  0.50335178  0.12738797  0.34534850  1
  O  O152  1  0.50374101  0.11993708  0.68935765  1
  O  O153  1  0.49694739  0.62592887  0.00684648  1
  O  O154  1  0.51130369  0.61928649  0.35561913  1
  O  O155  1  0.50167856  0.63124454  0.69116145  1
  O  O156  1  0.83575221  0.12377008  0.02646498  1
  O  O157  1  0.82553046  0.12974098  0.35346109  1
  O  O158  1  0.82815888  0.12197732  0.68951972  1
  O  O159  1  0.84017444  0.62231661  0.02327086  1
  O  O160  1  0.82429589  0.61706848  0.35887857  1
  O  O161  1  0.84076823  0.62542784  0.67667182  1
  O  O162  1  0.16824000  0.37365305  0.31145879  1
  O  O163  1  0.16252414  0.37416003  0.66159355  1
  O  O164  1  0.16046646  0.37192842  0.97405075  1
  O  O165  1  0.16920248  0.87642741  0.31342830  1
  O  O166  1  0.16473668  0.87626059  0.64388010  1
  O  O167  1  0.16538833  0.87767399  0.97849889  1
  O  O168  1  0.50137743  0.37048277  0.30561633  1
  O  O169  1  0.50406721  0.37269347  0.64839568  1
  O  O170  1  0.50316486  0.37023751  0.99185866  1
  O  O171  1  0.50624853  0.88204009  0.30735628  1
  O  O172  1  0.50346386  0.87642600  0.64610808  1
  O  O173  1  0.49306610  0.88329556  0.97602540  1
  O  O174  1  0.83220336  0.37537965  0.30137481  1
  O  O175  1  0.82591970  0.37654220  0.64269406  1
  O  O176  1  0.83067471  0.37188085  0.98925749  1
  O  O177  1  0.82818252  0.87851574  0.30876211  1
  O  O178  1  0.82693705  0.87439739  0.65221845  1
  O  O179  1  0.83421142  0.88192102  0.97168657  1
  O  O180  1  -0.00718779  0.37650179  0.19375535  1
  O  O181  1  -0.00887651  0.37559062  0.52404765  1
  O  O182  1  0.00464059  0.37226770  0.85528495  1
  O  O183  1  -0.00642363  0.87251878  0.18188638  1
  O  O184  1  0.00548330  0.87352204  0.51834859  1
  O  O185  1  -0.00561125  0.87529603  0.85994324  1
  O  O186  1  0.33079816  0.36872798  0.19320481  1
  O  O187  1  0.34494275  0.37335610  0.51884187  1
  O  O188  1  0.32700445  0.37029262  0.84817458  1
  O  O189  1  0.33401512  0.87937193  0.18577213  1
  O  O190  1  0.33384618  0.87857983  0.52005906  1
  O  O191  1  0.33843432  0.87875809  0.86138392  1
  O  O192  1  0.67151743  0.37151657  0.18821021  1
  O  O193  1  0.67163485  0.37425757  0.52819282  1
  O  O194  1  0.66628648  0.36625044  0.85619685  1
  O  O195  1  0.67386442  0.87878210  0.19316120  1
  O  O196  1  0.66604633  0.87568890  0.52048824  1
  O  O197  1  0.67271397  0.88184335  0.85738162  1
  O  O198  1  0.00996336  0.12575297  0.13860449  1
  O  O199  1  0.00198913  0.12862591  0.49039133  1
  O  O200  1  -0.00772860  0.12428660  0.82139692  1
  O  O201  1  0.00057480  0.62434248  0.13802384  1
  O  O202  1  -0.00374327  0.62137544  0.47941638  1
  O  O203  1  0.00033067  0.62959507  0.81166449  1
  O  O204  1  0.33230229  0.12401370  0.13980923  1
  O  O205  1  0.32791034  0.12521652  0.47961228  1
  O  O206  1  0.33475149  0.11971750  0.80947293  1
  O  O207  1  0.32422991  0.62885240  0.14817614  1
  O  O208  1  0.34210574  0.62389945  0.49030927  1
  O  O209  1  0.33847411  0.62943349  0.82605655  1
  O  O210  1  0.66628221  0.12417625  0.13871087  1
  O  O211  1  0.67240333  0.12863753  0.47679856  1
  O  O212  1  0.66483426  0.12162498  0.80669690  1
  O  O213  1  0.67334305  0.62740487  0.15458976  1
  O  O214  1  0.65786154  0.62047903  0.47043549  1
  O  O215  1  0.65401048  0.62989656  0.82569447  1
  O  O216  1  0.09260182  0.01302808  0.24539865  1
  O  O217  1  0.09011012  0.01025559  0.58146327  1
  O  O218  1  0.07382286  0.01199291  0.92741318  1
  O  O219  1  0.08167418  0.51946991  0.24726775  1
  O  O220  1  0.07590540  0.50832635  0.59455399  1
  O  O221  1  0.07785949  0.51487802  0.92826760  1
  O  O222  1  0.41867745  0.02214772  0.24509158  1
  O  O223  1  0.41120644  0.01423154  0.59197830  1
  O  O224  1  0.41874221  0.03012561  0.91976659  1
  O  O225  1  0.41979350  0.50266980  0.25009051  1
  O  O226  1  0.42695638  0.51235155  0.57625742  1
  O  O227  1  0.41682661  0.50985555  0.91599907  1
  O  O228  1  0.74797171  0.02473467  0.24596842  1
  O  O229  1  0.75168852  0.02184219  0.58202453  1
  O  O230  1  0.74733659  0.02734361  0.91721954  1
  O  O231  1  0.75668895  0.52122457  0.24631323  1
  O  O232  1  0.75788763  0.51565099  0.56698159  1
  O  O233  1  0.74788008  0.50342611  0.92031584  1
  O  O234  1  0.24827318  0.22395154  0.24701903  1
  O  O235  1  0.25108013  0.23197891  0.58061416  1
  O  O236  1  0.25061752  0.23223857  0.92265417  1
  O  O237  1  0.24422983  0.74025221  0.24361693  1
  O  O238  1  0.25193156  0.75138543  0.58517365  1
  O  O239  1  0.25502279  0.74604192  0.92511252  1
  O  O240  1  0.58039737  0.23206082  0.24313551  1
  O  O241  1  0.58809927  0.23709345  0.58594027  1
  O  O242  1  0.58066648  0.22246056  0.91306158  1
  O  O243  1  0.59620752  0.73982475  0.25845208  1
  O  O244  1  0.58295049  0.73531204  0.57935665  1
  O  O245  1  0.58370232  0.75383855  0.91835805  1
  O  O246  1  0.90822530  0.23294258  0.23354906  1
  O  O247  1  0.90597332  0.23742883  0.57048371  1
  O  O248  1  0.90895647  0.22881839  0.91132899  1
  O  O249  1  0.91990768  0.72122633  0.25055744  1
  O  O250  1  0.91991306  0.73304020  0.58372904  1
  O  O251  1  0.92263384  0.73599208  0.92480301  1
  O  O252  1  0.08537678  0.47390984  0.08802794  1
  O  O253  1  0.07666290  0.48599293  0.41151180  1
  O  O254  1  0.08735910  0.48080179  0.75719538  1
  O  O255  1  0.08187509  0.97336145  0.08457159  1
  O  O256  1  0.08960462  0.98928851  0.42081481  1
  O  O257  1  0.08212404  0.97786149  0.75192638  1
  O  O258  1  0.41827617  0.48127329  0.08650196  1
  O  O259  1  0.42316978  0.47726991  0.41587062  1
  O  O260  1  0.41787592  0.49348488  0.74992612  1
  O  O261  1  0.41145540  0.98136448  0.08099838  1
  O  O262  1  0.41277603  0.99168062  0.41098126  1
  O  O263  1  0.41859605  0.97738236  0.75104166  1
  O  O264  1  0.75256015  0.47884788  0.08520617  1
  O  O265  1  0.74615957  0.47191314  0.40837335  1
  O  O266  1  0.74792332  0.48658713  0.74163088  1
  O  O267  1  0.74984428  0.97917776  0.08136744  1
  O  O268  1  0.74253594  0.98909731  0.40601690  1
  O  O269  1  0.74691464  0.98006907  0.74811867  1
  O  O270  1  0.24936165  0.26786907  0.08585819  1
  O  O271  1  0.26280139  0.26503274  0.40795021  1
  O  O272  1  0.25054490  0.26240055  0.75174389  1
  O  O273  1  0.24453582  0.77622692  0.08667034  1
  O  O274  1  0.25033867  0.76766369  0.41990529  1
  O  O275  1  0.24882372  0.77448247  0.75459274  1
  O  O276  1  0.59251873  0.27080709  0.08020744  1
  O  O277  1  0.58899842  0.27143701  0.41485873  1
  O  O278  1  0.58845708  0.25988874  0.74502939  1
  O  O279  1  0.57738114  0.77516888  0.08808820  1
  O  O280  1  0.58124853  0.77155398  0.41791367  1
  O  O281  1  0.58169378  0.77742425  0.75152704  1
  O  O282  1  0.92638648  0.26780341  0.07534156  1
  O  O283  1  0.91796151  0.27279484  0.40960202  1
  O  O284  1  0.92282349  0.26714783  0.73941171  1
  O  O285  1  0.91098369  0.77101843  0.08725206  1
  O  O286  1  0.91489297  0.75050582  0.41503310  1
  O  O287  1  0.91630897  0.77242395  0.75254006  1
  O  O288  1  0.24812037  0.47745674  0.08434571  1
  O  O289  1  0.25973574  0.48483827  0.41105998  1
  O  O290  1  0.24910122  0.48583041  0.75433342  1
  O  O291  1  0.24272326  0.97998400  0.09102039  1
  O  O292  1  0.24706074  0.98207978  0.42178052  1
  O  O293  1  0.24889644  0.97383567  0.75002807  1
  O  O294  1  0.58583795  0.48011482  0.08654908  1
  O  O295  1  0.58402560  0.46666735  0.41781949  1
  O  O296  1  0.58747961  0.48298930  0.74456871  1
  O  O297  1  0.58006107  0.97436635  0.08425792  1
  O  O298  1  0.58333441  0.98616442  0.41281448  1
  O  O299  1  0.58068714  0.97574393  0.75570741  1
  O  O300  1  0.91817773  0.47856608  0.08650651  1
  O  O301  1  0.91125976  0.47623330  0.41508326  1
  O  O302  1  0.92649944  0.48632459  0.73888462  1
  O  O303  1  0.91503253  0.97963483  0.07526895  1
  O  O304  1  0.91100873  0.99846816  0.41441981  1
  O  O305  1  0.91237061  0.97769650  0.75090783  1
  O  O306  1  0.08666170  0.27881884  0.08773615  1
  O  O307  1  0.08117961  0.26574086  0.41347011  1
  O  O308  1  0.08528849  0.26641959  0.75761187  1
  O  O309  1  0.08107779  0.77241467  0.08539471  1
  O  O310  1  0.08791611  0.76310658  0.42251925  1
  O  O311  1  0.08175241  0.77626414  0.75447271  1
  O  O312  1  0.42324828  0.26299353  0.09604957  1
  O  O313  1  0.42303941  0.27113319  0.41915622  1
  O  O314  1  0.41697549  0.25017602  0.75147120  1
  O  O315  1  0.41004402  0.77321328  0.07772544  1
  O  O316  1  0.41809911  0.76151941  0.41463725  1
  O  O317  1  0.41297261  0.77630415  0.74606003  1
  O  O318  1  0.75545779  0.26455836  0.08828971  1
  O  O319  1  0.75165348  0.27568061  0.41880034  1
  O  O320  1  0.74705533  0.26057075  0.74588105  1
  O  O321  1  0.74679725  0.77620299  0.08057051  1
  O  O322  1  0.73879096  0.76156235  0.40211661  1
  O  O323  1  0.74443118  0.76934556  0.74740165  1
  O  O324  1  0.25387999  0.02438750  0.25396162  1
  O  O325  1  0.25248933  0.01631217  0.58502513  1
  O  O326  1  0.25267011  0.01365356  0.92926591  1
  O  O327  1  0.24418569  0.51131814  0.24167960  1
  O  O328  1  0.25193776  0.50301282  0.58606834  1
  O  O329  1  0.24969529  0.50675301  0.92077222  1
  O  O330  1  0.58355072  0.02321240  0.24684703  1
  O  O331  1  0.59183114  0.01368816  0.59448654  1
  O  O332  1  0.58230553  0.02271740  0.91978521  1
  O  O333  1  0.59510463  0.50824900  0.25900340  1
  O  O334  1  0.58176620  0.51252774  0.57540939  1
  O  O335  1  0.58028873  0.50504202  0.91751980  1
  O  O336  1  0.90803760  0.01737744  0.23783196  1
  O  O337  1  0.91378696  0.00916794  0.58303794  1
  O  O338  1  0.90835060  0.02471556  0.91519139  1
  O  O339  1  0.92003838  0.52611155  0.25373823  1
  O  O340  1  0.91606048  0.51995431  0.57916167  1
  O  O341  1  0.92102189  0.51161719  0.92305595  1
  O  O342  1  0.08681039  0.23703042  0.24386126  1
  O  O343  1  0.08488726  0.24230832  0.58410844  1
  O  O344  1  0.07175212  0.23409986  0.93048946  1
  O  O345  1  0.08212786  0.73078282  0.24715218  1
  O  O346  1  0.07559738  0.73857663  0.59293842  1
  O  O347  1  0.08033051  0.73933169  0.92422157  1
  O  O348  1  0.41001018  0.22662860  0.25497272  1
  O  O349  1  0.41309053  0.23237114  0.58902095  1
  O  O350  1  0.41361469  0.22554444  0.91985334  1
  O  O351  1  0.42237121  0.74703370  0.24356666  1
  O  O352  1  0.42346449  0.73987442  0.57878110  1
  O  O353  1  0.42561242  0.73918249  0.90623111  1
  O  O354  1  0.74260593  0.22743539  0.25101752  1
  O  O355  1  0.74921399  0.22796735  0.58276519  1
  O  O356  1  0.74523939  0.22361197  0.91767776  1
  O  O357  1  0.76115173  0.73138169  0.24126942  1
  O  O358  1  0.75397318  0.73137791  0.56856067  1
  O  O359  1  0.75268576  0.74723579  0.91340152  1
