# generated using pymatgen
data_Ba17Sr5La8Pr42Mn72O216
_symmetry_space_group_name_H-M   'P 1'
_cell_length_a   16.67333793
_cell_length_b   15.70716202
_cell_length_c   16.82310278
_cell_angle_alpha   90.00990669
_cell_angle_beta   89.99093829
_cell_angle_gamma   89.99835499
_symmetry_Int_Tables_number   1
_chemical_formula_structural   Ba17Sr5La8Pr42Mn72O216
_chemical_formula_sum   'Ba17 Sr5 La8 Pr42 Mn72 O216'
_cell_volume   4405.81606259
_cell_formula_units_Z   1
loop_
 _symmetry_equiv_pos_site_id
 _symmetry_equiv_pos_as_xyz
  1  'x, y, z'
loop_
 _atom_site_type_symbol
 _atom_site_label
 _atom_site_symmetry_multiplicity
 _atom_site_fract_x
 _atom_site_fract_y
 _atom_site_fract_z
 _atom_site_occupancy
  Ba  Ba0  1  0.83186957  0.12454448  0.16759208  1
  Ba  Ba1  1  0.16628927  0.87868091  0.83210840  1
  Ba  Ba2  1  0.49699520  0.62735684  0.83293535  1
  Ba  Ba3  1  0.16704488  0.87613420  0.16608993  1
  Ba  Ba4  1  0.66729761  0.12370873  0.66657934  1
  Ba  Ba5  1  0.33225922  0.37575968  0.00194454  1
  Ba  Ba6  1  0.66528472  0.12459770  1.00009084  1
  Ba  Ba7  1  0.00072662  0.87548946  0.33531146  1
  Ba  Ba8  1  0.49875996  0.12431441  0.16698410  1
  Ba  Ba9  1  0.66536432  0.37527811  -0.00138017  1
  Ba  Ba10  1  -0.00145922  0.37593613  0.00016206  1
  Ba  Ba11  1  0.50323740  0.37540047  0.50048410  1
  Ba  Ba12  1  0.33307976  0.62734919  0.66544888  1
  Ba  Ba13  1  0.49915682  0.37526649  0.16579707  1
  Ba  Ba14  1  0.16566737  0.37306490  0.16430851  1
  Ba  Ba15  1  0.00049283  0.62471650  0.66596848  1
  Ba  Ba16  1  -0.00160556  0.62547637  0.99816631  1
  Sr  Sr17  1  0.16531320  0.12755474  0.16554537  1
  Sr  Sr18  1  0.16429115  0.12477080  0.83581921  1
  Sr  Sr19  1  0.83366533  0.37469542  0.83334892  1
  Sr  Sr20  1  0.83649835  0.87405217  0.49810076  1
  Sr  Sr21  1  0.33225783  0.62355850  0.33445143  1
  La  La22  1  0.50318266  0.87664650  0.83318146  1
  La  La23  1  0.32879306  0.12287678  0.66636785  1
  La  La24  1  0.83352439  0.37463613  0.50253158  1
  La  La25  1  0.66211394  0.62239669  0.99820580  1
  La  La26  1  0.49835574  0.62571907  0.50664565  1
  La  La27  1  0.17012938  0.87251437  0.49586730  1
  La  La28  1  0.16932995  0.37848605  0.49812212  1
  La  La29  1  0.83452992  0.87512010  0.83243158  1
  Pr  Pr30  1  0.66867935  0.62419472  0.66210065  1
  Pr  Pr31  1  0.00352204  0.12463505  1.00077430  1
  Pr  Pr32  1  0.32605055  0.62405239  0.99813565  1
  Pr  Pr33  1  0.66509890  0.62375829  0.33280394  1
  Pr  Pr34  1  0.33522976  0.37306882  0.33385724  1
  Pr  Pr35  1  0.33741566  0.87746037  0.33620460  1
  Pr  Pr36  1  0.34034498  0.87522547  0.66979211  1
  Pr  Pr37  1  0.50532590  0.37380527  0.83058323  1
  Pr  Pr38  1  0.16302724  0.62038395  0.16555169  1
  Pr  Pr39  1  0.00139632  0.87646738  0.00553845  1
  Pr  Pr40  1  -0.00142751  0.36924106  0.33381434  1
  Pr  Pr41  1  0.16486011  0.62768226  0.50306402  1
  Pr  Pr42  1  0.00073640  0.87668235  0.66593894  1
  Pr  Pr43  1  0.66556015  0.12642537  0.32698778  1
  Pr  Pr44  1  0.66557267  0.37216577  0.33259740  1
  Pr  Pr45  1  0.33838539  0.37582216  0.67368089  1
  Pr  Pr46  1  0.49598849  0.12489313  0.50261882  1
  Pr  Pr47  1  0.32803145  0.12746125  1.00226665  1
  Pr  Pr48  1  0.33084457  0.12681365  0.32894590  1
  Pr  Pr49  1  0.67093926  0.87390536  0.66849333  1
  Pr  Pr50  1  0.49432263  0.62165683  0.16716027  1
  Pr  Pr51  1  0.66905250  0.37472377  0.67333824  1
  Pr  Pr52  1  0.15974101  0.12497133  0.50053644  1
  Pr  Pr53  1  0.66536470  0.87299051  0.00253617  1
  Pr  Pr54  1  0.50119233  0.87372482  0.16655345  1
  Pr  Pr55  1  -0.00087971  0.12408505  0.66948266  1
  Pr  Pr56  1  0.83548303  0.62994459  0.50318040  1
  Pr  Pr57  1  0.00209895  0.62773350  0.33075262  1
  Pr  Pr58  1  0.83178919  0.62021184  0.16767998  1
  Pr  Pr59  1  0.83152268  0.62301265  0.83604866  1
  Pr  Pr60  1  0.67020619  0.87649962  0.33476658  1
  Pr  Pr61  1  0.33605884  0.87455352  0.00349245  1
  Pr  Pr62  1  0.50689689  0.87360619  0.49999300  1
  Pr  Pr63  1  0.16550434  0.62614378  0.83535082  1
  Pr  Pr64  1  0.00204414  0.37242810  0.67436769  1
  Pr  Pr65  1  0.49655274  0.12414621  0.84141789  1
  Pr  Pr66  1  0.83345940  0.87374650  0.16307514  1
  Pr  Pr67  1  0.83524123  0.12004521  0.50042636  1
  Pr  Pr68  1  0.00301365  0.12197294  0.32838523  1
  Pr  Pr69  1  0.16658225  0.37710251  0.83130460  1
  Pr  Pr70  1  0.83548501  0.12723957  0.84181333  1
  Pr  Pr71  1  0.83077999  0.37485195  0.16078902  1
  Mn  Mn72  1  -0.00119651  -0.00030686  0.16733526  1
  Mn  Mn73  1  0.00097237  0.00232036  0.50069867  1
  Mn  Mn74  1  -0.00134295  -0.00081920  0.83393123  1
  Mn  Mn75  1  -0.00187830  0.50179164  0.16929753  1
  Mn  Mn76  1  -0.00019948  0.49678088  0.49831631  1
  Mn  Mn77  1  -0.00079969  0.49950646  0.83099561  1
  Mn  Mn78  1  0.33285738  -0.00096459  0.16864227  1
  Mn  Mn79  1  0.33408630  0.00127445  0.49972244  1
  Mn  Mn80  1  0.33355539  0.00006575  0.83356908  1
  Mn  Mn81  1  0.33221398  0.50357009  0.16807396  1
  Mn  Mn82  1  0.33391897  0.49946430  0.49947198  1
  Mn  Mn83  1  0.33223300  0.49997970  0.83391079  1
  Mn  Mn84  1  0.66609889  -0.00304772  0.16878696  1
  Mn  Mn85  1  0.66849516  -0.00056628  0.49800264  1
  Mn  Mn86  1  0.66762349  -0.00152464  0.83248403  1
  Mn  Mn87  1  0.66579133  0.50326405  0.16702289  1
  Mn  Mn88  1  0.67037302  0.49971962  0.49915583  1
  Mn  Mn89  1  0.66636542  0.50170836  0.83090723  1
  Mn  Mn90  1  -0.00162860  0.24849785  0.16804983  1
  Mn  Mn91  1  -0.00068448  0.25034095  0.50218301  1
  Mn  Mn92  1  0.00102319  0.24931133  0.83363552  1
  Mn  Mn93  1  -0.00158273  0.74937319  0.16640584  1
  Mn  Mn94  1  0.00103356  0.74979081  0.49885518  1
  Mn  Mn95  1  -0.00111043  0.75180476  0.83235372  1
  Mn  Mn96  1  0.33203974  0.24843553  0.16701309  1
  Mn  Mn97  1  0.33259105  0.24888767  0.50111850  1
  Mn  Mn98  1  0.33224617  0.24911284  0.83326155  1
  Mn  Mn99  1  0.33325152  0.74966009  0.16845985  1
  Mn  Mn100  1  0.33519901  0.75179926  0.49861856  1
  Mn  Mn101  1  0.33195389  0.75223451  0.83449978  1
  Mn  Mn102  1  0.66556158  0.24982079  0.16690354  1
  Mn  Mn103  1  0.66906991  0.24849822  0.49887992  1
  Mn  Mn104  1  0.66733359  0.24932702  0.83161347  1
  Mn  Mn105  1  0.66621205  0.74887886  0.16746297  1
  Mn  Mn106  1  0.66943505  0.75054729  0.49858376  1
  Mn  Mn107  1  0.66742984  0.75059821  0.83318879  1
  Mn  Mn108  1  0.16534444  0.24727128  -0.00151740  1
  Mn  Mn109  1  0.16721859  0.25137594  0.33469452  1
  Mn  Mn110  1  0.16773457  0.24743389  0.66525757  1
  Mn  Mn111  1  0.16612359  0.75225838  -0.00131689  1
  Mn  Mn112  1  0.16997061  0.74811273  0.33265343  1
  Mn  Mn113  1  0.16655024  0.75309285  0.66512705  1
  Mn  Mn114  1  0.49771752  0.24886409  -0.00075521  1
  Mn  Mn115  1  0.50021565  0.25044697  0.33579119  1
  Mn  Mn116  1  0.49996573  0.24763759  0.66755843  1
  Mn  Mn117  1  0.49796350  0.75137946  0.00210865  1
  Mn  Mn118  1  0.50015484  0.74847091  0.33406463  1
  Mn  Mn119  1  0.50289821  0.75215087  0.66591418  1
  Mn  Mn120  1  0.83339075  0.25047776  0.00082438  1
  Mn  Mn121  1  0.83246059  0.25208116  0.33514743  1
  Mn  Mn122  1  0.83471441  0.24721301  0.66652588  1
  Mn  Mn123  1  0.83035442  0.74999208  -0.00163877  1
  Mn  Mn124  1  0.83243883  0.74694562  0.33303933  1
  Mn  Mn125  1  0.83467907  0.75224893  0.66662164  1
  Mn  Mn126  1  0.16713969  0.00070354  -0.00155673  1
  Mn  Mn127  1  0.16953861  0.00049183  0.33335024  1
  Mn  Mn128  1  0.16635042  0.00202236  0.66421362  1
  Mn  Mn129  1  0.16504142  0.50076481  -0.00064930  1
  Mn  Mn130  1  0.16665708  0.49923343  0.33411252  1
  Mn  Mn131  1  0.16760547  0.49928882  0.66372481  1
  Mn  Mn132  1  0.49807589  -0.00169121  0.00033275  1
  Mn  Mn133  1  0.50087769  -0.00255947  0.33648155  1
  Mn  Mn134  1  0.50095403  0.00117704  0.66718667  1
  Mn  Mn135  1  0.49774125  0.50214763  -0.00034808  1
  Mn  Mn136  1  0.49996959  0.50219470  0.33516555  1
  Mn  Mn137  1  0.50118736  0.50020975  0.66564953  1
  Mn  Mn138  1  0.83292830  -0.00149894  -0.00133702  1
  Mn  Mn139  1  0.83274947  -0.00144208  0.33526618  1
  Mn  Mn140  1  0.83423744  -0.00062458  0.66701328  1
  Mn  Mn141  1  0.83119479  0.50071489  -0.00009546  1
  Mn  Mn142  1  0.83379670  0.49912393  0.33480801  1
  Mn  Mn143  1  0.83454944  0.50041109  0.66543989  1
  O  O144  1  0.16722289  0.12200388  0.01481047  1
  O  O145  1  0.16774243  0.12807101  0.35800955  1
  O  O146  1  0.16884398  0.12486076  0.68794953  1
  O  O147  1  0.17132027  0.62969773  0.01806506  1
  O  O148  1  0.16081668  0.62081866  0.36110394  1
  O  O149  1  0.16774008  0.62974617  0.69022494  1
  O  O150  1  0.49676727  0.11992011  0.00791921  1
  O  O151  1  0.50238460  0.12123237  0.35884217  1
  O  O152  1  0.49507648  0.12313162  0.69481953  1
  O  O153  1  0.50283812  0.63220205  0.02198603  1
  O  O154  1  0.50390344  0.62720234  0.36407944  1
  O  O155  1  0.50770600  0.62754263  0.67566798  1
  O  O156  1  0.83848869  0.12281974  0.00942677  1
  O  O157  1  0.82204568  0.12966938  0.35801932  1
  O  O158  1  0.83981743  0.12221449  0.69583266  1
  O  O159  1  0.82562636  0.62819743  0.02220928  1
  O  O160  1  0.82554594  0.62097988  0.36239493  1
  O  O161  1  0.82881670  0.62991606  0.69184106  1
  O  O162  1  0.16968721  0.37523905  0.31975391  1
  O  O163  1  0.16522988  0.36824110  0.64115658  1
  O  O164  1  0.16579783  0.37096913  0.97747354  1
  O  O165  1  0.17702950  0.87533601  0.32325652  1
  O  O166  1  0.15958473  0.87973942  0.63985976  1
  O  O167  1  0.16499159  0.87731380  0.98848982  1
  O  O168  1  0.50400391  0.37942394  0.32286577  1
  O  O169  1  0.49937618  0.37273190  0.65612035  1
  O  O170  1  0.49708823  0.37432833  0.97712072  1
  O  O171  1  0.50102396  0.87042753  0.30907873  1
  O  O172  1  0.50046875  0.87773269  0.64349544  1
  O  O173  1  0.49376583  0.87510919  0.97770861  1
  O  O174  1  0.83951632  0.37836387  0.30406519  1
  O  O175  1  0.83452043  0.37113146  0.64504765  1
  O  O176  1  0.83236788  0.37677156  0.98746921  1
  O  O177  1  0.82906962  0.86757189  0.30809565  1
  O  O178  1  0.83300040  0.87599499  0.64501670  1
  O  O179  1  0.82880908  0.87328974  0.97563662  1
  O  O180  1  -0.00851090  0.37775851  0.19072249  1
  O  O181  1  -0.00243266  0.37171212  0.53059419  1
  O  O182  1  0.00683394  0.37364924  0.84247893  1
  O  O183  1  -0.00889301  0.87276793  0.17859705  1
  O  O184  1  0.00425097  0.88046759  0.52101417  1
  O  O185  1  -0.00665511  0.87667258  0.86082945  1
  O  O186  1  0.33160102  0.37975393  0.18890527  1
  O  O187  1  0.32588480  0.36874653  0.52895994  1
  O  O188  1  0.32744665  0.37392207  0.84559986  1
  O  O189  1  0.33665005  0.87274767  0.19348577  1
  O  O190  1  0.32610144  0.87903240  0.52554882  1
  O  O191  1  0.33761971  0.87708107  0.85850039  1
  O  O192  1  0.67166017  0.38103956  0.18896801  1
  O  O193  1  0.67364694  0.37889887  0.52952618  1
  O  O194  1  0.66182367  0.37672643  0.84069614  1
  O  O195  1  0.66553695  0.87015367  0.19225803  1
  O  O196  1  0.66274449  0.87520256  0.52599203  1
  O  O197  1  0.67081294  0.87351862  0.85771197  1
  O  O198  1  -0.00056795  0.12204983  0.14861514  1
  O  O199  1  0.00154432  0.12884320  0.47245002  1
  O  O200  1  -0.00849310  0.12343599  0.81174568  1
  O  O201  1  0.00174291  0.62704217  0.15556787  1
  O  O202  1  0.00197269  0.61833497  0.47545180  1
  O  O203  1  -0.00247829  0.62594144  0.82084108  1
  O  O204  1  0.33368985  0.11946982  0.14958542  1
  O  O205  1  0.34332614  0.12376366  0.47255113  1
  O  O206  1  0.34182488  0.12365594  0.80766203  1
  O  O207  1  0.33886488  0.63007371  0.14352833  1
  O  O208  1  0.33999094  0.62976370  0.48430068  1
  O  O209  1  0.32416575  0.62653841  0.82063319  1
  O  O210  1  0.66627947  0.11890893  0.16091499  1
  O  O211  1  0.67318023  0.11943465  0.47162710  1
  O  O212  1  0.66469302  0.12196710  0.82313522  1
  O  O213  1  0.67226463  0.62951500  0.14118445  1
  O  O214  1  0.67422314  0.62551132  0.47595528  1
  O  O215  1  0.67179220  0.62809705  0.80624615  1
  O  O216  1  0.08338359  0.01649488  0.25625878  1
  O  O217  1  0.07987582  0.02723404  0.58411532  1
  O  O218  1  0.07828232  0.01778375  0.91679570  1
  O  O219  1  0.08165636  0.52047448  0.25326633  1
  O  O220  1  0.08787706  0.51301981  0.57416876  1
  O  O221  1  0.08847748  0.51201151  0.90608332  1
  O  O222  1  0.40916931  0.01110185  0.26500230  1
  O  O223  1  0.41009206  0.02073113  0.58802101  1
  O  O224  1  0.41083498  0.01897523  0.91914963  1
  O  O225  1  0.41736845  0.52023012  0.25029201  1
  O  O226  1  0.42121777  0.51076886  0.58034850  1
  O  O227  1  0.40928391  0.51748164  0.92148958  1
  O  O228  1  0.74505046  0.00699772  0.25613571  1
  O  O229  1  0.75595662  0.01511486  0.57746447  1
  O  O230  1  0.75698515  0.01152444  0.90847303  1
  O  O231  1  0.74815974  0.52310616  0.25309968  1
  O  O232  1  0.75178839  0.52465319  0.58208541  1
  O  O233  1  0.74627658  0.52237645  0.91384981  1
  O  O234  1  0.25081231  0.23352146  0.25481138  1
  O  O235  1  0.24668786  0.22208689  0.57809937  1
  O  O236  1  0.24980020  0.22984491  0.91302800  1
  O  O237  1  0.24524597  0.72599874  0.24409288  1
  O  O238  1  0.24451519  0.73876181  0.57271343  1
  O  O239  1  0.24508072  0.73246599  0.91263891  1
  O  O240  1  0.58595597  0.23928104  0.25532498  1
  O  O241  1  0.57721257  0.23009201  0.57653799  1
  O  O242  1  0.57260333  0.23999098  0.90635256  1
  O  O243  1  0.58135104  0.72454946  0.25101973  1
  O  O244  1  0.58847975  0.73150284  0.58009708  1
  O  O245  1  0.58448471  0.74122290  0.92293456  1
  O  O246  1  0.92155355  0.23239002  0.26332670  1
  O  O247  1  0.91718666  0.22243398  0.58306883  1
  O  O248  1  0.91863412  0.23196009  0.91669606  1
  O  O249  1  0.91157591  0.72508410  0.24985649  1
  O  O250  1  0.91265914  0.73737081  0.57896891  1
  O  O251  1  0.90447123  0.73672153  0.90879666  1
  O  O252  1  0.08294886  0.49627884  0.08589050  1
  O  O253  1  0.08053644  0.47292888  0.41561285  1
  O  O254  1  0.08568020  0.47948688  0.74559181  1
  O  O255  1  0.07540540  0.98971058  0.07679280  1
  O  O256  1  0.09436517  0.99081628  0.42530138  1
  O  O257  1  0.07308393  0.98728609  0.74476834  1
  O  O258  1  0.41742923  0.49930112  0.08611379  1
  O  O259  1  0.41106175  0.48362581  0.41195246  1
  O  O260  1  0.41657766  0.48176719  0.75363089  1
  O  O261  1  0.41884201  0.97549580  0.08997445  1
  O  O262  1  0.42466582  0.97433394  0.42647646  1
  O  O263  1  0.42196067  0.97654726  0.75555999  1
  O  O264  1  0.75256508  0.48962781  0.09111157  1
  O  O265  1  0.75351137  0.47288902  0.41675460  1
  O  O266  1  0.74833724  0.48470332  0.74519129  1
  O  O267  1  0.74857208  0.97548253  0.08270598  1
  O  O268  1  0.74931572  0.97560921  0.41582023  1
  O  O269  1  0.74952162  0.97770053  0.74666621  1
  O  O270  1  0.24948675  0.25072861  0.08080017  1
  O  O271  1  0.25245217  0.26966897  0.41703181  1
  O  O272  1  0.25457252  0.26832907  0.74265129  1
  O  O273  1  0.25925059  0.76395919  0.07374567  1
  O  O274  1  0.25783461  0.76677223  0.41182081  1
  O  O275  1  0.25522719  0.77316676  0.73949128  1
  O  O276  1  0.58325636  0.25610876  0.08158331  1
  O  O277  1  0.59225017  0.26115272  0.41154465  1
  O  O278  1  0.58567838  0.26780670  0.74563822  1
  O  O279  1  0.58261799  0.77379079  0.08387623  1
  O  O280  1  0.58537840  0.77121760  0.41558583  1
  O  O281  1  0.58775383  0.77419173  0.74877084  1
  O  O282  1  0.91135371  0.26395168  0.09111037  1
  O  O283  1  0.91591761  0.27277459  0.42070371  1
  O  O284  1  0.92270006  0.26526168  0.74563825  1
  O  O285  1  0.91178992  0.77025509  0.07902477  1
  O  O286  1  0.91609955  0.75352329  0.41511306  1
  O  O287  1  0.91818409  0.77472496  0.74638727  1
  O  O288  1  0.24924548  0.50068198  0.08410141  1
  O  O289  1  0.25080022  0.48000044  0.41521046  1
  O  O290  1  0.24991937  0.47747442  0.74761918  1
  O  O291  1  0.25887245  0.98732225  0.07523520  1
  O  O292  1  0.26120798  0.98538899  0.41026425  1
  O  O293  1  0.26174666  0.98525482  0.73722381  1
  O  O294  1  0.58424904  0.49970700  0.08343768  1
  O  O295  1  0.59464707  0.48884883  0.41049313  1
  O  O296  1  0.58517423  0.48285135  0.74664051  1
  O  O297  1  0.58440994  0.97440337  0.08321143  1
  O  O298  1  0.58668285  0.97404838  0.41462479  1
  O  O299  1  0.58906126  0.97558010  0.74664198  1
  O  O300  1  0.91011368  0.49199532  0.09508203  1
  O  O301  1  0.91943687  0.47335779  0.41446527  1
  O  O302  1  0.92027749  0.48162220  0.74411313  1
  O  O303  1  0.91187127  0.97680614  0.08110438  1
  O  O304  1  0.91450644  0.99507369  0.42298431  1
  O  O305  1  0.91529686  0.97573898  0.75140841  1
  O  O306  1  0.07913413  0.25182283  0.08113249  1
  O  O307  1  0.08376311  0.27155391  0.42174125  1
  O  O308  1  0.08824392  0.26753194  0.75026230  1
  O  O309  1  0.07976356  0.76373273  0.07764755  1
  O  O310  1  0.09293549  0.76152227  0.42169436  1
  O  O311  1  0.07969504  0.77008451  0.74252790  1
  O  O312  1  0.41465349  0.25309933  0.08078176  1
  O  O313  1  0.41360672  0.26495842  0.41724517  1
  O  O314  1  0.41969632  0.27102394  0.75506717  1
  O  O315  1  0.42085695  0.77398833  0.08998201  1
  O  O316  1  0.41979282  0.77699416  0.41826985  1
  O  O317  1  0.41885972  0.77179351  0.75355020  1
  O  O318  1  0.75134397  0.26333471  0.08964087  1
  O  O319  1  0.75233899  0.27954992  0.41504597  1
  O  O320  1  0.75022474  0.26575233  0.74415974  1
  O  O321  1  0.74924700  0.77517666  0.08198591  1
  O  O322  1  0.74842842  0.76952182  0.41482717  1
  O  O323  1  0.75282334  0.77336502  0.74922093  1
  O  O324  1  0.24953579  0.02053396  0.25035787  1
  O  O325  1  0.24594480  0.02427348  0.57110518  1
  O  O326  1  0.25104086  0.01929082  0.91295315  1
  O  O327  1  0.24605699  0.52289396  0.24794340  1
  O  O328  1  0.24554843  0.51543941  0.57656118  1
  O  O329  1  0.24593523  0.51830797  0.91262554  1
  O  O330  1  0.58384304  0.00861798  0.25629772  1
  O  O331  1  0.57555984  0.01644700  0.57240366  1
  O  O332  1  0.57627299  0.00530134  0.90785870  1
  O  O333  1  0.58256872  0.52677030  0.24888788  1
  O  O334  1  0.58883862  0.52153202  0.57951689  1
  O  O335  1  0.58334831  0.51543129  0.91617375  1
  O  O336  1  0.91866482  0.01480623  0.25761553  1
  O  O337  1  0.92008415  0.02266794  0.58780107  1
  O  O338  1  0.91844994  0.01849659  0.91704074  1
  O  O339  1  0.91543810  0.52755373  0.25612925  1
  O  O340  1  0.91037476  0.51537176  0.57253095  1
  O  O341  1  0.90922864  0.51208790  0.90881627  1
  O  O342  1  0.07928243  0.23534338  0.25742487  1
  O  O343  1  0.08009200  0.22567083  0.58674877  1
  O  O344  1  0.08021120  0.22789581  0.91705519  1
  O  O345  1  0.08395425  0.73063071  0.25412276  1
  O  O346  1  0.08698615  0.73576514  0.57944583  1
  O  O347  1  0.08567198  0.73737701  0.91008468  1
  O  O348  1  0.41080814  0.23937071  0.25955260  1
  O  O349  1  0.41255577  0.22694984  0.58790390  1
  O  O350  1  0.41212441  0.22732310  0.91677598  1
  O  O351  1  0.41890122  0.72937001  0.25236831  1
  O  O352  1  0.42247291  0.74510691  0.57778702  1
  O  O353  1  0.40728999  0.73727725  0.92956872  1
  O  O354  1  0.74490458  0.24188709  0.25812683  1
  O  O355  1  0.75727093  0.23161540  0.57450464  1
  O  O356  1  0.75484866  0.23872158  0.90973265  1
  O  O357  1  0.74958743  0.72447496  0.25107998  1
  O  O358  1  0.74997619  0.73028623  0.58527889  1
  O  O359  1  0.74642695  0.72677936  0.91730118  1
