# generated using pymatgen
data_Ba17Sr5La8Pr42Mn72O216
_symmetry_space_group_name_H-M   'P 1'
_cell_length_a   16.67884525
_cell_length_b   15.70227578
_cell_length_c   16.82507798
_cell_angle_alpha   89.99931059
_cell_angle_beta   89.99734711
_cell_angle_gamma   89.98776699
_symmetry_Int_Tables_number   1
_chemical_formula_structural   Ba17Sr5La8Pr42Mn72O216
_chemical_formula_sum   'Ba17 Sr5 La8 Pr42 Mn72 O216'
_cell_volume   4406.41761994
_cell_formula_units_Z   1
loop_
 _symmetry_equiv_pos_site_id
 _symmetry_equiv_pos_as_xyz
  1  'x, y, z'
loop_
 _atom_site_type_symbol
 _atom_site_label
 _atom_site_symmetry_multiplicity
 _atom_site_fract_x
 _atom_site_fract_y
 _atom_site_fract_z
 _atom_site_occupancy
  Ba  Ba0  1  0.16643658  0.62417430  0.50537738  1
  Ba  Ba1  1  0.49705121  0.87268175  0.16519951  1
  Ba  Ba2  1  0.49791767  0.37667149  0.16227742  1
  Ba  Ba3  1  0.66809697  0.62378949  0.33179651  1
  Ba  Ba4  1  0.33101420  0.87516771  0.33361862  1
  Ba  Ba5  1  0.00046962  0.37647113  0.00625193  1
  Ba  Ba6  1  0.00023864  0.87276213  0.00299162  1
  Ba  Ba7  1  0.83198649  0.87630012  0.50152181  1
  Ba  Ba8  1  0.33336891  0.12407831  0.99590352  1
  Ba  Ba9  1  0.33219698  0.12411770  0.33021028  1
  Ba  Ba10  1  0.66447744  0.87516180  0.66494439  1
  Ba  Ba11  1  0.49993043  0.37730496  0.82979623  1
  Ba  Ba12  1  0.16936893  0.12521658  0.50326796  1
  Ba  Ba13  1  0.00318004  0.12649908  0.66941988  1
  Ba  Ba14  1  0.66468917  0.37623246  0.33238114  1
  Ba  Ba15  1  0.00207097  0.87541631  0.66950122  1
  Ba  Ba16  1  0.66957170  0.12365314  0.99784817  1
  Sr  Sr17  1  0.16491433  0.37362482  0.16744638  1
  Sr  Sr18  1  0.50421538  0.62572977  0.83031700  1
  Sr  Sr19  1  0.16970500  0.12451623  0.83492211  1
  Sr  Sr20  1  0.16363094  0.87660527  0.50025053  1
  Sr  Sr21  1  0.00056712  0.37536736  0.33370646  1
  La  La22  1  0.82996716  0.87311555  0.16848286  1
  La  La23  1  0.16714456  0.62595471  0.83726668  1
  La  La24  1  0.66317643  0.87374755  -0.00367820  1
  La  La25  1  0.83040476  0.37744952  0.16436341  1
  La  La26  1  0.32707362  0.37392031  0.33171208  1
  La  La27  1  -0.00160671  0.62253970  1.00299805  1
  La  La28  1  0.83480556  0.12685451  0.50059938  1
  La  La29  1  0.00577695  0.12748502  0.99887665  1
  Pr  Pr30  1  0.49320854  0.87593397  0.82866337  1
  Pr  Pr31  1  0.33699647  0.62463978  0.99705601  1
  Pr  Pr32  1  0.49681739  0.87382180  0.49203909  1
  Pr  Pr33  1  0.33012197  0.87407699  0.00065512  1
  Pr  Pr34  1  0.66742721  0.37673849  0.66704571  1
  Pr  Pr35  1  0.66295022  0.62559320  0.66256935  1
  Pr  Pr36  1  0.49573351  0.37642152  0.49182820  1
  Pr  Pr37  1  0.32814081  0.87305974  0.66325681  1
  Pr  Pr38  1  0.16630994  0.87904652  0.83132357  1
  Pr  Pr39  1  -0.00018479  0.87445814  0.34485378  1
  Pr  Pr40  1  0.65911373  0.87452931  0.33944713  1
  Pr  Pr41  1  0.67008908  0.12548851  0.66733318  1
  Pr  Pr42  1  0.50667375  0.12373032  0.83487879  1
  Pr  Pr43  1  0.66364597  0.62504164  0.99830114  1
  Pr  Pr44  1  0.33993891  0.62226285  0.66200242  1
  Pr  Pr45  1  0.66178764  0.37568367  0.00363443  1
  Pr  Pr46  1  0.32898604  0.37560976  0.00274624  1
  Pr  Pr47  1  0.67269971  0.12315226  0.32465006  1
  Pr  Pr48  1  0.33935752  0.12815467  0.66119586  1
  Pr  Pr49  1  0.16063599  0.37173749  0.49873221  1
  Pr  Pr50  1  0.83767018  0.62443224  0.17035153  1
  Pr  Pr51  1  0.17039286  0.37148655  0.83819680  1
  Pr  Pr52  1  0.50266449  0.62548912  0.16622374  1
  Pr  Pr53  1  -0.00283156  0.62580509  0.33833343  1
  Pr  Pr54  1  0.00880762  0.37479394  0.67367397  1
  Pr  Pr55  1  0.00422578  0.12469484  0.33733837  1
  Pr  Pr56  1  0.16865771  0.87691400  0.16884560  1
  Pr  Pr57  1  0.50103500  0.62760576  0.49677193  1
  Pr  Pr58  1  0.83349565  0.37139432  0.83314501  1
  Pr  Pr59  1  0.50405610  0.12356697  0.49637939  1
  Pr  Pr60  1  0.84162185  0.12534243  0.16695150  1
  Pr  Pr61  1  0.83642314  0.37265985  0.49602473  1
  Pr  Pr62  1  0.50818104  0.12479498  0.16666904  1
  Pr  Pr63  1  0.33155019  0.62631394  0.32828275  1
  Pr  Pr64  1  -0.00794861  0.62411506  0.66533696  1
  Pr  Pr65  1  0.16213443  0.62378050  0.17366055  1
  Pr  Pr66  1  0.82896478  0.62239274  0.50332146  1
  Pr  Pr67  1  0.32683412  0.37706392  0.66629166  1
  Pr  Pr68  1  0.83213306  0.62990141  0.83554553  1
  Pr  Pr69  1  0.16480222  0.12692926  0.17071363  1
  Pr  Pr70  1  0.84147074  0.12122810  0.83766842  1
  Pr  Pr71  1  0.83127111  0.87849263  0.82590973  1
  Mn  Mn72  1  -0.00028709  -0.00120691  0.17066631  1
  Mn  Mn73  1  0.00014611  0.00078940  0.50235464  1
  Mn  Mn74  1  0.00222090  0.00053828  0.83794442  1
  Mn  Mn75  1  -0.00056204  0.50070694  0.17075510  1
  Mn  Mn76  1  -0.00277779  0.49878495  0.50388483  1
  Mn  Mn77  1  0.00014224  0.49953253  0.83490464  1
  Mn  Mn78  1  0.33213014  -0.00011813  0.16299725  1
  Mn  Mn79  1  0.33477041  0.00109191  0.50025761  1
  Mn  Mn80  1  0.33431775  -0.00105730  0.82946497  1
  Mn  Mn81  1  0.33012232  0.50209047  0.16432914  1
  Mn  Mn82  1  0.33352760  0.49930017  0.49804730  1
  Mn  Mn83  1  0.33373383  0.50153287  0.83231120  1
  Mn  Mn84  1  0.66880185  -0.00293120  0.16502934  1
  Mn  Mn85  1  0.66576603  0.00322943  0.49759236  1
  Mn  Mn86  1  0.66715783  -0.00065497  0.83164568  1
  Mn  Mn87  1  0.66736577  0.50125876  0.16320502  1
  Mn  Mn88  1  0.66529688  0.49956237  0.50180526  1
  Mn  Mn89  1  0.66907990  0.50107371  0.83256624  1
  Mn  Mn90  1  -0.00133368  0.24980879  0.16931223  1
  Mn  Mn91  1  -0.00108871  0.25195869  0.50237666  1
  Mn  Mn92  1  0.00162049  0.25214027  0.83683048  1
  Mn  Mn93  1  -0.00014174  0.75050902  0.17222614  1
  Mn  Mn94  1  -0.00127251  0.74784767  0.50310691  1
  Mn  Mn95  1  0.00086807  0.74689151  0.83651293  1
  Mn  Mn96  1  0.33246417  0.24981477  0.16384682  1
  Mn  Mn97  1  0.33590568  0.25172037  0.49946717  1
  Mn  Mn98  1  0.33512064  0.25058971  0.83053636  1
  Mn  Mn99  1  0.32958812  0.74864288  0.16295255  1
  Mn  Mn100  1  0.33274217  0.74847950  0.49926494  1
  Mn  Mn101  1  0.33400455  0.74799357  0.83191906  1
  Mn  Mn102  1  0.66819352  0.24941927  0.16376564  1
  Mn  Mn103  1  0.66504531  0.24898782  0.49967495  1
  Mn  Mn104  1  0.66862775  0.25201259  0.83180357  1
  Mn  Mn105  1  0.66773724  0.75098241  0.16493631  1
  Mn  Mn106  1  0.66636887  0.74980009  0.49907440  1
  Mn  Mn107  1  0.66646230  0.74816470  0.83238892  1
  Mn  Mn108  1  0.16770698  0.25025974  0.00251942  1
  Mn  Mn109  1  0.16483126  0.25232033  0.33384948  1
  Mn  Mn110  1  0.17055975  0.25092375  0.66912714  1
  Mn  Mn111  1  0.16692993  0.74791045  0.00314878  1
  Mn  Mn112  1  0.16461850  0.74779133  0.33652953  1
  Mn  Mn113  1  0.16810536  0.74844770  0.67159162  1
  Mn  Mn114  1  0.49933309  0.24978806  -0.00342936  1
  Mn  Mn115  1  0.49950665  0.25025472  0.33048219  1
  Mn  Mn116  1  0.50210335  0.25036676  0.66243021  1
  Mn  Mn117  1  0.49896783  0.74855571  -0.00442761  1
  Mn  Mn118  1  0.49822166  0.74729014  0.33093328  1
  Mn  Mn119  1  0.49870308  0.75057620  0.66439326  1
  Mn  Mn120  1  0.83313579  0.25020478  -0.00031874  1
  Mn  Mn121  1  0.83461509  0.25065786  0.33334198  1
  Mn  Mn122  1  0.83245324  0.25239908  0.66617101  1
  Mn  Mn123  1  0.83160142  0.75016900  0.00127822  1
  Mn  Mn124  1  0.83396023  0.74957937  0.33362673  1
  Mn  Mn125  1  0.83261653  0.74883856  0.66962317  1
  Mn  Mn126  1  0.16689085  -0.00219503  0.00090165  1
  Mn  Mn127  1  0.16446794  0.00009318  0.33406745  1
  Mn  Mn128  1  0.17010135  -0.00051790  0.66841711  1
  Mn  Mn129  1  0.16766268  0.50357791  0.00425814  1
  Mn  Mn130  1  0.16497763  0.49910701  0.33705594  1
  Mn  Mn131  1  0.16795902  0.50052341  0.67164676  1
  Mn  Mn132  1  0.49954113  -0.00162969  -0.00257898  1
  Mn  Mn133  1  0.50097804  0.00177950  0.33200098  1
  Mn  Mn134  1  0.49890857  0.00068872  0.66490498  1
  Mn  Mn135  1  0.49923992  0.50217252  -0.00408858  1
  Mn  Mn136  1  0.49622595  0.50042685  0.32992666  1
  Mn  Mn137  1  0.50113495  0.50031546  0.66150220  1
  Mn  Mn138  1  0.83468136  -0.00344815  0.00084713  1
  Mn  Mn139  1  0.83436166  0.00104288  0.33173819  1
  Mn  Mn140  1  0.83321358  0.00308609  0.66741353  1
  Mn  Mn141  1  0.83097244  0.50282240  -0.00072170  1
  Mn  Mn142  1  0.83517903  0.49835399  0.33487773  1
  Mn  Mn143  1  0.83204990  0.49701016  0.66814071  1
  O  O144  1  0.16400292  0.12198706  0.02425556  1
  O  O145  1  0.16209903  0.12832146  0.34494473  1
  O  O146  1  0.18055640  0.12855138  0.68345571  1
  O  O147  1  0.17549552  0.62671891  0.02945399  1
  O  O148  1  0.17226378  0.62198986  0.34929388  1
  O  O149  1  0.17652295  0.62217952  0.69300961  1
  O  O150  1  0.50053206  0.12101846  0.01895410  1
  O  O151  1  0.50789490  0.12538773  0.35091264  1
  O  O152  1  0.49317300  0.12512817  0.69346294  1
  O  O153  1  0.50191466  0.62608707  0.02069112  1
  O  O154  1  0.49143281  0.62245825  0.35219637  1
  O  O155  1  0.49727870  0.62532151  0.68336988  1
  O  O156  1  0.83736237  0.11989701  0.02298055  1
  O  O157  1  0.82420843  0.12772398  0.35584876  1
  O  O158  1  0.82574068  0.13181529  0.69294314  1
  O  O159  1  0.82800188  0.62762929  0.02762759  1
  O  O160  1  0.83792379  0.62168799  0.35911041  1
  O  O161  1  0.83316037  0.61948062  0.69176942  1
  O  O162  1  0.16545896  0.37750285  0.31711106  1
  O  O163  1  0.16814659  0.37874475  0.64413601  1
  O  O164  1  0.17034375  0.38059472  0.98092744  1
  O  O165  1  0.15266834  0.87247228  0.31350756  1
  O  O166  1  0.17160584  0.87078539  0.65197249  1
  O  O167  1  0.16888509  0.86957727  0.97452656  1
  O  O168  1  0.49350639  0.37719045  0.31886157  1
  O  O169  1  0.51118339  0.37612958  0.63579093  1
  O  O170  1  0.50158795  0.37962582  0.98704461  1
  O  O171  1  0.50704974  0.87504801  0.32421412  1
  O  O172  1  0.49454261  0.87505751  0.63645432  1
  O  O173  1  0.49637949  0.87089799  0.97382880  1
  O  O174  1  0.83727928  0.37346208  0.30940248  1
  O  O175  1  0.82544782  0.37531795  0.63802982  1
  O  O176  1  0.82868277  0.38129691  0.97610762  1
  O  O177  1  0.84472895  0.87709333  0.31145358  1
  O  O178  1  0.83425251  0.87541512  0.66248953  1
  O  O179  1  0.83116203  0.87114807  0.97164640  1
  O  O180  1  -0.00621468  0.37669974  0.18440083  1
  O  O181  1  -0.00588233  0.37691070  0.52887509  1
  O  O182  1  -0.00277890  0.37655496  0.85059654  1
  O  O183  1  0.00035620  0.87436261  0.19879047  1
  O  O184  1  0.00080432  0.87328931  0.50833734  1
  O  O185  1  0.00233119  0.87417530  0.84587028  1
  O  O186  1  0.33420874  0.37922581  0.18733052  1
  O  O187  1  0.34543713  0.37658101  0.52361388  1
  O  O188  1  0.33180896  0.37990877  0.85846081  1
  O  O189  1  0.32975441  0.87240056  0.17727136  1
  O  O190  1  0.34400152  0.87392548  0.51876443  1
  O  O191  1  0.34226404  0.87012929  0.85773243  1
  O  O192  1  0.67173602  0.37557385  0.17406421  1
  O  O193  1  0.66214308  0.37365860  0.52461889  1
  O  O194  1  0.67504456  0.37823253  0.85978726  1
  O  O195  1  0.67273967  0.87370364  0.19440520  1
  O  O196  1  0.65846390  0.87458133  0.50824751  1
  O  O197  1  0.67501602  0.87169445  0.85175849  1
  O  O198  1  -0.00346706  0.12125391  0.14271891  1
  O  O199  1  -0.00449206  0.12888773  0.48348541  1
  O  O200  1  -0.00428800  0.12885547  0.82626488  1
  O  O201  1  -0.00319139  0.62732946  0.14685937  1
  O  O202  1  -0.00730608  0.62082272  0.48298540  1
  O  O203  1  -0.00010594  0.61963305  0.80869652  1
  O  O204  1  0.31800661  0.12351910  0.15334811  1
  O  O205  1  0.33686136  0.12864533  0.48914288  1
  O  O206  1  0.33456873  0.12357994  0.80532558  1
  O  O207  1  0.31728885  0.62578074  0.14089191  1
  O  O208  1  0.33589443  0.62164508  0.47413148  1
  O  O209  1  0.32591973  0.62513445  0.80399976  1
  O  O210  1  0.66617037  0.12232436  0.15480292  1
  O  O211  1  0.66550390  0.12816599  0.46924504  1
  O  O212  1  0.66020815  0.12644347  0.81192594  1
  O  O213  1  0.67144543  0.62764180  0.14300546  1
  O  O214  1  0.67342097  0.62490688  0.48798475  1
  O  O215  1  0.67308496  0.62389796  0.80533985  1
  O  O216  1  0.08053504  0.02437293  0.25086143  1
  O  O217  1  0.08905989  0.00646757  0.58620228  1
  O  O218  1  0.08376429  0.01647316  0.92264576  1
  O  O219  1  0.08039138  0.52181753  0.25569299  1
  O  O220  1  0.07308536  0.51314926  0.59897020  1
  O  O221  1  0.08543690  0.52478431  0.92403189  1
  O  O222  1  0.42598666  0.01700810  0.23905237  1
  O  O223  1  0.42385163  0.02412486  0.58010972  1
  O  O224  1  0.42710591  0.01341750  0.89914234  1
  O  O225  1  0.41344584  0.52890215  0.24085559  1
  O  O226  1  0.42278527  0.52151403  0.57180014  1
  O  O227  1  0.41634744  0.52278590  0.91228983  1
  O  O228  1  0.76060608  0.01742909  0.24050982  1
  O  O229  1  0.74901633  0.02425480  0.57591958  1
  O  O230  1  0.76170483  0.01188872  0.90577339  1
  O  O231  1  0.75814025  0.51194027  0.24128688  1
  O  O232  1  0.74445457  0.51813538  0.59301448  1
  O  O233  1  0.75071437  0.52830408  0.91626601  1
  O  O234  1  0.24811368  0.24462498  0.24821738  1
  O  O235  1  0.26318426  0.24500754  0.59302381  1
  O  O236  1  0.24947170  0.24542370  0.91567295  1
  O  O237  1  0.24563615  0.73343191  0.24880667  1
  O  O238  1  0.25939197  0.73616144  0.59320792  1
  O  O239  1  0.25297010  0.72797111  0.91684345  1
  O  O240  1  0.58868575  0.23105128  0.25102520  1
  O  O241  1  0.58652772  0.21999252  0.58461951  1
  O  O242  1  0.58498925  0.23891104  0.91145294  1
  O  O243  1  0.57987116  0.73307779  0.24250909  1
  O  O244  1  0.58221896  0.72915950  0.58326763  1
  O  O245  1  0.58828823  0.73216818  0.91674922  1
  O  O246  1  0.91963362  0.22367205  0.25515090  1
  O  O247  1  0.90829183  0.23720568  0.57902677  1
  O  O248  1  0.91789049  0.23352095  0.92164006  1
  O  O249  1  0.91869559  0.72509110  0.25456906  1
  O  O250  1  0.91210825  0.72647563  0.58522576  1
  O  O251  1  0.91601208  0.72492552  0.92108087  1
  O  O252  1  0.08471681  0.49761312  0.09066219  1
  O  O253  1  0.08286314  0.48126384  0.42812077  1
  O  O254  1  0.08903819  0.47745920  0.75716611  1
  O  O255  1  0.08726518  0.98261399  0.09468482  1
  O  O256  1  0.07664121  0.98960255  0.41077980  1
  O  O257  1  0.09068420  0.99176426  0.75869515  1
  O  O258  1  0.40729144  0.49469124  0.07403531  1
  O  O259  1  0.40685094  0.48074080  0.40939982  1
  O  O260  1  0.41119641  0.48595435  0.73379130  1
  O  O261  1  0.41023055  0.98362654  0.06975295  1
  O  O262  1  0.42090539  0.99067419  0.41845908  1
  O  O263  1  0.41109924  0.97477453  0.74067869  1
  O  O264  1  0.74649509  0.48117657  0.07618144  1
  O  O265  1  0.75524439  0.48425452  0.42721161  1
  O  O266  1  0.75624116  0.47377933  0.75418546  1
  O  O267  1  0.74683611  0.97384281  0.07631052  1
  O  O268  1  0.74089936  0.98547358  0.39928975  1
  O  O269  1  0.74635484  0.99283227  0.74744947  1
  O  O270  1  0.24943526  0.27084689  0.08276091  1
  O  O271  1  0.24748076  0.27364108  0.42369941  1
  O  O272  1  0.24946861  0.27648660  0.75334723  1
  O  O273  1  0.24761533  0.77527037  0.08238834  1
  O  O274  1  0.24774376  0.76157229  0.42033648  1
  O  O275  1  0.25050976  0.77495514  0.75580793  1
  O  O276  1  0.58383808  0.25876069  0.08122994  1
  O  O277  1  0.57413249  0.26547380  0.42621593  1
  O  O278  1  0.58952034  0.26465861  0.74224589  1
  O  O279  1  0.58644061  0.76220437  0.07523976  1
  O  O280  1  0.58117551  0.76025757  0.41861341  1
  O  O281  1  0.57688756  0.76431351  0.75367330  1
  O  O282  1  0.90767293  0.26169755  0.09493005  1
  O  O283  1  0.91503673  0.26643503  0.41837820  1
  O  O284  1  0.91527502  0.27290941  0.74822360  1
  O  O285  1  0.91028484  0.76329204  0.09397438  1
  O  O286  1  0.91802924  0.76008075  0.41276685  1
  O  O287  1  0.91419307  0.75582981  0.75581949  1
  O  O288  1  0.24971447  0.47758110  0.08368782  1
  O  O289  1  0.24722530  0.47388320  0.42331069  1
  O  O290  1  0.24788642  0.47456213  0.75542300  1
  O  O291  1  0.24783178  0.97504343  0.07966379  1
  O  O292  1  0.24488230  0.98835062  0.42001192  1
  O  O293  1  0.25097748  0.97359761  0.75233886  1
  O  O294  1  0.58757795  0.49407732  0.07493953  1
  O  O295  1  0.57557865  0.49021611  0.42463876  1
  O  O296  1  0.59284793  0.48778154  0.74020795  1
  O  O297  1  0.58428931  0.98321305  0.08244045  1
  O  O298  1  0.57849808  0.98541332  0.42155333  1
  O  O299  1  0.57196453  0.98451053  0.75591267  1
  O  O300  1  0.90787643  0.49202747  0.09119372  1
  O  O301  1  0.91652256  0.47902269  0.42045307  1
  O  O302  1  0.91859376  0.47642295  0.74234910  1
  O  O303  1  0.90890517  0.98128392  0.09709289  1
  O  O304  1  0.91487172  0.99464226  0.41382284  1
  O  O305  1  0.91096814  0.99345307  0.76449098  1
  O  O306  1  0.08372923  0.25503565  0.08904100  1
  O  O307  1  0.08154060  0.26865425  0.42084918  1
  O  O308  1  0.08670160  0.27056255  0.75375784  1
  O  O309  1  0.08789263  0.76269787  0.09734587  1
  O  O310  1  0.07948146  0.75855390  0.41605703  1
  O  O311  1  0.09361002  0.75772728  0.76383887  1
  O  O312  1  0.40798569  0.26419104  0.07182391  1
  O  O313  1  0.41000998  0.26927020  0.40964541  1
  O  O314  1  0.41018024  0.26904438  0.73207364  1
  O  O315  1  0.40805480  0.75626681  0.07258143  1
  O  O316  1  0.41946761  0.75982601  0.41964666  1
  O  O317  1  0.41340472  0.77054044  0.74399597  1
  O  O318  1  0.74708095  0.26992381  0.07560307  1
  O  O319  1  0.75319622  0.26808162  0.42219957  1
  O  O320  1  0.74920965  0.27626442  0.74660098  1
  O  O321  1  0.74697085  0.77550929  0.07960952  1
  O  O322  1  0.74557437  0.76715251  0.40748094  1
  O  O323  1  0.75512637  0.76150765  0.75745042  1
  O  O324  1  0.23988710  0.00537387  0.24377456  1
  O  O325  1  0.26271932  0.00800088  0.59451449  1
  O  O326  1  0.25168514  0.00321063  0.91161770  1
  O  O327  1  0.25281816  0.51840864  0.25179094  1
  O  O328  1  0.26047198  0.51175020  0.59241430  1
  O  O329  1  0.25024707  0.52248487  0.92072327  1
  O  O330  1  0.59136871  0.01576615  0.25539549  1
  O  O331  1  0.58492663  0.02669336  0.58881891  1
  O  O332  1  0.58675590  0.00527785  0.91526848  1
  O  O333  1  0.57995370  0.51706409  0.24059213  1
  O  O334  1  0.58341705  0.52605985  0.58210844  1
  O  O335  1  0.58800829  0.51939871  0.91443483  1
  O  O336  1  0.92049908  0.02774640  0.25569622  1
  O  O337  1  0.91186995  0.01706390  0.58417941  1
  O  O338  1  0.92203651  0.01833974  0.92597342  1
  O  O339  1  0.91963099  0.52351901  0.25414466  1
  O  O340  1  0.90815200  0.52147199  0.58188688  1
  O  O341  1  0.91370300  0.52502374  0.91828557  1
  O  O342  1  0.07997167  0.23055917  0.25028043  1
  O  O343  1  0.08568883  0.24930426  0.58678972  1
  O  O344  1  0.08604607  0.23687284  0.92196006  1
  O  O345  1  0.08010861  0.72355752  0.25578675  1
  O  O346  1  0.07772350  0.73018145  0.59745898  1
  O  O347  1  0.08183155  0.72254346  0.92603558  1
  O  O348  1  0.42405044  0.23058897  0.23527369  1
  O  O349  1  0.42803601  0.23200659  0.57247667  1
  O  O350  1  0.42377197  0.23268596  0.90146968  1
  O  O351  1  0.41268111  0.72596657  0.24334841  1
  O  O352  1  0.41843481  0.72598527  0.57931425  1
  O  O353  1  0.41703284  0.72603881  0.91076621  1
  O  O354  1  0.75544784  0.23187195  0.24462122  1
  O  O355  1  0.74695240  0.22840993  0.58458304  1
  O  O356  1  0.75990375  0.23515448  0.90319367  1
  O  O357  1  0.76029515  0.73608182  0.24232624  1
  O  O358  1  0.74946317  0.73096236  0.58526530  1
  O  O359  1  0.74865877  0.72658237  0.91805648  1
