# generated using pymatgen
data_Ba17Sr5La8Pr42Mn72O216
_symmetry_space_group_name_H-M   'P 1'
_cell_length_a   16.67829184
_cell_length_b   15.70749490
_cell_length_c   16.82652236
_cell_angle_alpha   89.98403891
_cell_angle_beta   90.03870441
_cell_angle_gamma   89.98114147
_symmetry_Int_Tables_number   1
_chemical_formula_structural   Ba17Sr5La8Pr42Mn72O216
_chemical_formula_sum   'Ba17 Sr5 La8 Pr42 Mn72 O216'
_cell_volume   4408.11304806
_cell_formula_units_Z   1
loop_
 _symmetry_equiv_pos_site_id
 _symmetry_equiv_pos_as_xyz
  1  'x, y, z'
loop_
 _atom_site_type_symbol
 _atom_site_label
 _atom_site_symmetry_multiplicity
 _atom_site_fract_x
 _atom_site_fract_y
 _atom_site_fract_z
 _atom_site_occupancy
  Ba  Ba0  1  0.33524458  0.37733133  0.00210325  1
  Ba  Ba1  1  0.16677557  0.12687294  0.16843955  1
  Ba  Ba2  1  0.83393418  0.87632959  0.49856689  1
  Ba  Ba3  1  0.66716164  0.87613060  0.66533747  1
  Ba  Ba4  1  0.66717243  0.12541085  0.99904298  1
  Ba  Ba5  1  0.00131031  0.62284129  0.33322042  1
  Ba  Ba6  1  0.33222974  0.62420381  0.66611990  1
  Ba  Ba7  1  0.66539389  0.12535016  0.66491610  1
  Ba  Ba8  1  0.00074087  0.12510733  1.00062389  1
  Ba  Ba9  1  0.66648645  0.37361040  0.66541233  1
  Ba  Ba10  1  0.83223377  0.87267759  0.16583597  1
  Ba  Ba11  1  0.83476091  0.62271920  0.49818414  1
  Ba  Ba12  1  0.33439723  0.87652300  0.33543568  1
  Ba  Ba13  1  0.66641438  0.62299113  0.33085165  1
  Ba  Ba14  1  0.83443786  0.12762226  0.49740203  1
  Ba  Ba15  1  -0.00239278  0.87374316  0.00135654  1
  Ba  Ba16  1  0.00037313  0.87358358  0.33376047  1
  Sr  Sr17  1  0.50200569  0.37648148  0.16267345  1
  Sr  Sr18  1  -0.00520837  0.37536187  0.66734924  1
  Sr  Sr19  1  0.83673318  0.62677246  0.17180012  1
  Sr  Sr20  1  -0.00018681  0.62773783  1.00211012  1
  Sr  Sr21  1  0.83112146  0.37271761  0.49995247  1
  La  La22  1  0.15849318  0.37623848  0.83239030  1
  La  La23  1  0.33861631  0.12589129  0.99849769  1
  La  La24  1  0.16893851  0.12250023  0.50207108  1
  La  La25  1  0.83429006  0.37198066  0.82898514  1
  La  La26  1  0.49985655  0.87336312  0.16558533  1
  La  La27  1  0.50583614  0.62605668  0.83222160  1
  La  La28  1  0.32896699  0.37490258  0.67255286  1
  La  La29  1  0.16827539  0.62586166  0.16716287  1
  Pr  Pr30  1  0.16533562  0.37895553  0.50191857  1
  Pr  Pr31  1  0.83673212  0.12427934  0.16917298  1
  Pr  Pr32  1  0.33465559  0.12547845  0.66891509  1
  Pr  Pr33  1  0.66641353  0.62436065  0.65819624  1
  Pr  Pr34  1  0.49954488  0.62089926  0.16915711  1
  Pr  Pr35  1  0.66713822  0.37672942  0.33813338  1
  Pr  Pr36  1  0.50086448  0.62762056  0.50242854  1
  Pr  Pr37  1  0.32826134  0.87458626  0.66959086  1
  Pr  Pr38  1  0.66719511  0.12509104  0.32840642  1
  Pr  Pr39  1  0.82862976  0.12675140  0.83395663  1
  Pr  Pr40  1  0.33004428  0.87254881  0.00702830  1
  Pr  Pr41  1  0.33819156  0.62361081  0.99643260  1
  Pr  Pr42  1  0.16670780  0.87151914  0.49771005  1
  Pr  Pr43  1  -0.00004273  0.37769113  0.00291997  1
  Pr  Pr44  1  0.83443881  0.87932089  0.83111181  1
  Pr  Pr45  1  0.50008770  0.12915446  0.16668387  1
  Pr  Pr46  1  0.16694635  0.62787238  0.50306404  1
  Pr  Pr47  1  0.00212537  0.37440555  0.33512479  1
  Pr  Pr48  1  0.33422237  0.62535499  0.33395975  1
  Pr  Pr49  1  0.49800208  0.37429665  0.49766784  1
  Pr  Pr50  1  0.16880501  0.12610723  0.84366056  1
  Pr  Pr51  1  0.66704414  0.37394601  -0.00044175  1
  Pr  Pr52  1  0.15637517  0.87379267  0.83393140  1
  Pr  Pr53  1  -0.00724055  0.87457794  0.66721114  1
  Pr  Pr54  1  0.00062478  0.12696600  0.66547987  1
  Pr  Pr55  1  0.49784215  0.37128522  0.82891108  1
  Pr  Pr56  1  0.67000556  0.87211160  0.33752500  1
  Pr  Pr57  1  0.00213701  0.62264727  0.66055574  1
  Pr  Pr58  1  0.67047200  0.62444346  1.00206383  1
  Pr  Pr59  1  0.33138551  0.37020851  0.33373161  1
  Pr  Pr60  1  0.49603321  0.87886685  0.82986757  1
  Pr  Pr61  1  0.49861954  0.12301481  0.49925519  1
  Pr  Pr62  1  -0.00577886  0.12414462  0.32903511  1
  Pr  Pr63  1  0.16909575  0.62507002  0.83710915  1
  Pr  Pr64  1  0.50844299  0.12482031  0.83516323  1
  Pr  Pr65  1  0.16101884  0.87262917  0.16597702  1
  Pr  Pr66  1  0.83134925  0.62241874  0.83271656  1
  Pr  Pr67  1  0.16518534  0.37794787  0.16361944  1
  Pr  Pr68  1  0.50287414  0.87553835  0.49620437  1
  Pr  Pr69  1  0.33513467  0.12408470  0.33044192  1
  Pr  Pr70  1  0.66857749  0.87533564  0.00086357  1
  Pr  Pr71  1  0.83088086  0.37976483  0.16744500  1
  Mn  Mn72  1  0.00014283  0.00083766  0.16687605  1
  Mn  Mn73  1  0.00375441  0.00284084  0.50045359  1
  Mn  Mn74  1  0.00040076  0.00032990  0.83105026  1
  Mn  Mn75  1  0.00155919  0.49890713  0.16690847  1
  Mn  Mn76  1  0.00080780  0.49633064  0.50090772  1
  Mn  Mn77  1  -0.00051473  0.50315739  0.83389707  1
  Mn  Mn78  1  0.33398173  -0.00074007  0.16681175  1
  Mn  Mn79  1  0.33340663  0.00150638  0.50288627  1
  Mn  Mn80  1  0.33196346  -0.00221012  0.83541067  1
  Mn  Mn81  1  0.33409769  0.50107058  0.16805841  1
  Mn  Mn82  1  0.33349680  0.49704977  0.49934393  1
  Mn  Mn83  1  0.33435303  0.50095415  0.83387131  1
  Mn  Mn84  1  0.66450523  0.00097171  0.16581207  1
  Mn  Mn85  1  0.66458422  0.00143444  0.49645821  1
  Mn  Mn86  1  0.66704584  -0.00205660  0.83412562  1
  Mn  Mn87  1  0.66646440  0.49785291  0.16501862  1
  Mn  Mn88  1  0.66489965  0.49849105  0.49977869  1
  Mn  Mn89  1  0.66564236  0.50175933  0.83246729  1
  Mn  Mn90  1  -0.00044309  0.25381734  0.16758367  1
  Mn  Mn91  1  0.00320452  0.25158983  0.49979132  1
  Mn  Mn92  1  0.00020667  0.25029543  0.83255984  1
  Mn  Mn93  1  0.00000519  0.74770723  0.16621191  1
  Mn  Mn94  1  0.00144301  0.74847855  0.50173834  1
  Mn  Mn95  1  -0.00156950  0.74761560  0.83167554  1
  Mn  Mn96  1  0.33413185  0.25044572  0.16750743  1
  Mn  Mn97  1  0.33231098  0.24932719  0.50240863  1
  Mn  Mn98  1  0.33253506  0.24931718  0.83347484  1
  Mn  Mn99  1  0.33390554  0.74907834  0.16714243  1
  Mn  Mn100  1  0.33450684  0.75006899  0.50122785  1
  Mn  Mn101  1  0.33349652  0.75124760  0.83589744  1
  Mn  Mn102  1  0.66664415  0.25145796  0.16593215  1
  Mn  Mn103  1  0.66382503  0.25033258  0.49704681  1
  Mn  Mn104  1  0.66603006  0.25180355  0.83377485  1
  Mn  Mn105  1  0.66393654  0.75082649  0.16550358  1
  Mn  Mn106  1  0.66601238  0.74950123  0.49884519  1
  Mn  Mn107  1  0.66757284  0.74878204  0.83342188  1
  Mn  Mn108  1  0.16857717  0.25175585  0.00088443  1
  Mn  Mn109  1  0.16701281  0.25094292  0.33690488  1
  Mn  Mn110  1  0.16595928  0.24787958  0.66993451  1
  Mn  Mn111  1  0.16798943  0.74839520  0.00081953  1
  Mn  Mn112  1  0.16927702  0.74863416  0.33441206  1
  Mn  Mn113  1  0.16503367  0.75211601  0.66835924  1
  Mn  Mn114  1  0.50125968  0.25140701  -0.00090051  1
  Mn  Mn115  1  0.49858439  0.25192587  0.33144388  1
  Mn  Mn116  1  0.49608852  0.24857615  0.66404170  1
  Mn  Mn117  1  0.50135562  0.74962275  -0.00093945  1
  Mn  Mn118  1  0.49925220  0.74876217  0.33218165  1
  Mn  Mn119  1  0.49832514  0.75249189  0.66714386  1
  Mn  Mn120  1  0.83477823  0.25368731  -0.00031282  1
  Mn  Mn121  1  0.83163991  0.25227563  0.33047891  1
  Mn  Mn122  1  0.83493575  0.25059202  0.66540527  1
  Mn  Mn123  1  0.83216920  0.74455756  -0.00143686  1
  Mn  Mn124  1  0.83319643  0.74847814  0.33202321  1
  Mn  Mn125  1  0.83341016  0.74933633  0.66904539  1
  Mn  Mn126  1  0.16949190  -0.00096633  0.00162800  1
  Mn  Mn127  1  0.16745385  0.00115426  0.33603921  1
  Mn  Mn128  1  0.16604261  0.00068554  0.67017865  1
  Mn  Mn129  1  0.16672982  0.50177973  0.00008458  1
  Mn  Mn130  1  0.17027548  0.49825360  0.33332583  1
  Mn  Mn131  1  0.16510191  0.49861852  0.66811570  1
  Mn  Mn132  1  0.49863338  -0.00281378  -0.00184024  1
  Mn  Mn133  1  0.50134135  0.00123798  0.33162661  1
  Mn  Mn134  1  0.49596110  -0.00004033  0.66552083  1
  Mn  Mn135  1  0.50355230  0.50234370  -0.00082645  1
  Mn  Mn136  1  0.49650098  0.49686746  0.33236237  1
  Mn  Mn137  1  0.49840976  0.49934094  0.66580275  1
  Mn  Mn138  1  0.83269933  0.00162035  -0.00072265  1
  Mn  Mn139  1  0.83283637  0.00129860  0.33191012  1
  Mn  Mn140  1  0.83454708  0.00144661  0.66608549  1
  Mn  Mn141  1  0.83433343  0.50096122  -0.00097481  1
  Mn  Mn142  1  0.83313659  0.49791520  0.33190277  1
  Mn  Mn143  1  0.83372096  0.49896325  0.66812621  1
  O  O144  1  0.17476584  0.12420927  0.00903415  1
  O  O145  1  0.17220833  0.12783194  0.35900479  1
  O  O146  1  0.16747474  0.12315467  0.70080693  1
  O  O147  1  0.17364988  0.62419560  0.02159919  1
  O  O148  1  0.17620421  0.61845639  0.36034048  1
  O  O149  1  0.15987434  0.62879156  0.69342402  1
  O  O150  1  0.49696946  0.11921648  0.02103615  1
  O  O151  1  0.50010762  0.12788955  0.35656016  1
  O  O152  1  0.49177414  0.12304187  0.69225219  1
  O  O153  1  0.50574073  0.62751982  0.02692305  1
  O  O154  1  0.49247377  0.61864110  0.35934488  1
  O  O155  1  0.50733414  0.62889876  0.68731409  1
  O  O156  1  0.83235568  0.13436830  0.02427337  1
  O  O157  1  0.84354968  0.12947590  0.33764983  1
  O  O158  1  0.84264081  0.12528906  0.68802186  1
  O  O159  1  0.82352473  0.62051213  0.02325640  1
  O  O160  1  0.83572946  0.62012790  0.33709193  1
  O  O161  1  0.83466429  0.62484130  0.68835156  1
  O  O162  1  0.17066631  0.37464610  0.30682837  1
  O  O163  1  0.17261081  0.36912656  0.64452861  1
  O  O164  1  0.16127153  0.37942171  0.97844328  1
  O  O165  1  0.16842956  0.87807495  0.31178025  1
  O  O166  1  0.17112787  0.87861543  0.63990603  1
  O  O167  1  0.17363555  0.87273451  0.97938380  1
  O  O168  1  0.48844149  0.37345602  0.30894292  1
  O  O169  1  0.48874039  0.37012701  0.64401534  1
  O  O170  1  0.50605393  0.38175498  0.97196830  1
  O  O171  1  0.50333794  0.87893821  0.30889157  1
  O  O172  1  0.48874982  0.87706827  0.64168490  1
  O  O173  1  0.49240497  0.87205773  0.97228810  1
  O  O174  1  0.81775076  0.37299500  0.31314140  1
  O  O175  1  0.83607018  0.37420814  0.65432042  1
  O  O176  1  0.83930280  0.37915755  0.97121348  1
  O  O177  1  0.82194838  0.87808459  0.32580465  1
  O  O178  1  0.83987400  0.87598572  0.65678516  1
  O  O179  1  0.82503392  0.86727517  0.97538761  1
  O  O180  1  0.01480459  0.37510950  0.18859644  1
  O  O181  1  0.01068558  0.37405318  0.52071052  1
  O  O182  1  -0.00202066  0.38026711  0.85919023  1
  O  O183  1  0.01064344  0.87440445  0.17423342  1
  O  O184  1  0.01219591  0.87625649  0.52287219  1
  O  O185  1  -0.00339328  0.87337819  0.84694304  1
  O  O186  1  0.33309679  0.37848650  0.18997596  1
  O  O187  1  0.33831071  0.37132708  0.52961713  1
  O  O188  1  0.34351441  0.37497364  0.84558014  1
  O  O189  1  0.34154490  0.87316926  0.18069320  1
  O  O190  1  0.33603355  0.87998389  0.52576502  1
  O  O191  1  0.34257554  0.87503779  0.86369155  1
  O  O192  1  0.67015864  0.37186960  0.19269432  1
  O  O193  1  0.66214052  0.37511088  0.50782258  1
  O  O194  1  0.66349580  0.37854932  0.85431015  1
  O  O195  1  0.65777718  0.87979261  0.19249362  1
  O  O196  1  0.66092861  0.87518700  0.50556840  1
  O  O197  1  0.67215365  0.87072691  0.85666383  1
  O  O198  1  -0.01052589  0.13079583  0.16086517  1
  O  O199  1  0.01019639  0.12999987  0.47375250  1
  O  O200  1  0.01068483  0.12187397  0.80962835  1
  O  O201  1  0.00291277  0.62012805  0.15439473  1
  O  O202  1  0.00867528  0.61972662  0.49155737  1
  O  O203  1  0.00650872  0.62612765  0.80435585  1
  O  O204  1  0.33734608  0.12214676  0.14270351  1
  O  O205  1  0.32953167  0.12687210  0.47368859  1
  O  O206  1  0.32151150  0.12171154  0.81076971  1
  O  O207  1  0.33132080  0.62669885  0.14054684  1
  O  O208  1  0.33089608  0.61882776  0.47700358  1
  O  O209  1  0.32757314  0.62693040  0.82054691  1
  O  O210  1  0.65986741  0.12644656  0.15141098  1
  O  O211  1  0.65144626  0.12705849  0.47540292  1
  O  O212  1  0.66326320  0.12575743  0.82391944  1
  O  O213  1  0.65611600  0.62311048  0.14489440  1
  O  O214  1  0.65446448  0.62310279  0.49066882  1
  O  O215  1  0.66362461  0.62614381  0.80272445  1
  O  O216  1  0.07980005  0.01813616  0.26029411  1
  O  O217  1  0.08722655  0.02713308  0.58696309  1
  O  O218  1  0.09391139  0.00789071  0.90649852  1
  O  O219  1  0.09700175  0.51251351  0.24193874  1
  O  O220  1  0.08870192  0.51755940  0.58299813  1
  O  O221  1  0.08862559  0.52095776  0.91048792  1
  O  O222  1  0.42061860  0.02371676  0.24749324  1
  O  O223  1  0.41348620  0.02699498  0.58460342  1
  O  O224  1  0.42030598  0.02490816  0.90845650  1
  O  O225  1  0.41436503  0.52587212  0.25089786  1
  O  O226  1  0.42380008  0.51549167  0.57163618  1
  O  O227  1  0.42224467  0.52439635  0.91745039  1
  O  O228  1  0.75031813  0.02293513  0.24500378  1
  O  O229  1  0.74965408  0.00976520  0.58107156  1
  O  O230  1  0.75647288  0.01319869  0.91258606  1
  O  O231  1  0.75263832  0.50791155  0.23972191  1
  O  O232  1  0.74729404  0.51370253  0.59013764  1
  O  O233  1  0.74813366  0.52152603  0.91459341  1
  O  O234  1  0.25742069  0.23630218  0.26450795  1
  O  O235  1  0.25296971  0.22574664  0.59276533  1
  O  O236  1  0.25586338  0.23429324  0.91929740  1
  O  O237  1  0.25346507  0.72734765  0.25174962  1
  O  O238  1  0.24535899  0.73738617  0.58180525  1
  O  O239  1  0.25559505  0.73120932  0.92378011  1
  O  O240  1  0.58046590  0.23151435  0.24960506  1
  O  O241  1  0.57307693  0.23815359  0.57494006  1
  O  O242  1  0.57806841  0.24062675  0.91138436  1
  O  O243  1  0.57384463  0.73545344  0.24067035  1
  O  O244  1  0.58149586  0.73616613  0.58339238  1
  O  O245  1  0.58841745  0.72839944  0.92046414  1
  O  O246  1  0.90861064  0.24929629  0.24151590  1
  O  O247  1  0.92527282  0.23583021  0.58691431  1
  O  O248  1  0.91286666  0.23339105  0.91076741  1
  O  O249  1  0.91810073  0.74409796  0.24773780  1
  O  O250  1  0.92528065  0.73794633  0.59307658  1
  O  O251  1  0.91431252  0.72610670  0.91113429  1
  O  O252  1  0.08039160  0.48167157  0.07841773  1
  O  O253  1  0.08592172  0.47660221  0.41253034  1
  O  O254  1  0.07970047  0.47990567  0.75095548  1
  O  O255  1  0.08920719  0.98944336  0.08720105  1
  O  O256  1  0.09208015  0.98637477  0.42635554  1
  O  O257  1  0.08033531  0.97365644  0.74487699  1
  O  O258  1  0.42070142  0.49482929  0.08606971  1
  O  O259  1  0.41167800  0.47299270  0.41406486  1
  O  O260  1  0.41416866  0.48366509  0.74523831  1
  O  O261  1  0.41332381  0.97950597  0.07456365  1
  O  O262  1  0.42486405  0.98980183  0.42245631  1
  O  O263  1  0.40715535  0.97777556  0.74769503  1
  O  O264  1  0.74926467  0.47445151  0.07726529  1
  O  O265  1  0.74573471  0.48526229  0.41316099  1
  O  O266  1  0.75211555  0.48808257  0.75661926  1
  O  O267  1  0.73989312  0.98376717  0.07808769  1
  O  O268  1  0.74140008  0.99970127  0.40466818  1
  O  O269  1  0.75590258  0.99077015  0.75487337  1
  O  O270  1  0.24687734  0.26772119  0.09260997  1
  O  O271  1  0.24811229  0.27529719  0.42558127  1
  O  O272  1  0.24458559  0.27151553  0.75715425  1
  O  O273  1  0.24899278  0.77116249  0.08973632  1
  O  O274  1  0.24975121  0.76330557  0.42154327  1
  O  O275  1  0.24374502  0.77446907  0.75384174  1
  O  O276  1  0.58967827  0.27088316  0.08025589  1
  O  O277  1  0.57834315  0.27553926  0.41056483  1
  O  O278  1  0.57262613  0.26199406  0.75274744  1
  O  O279  1  0.58050916  0.77780296  0.08075982  1
  O  O280  1  0.58175320  0.76787889  0.41327874  1
  O  O281  1  0.57495891  0.76916420  0.75979466  1
  O  O282  1  0.91865729  0.27919125  0.08023276  1
  O  O283  1  0.91945799  0.26940092  0.40724610  1
  O  O284  1  0.91597592  0.26309075  0.75338904  1
  O  O285  1  0.91514996  0.75125283  0.07977832  1
  O  O286  1  0.92045645  0.75508353  0.42187168  1
  O  O287  1  0.91527806  0.76781664  0.75264130  1
  O  O288  1  0.24284924  0.48695884  0.09399424  1
  O  O289  1  0.25123894  0.47026590  0.41713717  1
  O  O290  1  0.24377423  0.48160451  0.75260974  1
  O  O291  1  0.24900464  0.97573398  0.08817007  1
  O  O292  1  0.24658199  0.98488368  0.42898292  1
  O  O293  1  0.24515721  0.97122521  0.75881482  1
  O  O294  1  0.58908181  0.47887858  0.07672035  1
  O  O295  1  0.57620490  0.47706894  0.41442980  1
  O  O296  1  0.57401982  0.48404857  0.75910771  1
  O  O297  1  0.57705232  0.97576923  0.08329428  1
  O  O298  1  0.58316544  0.97931641  0.41021093  1
  O  O299  1  0.57328130  0.98638484  0.75362435  1
  O  O300  1  0.91705840  0.47686875  0.08506553  1
  O  O301  1  0.91868181  0.47729816  0.41712222  1
  O  O302  1  0.91175480  0.48690392  0.75832689  1
  O  O303  1  0.91180742  0.99659639  0.08294413  1
  O  O304  1  0.92079930  0.99753695  0.41471953  1
  O  O305  1  0.91843635  0.98360206  0.74952269  1
  O  O306  1  0.08284484  0.26956780  0.08378793  1
  O  O307  1  0.08786869  0.27590213  0.41902369  1
  O  O308  1  0.08190639  0.27070360  0.74873144  1
  O  O309  1  0.08918188  0.75688834  0.08529662  1
  O  O310  1  0.09168510  0.75928437  0.42502234  1
  O  O311  1  0.07991848  0.77592350  0.74512605  1
  O  O312  1  0.42261396  0.25782399  0.08259629  1
  O  O313  1  0.41499449  0.26894897  0.41544635  1
  O  O314  1  0.40795844  0.26294524  0.74334472  1
  O  O315  1  0.41515746  0.76535421  0.07954445  1
  O  O316  1  0.42273960  0.76271920  0.42182466  1
  O  O317  1  0.41228353  0.77258343  0.74902117  1
  O  O318  1  0.75374061  0.27748679  0.08345097  1
  O  O319  1  0.74245451  0.25841368  0.40761170  1
  O  O320  1  0.75312560  0.25809905  0.75628284  1
  O  O321  1  0.73816821  0.76221934  0.07406720  1
  O  O322  1  0.74503071  0.75777260  0.41354986  1
  O  O323  1  0.75546259  0.76353375  0.75839022  1
  O  O324  1  0.25515387  0.01759626  0.25987178  1
  O  O325  1  0.25240958  0.02312002  0.59430377  1
  O  O326  1  0.25895354  0.01546593  0.92376554  1
  O  O327  1  0.25622656  0.52185219  0.25562393  1
  O  O328  1  0.24738137  0.51091592  0.57697234  1
  O  O329  1  0.25258529  0.51892855  0.92118841  1
  O  O330  1  0.58220996  0.02557879  0.24934117  1
  O  O331  1  0.57327946  0.01104014  0.57333818  1
  O  O332  1  0.57911786  0.00524161  0.91467214  1
  O  O333  1  0.57501480  0.50986790  0.24466301  1
  O  O334  1  0.58232875  0.51526157  0.58639129  1
  O  O335  1  0.58687183  0.52843709  0.91706935  1
  O  O336  1  0.91485260  0.01322879  0.24893698  1
  O  O337  1  0.92719848  0.01420243  0.58917173  1
  O  O338  1  0.91410410  0.01598251  0.90681058  1
  O  O339  1  0.92025067  0.49262802  0.25100117  1
  O  O340  1  0.92249346  0.51189746  0.59246524  1
  O  O341  1  0.91775324  0.52546443  0.91720097  1
  O  O342  1  0.07545660  0.23702737  0.26201367  1
  O  O343  1  0.09034381  0.22426146  0.58670210  1
  O  O344  1  0.09023109  0.24068684  0.90930442  1
  O  O345  1  0.09327836  0.73708537  0.24593121  1
  O  O346  1  0.08570007  0.72950207  0.58566290  1
  O  O347  1  0.09026882  0.73475719  0.90699575  1
  O  O348  1  0.41672840  0.22547689  0.25034005  1
  O  O349  1  0.41547692  0.22187942  0.58079181  1
  O  O350  1  0.41889787  0.22692999  0.90824889  1
  O  O351  1  0.41568724  0.72561833  0.24948388  1
  O  O352  1  0.42012670  0.73307168  0.57897988  1
  O  O353  1  0.42334516  0.72400524  0.91717378  1
  O  O354  1  0.74805740  0.22609793  0.24693375  1
  O  O355  1  0.75072477  0.24288737  0.58076881  1
  O  O356  1  0.75275926  0.24399178  0.91582127  1
  O  O357  1  0.74507394  0.74239162  0.24446665  1
  O  O358  1  0.74640472  0.73491573  0.59031252  1
  O  O359  1  0.74903570  0.72010547  0.91446212  1
