# generated using pymatgen
data_Ba17Sr5La8Pr42Mn72O216
_symmetry_space_group_name_H-M   'P 1'
_cell_length_a   16.67016765
_cell_length_b   15.70288068
_cell_length_c   16.81708062
_cell_angle_alpha   90.00532156
_cell_angle_beta   90.00909652
_cell_angle_gamma   89.99960612
_symmetry_Int_Tables_number   1
_chemical_formula_structural   Ba17Sr5La8Pr42Mn72O216
_chemical_formula_sum   'Ba17 Sr5 La8 Pr42 Mn72 O216'
_cell_volume   4402.20129072
_cell_formula_units_Z   1
loop_
 _symmetry_equiv_pos_site_id
 _symmetry_equiv_pos_as_xyz
  1  'x, y, z'
loop_
 _atom_site_type_symbol
 _atom_site_label
 _atom_site_symmetry_multiplicity
 _atom_site_fract_x
 _atom_site_fract_y
 _atom_site_fract_z
 _atom_site_occupancy
  Ba  Ba0  1  0.49944141  0.12438779  0.17106957  1
  Ba  Ba1  1  0.33093911  0.87419865  0.33521674  1
  Ba  Ba2  1  0.83135764  0.87449363  0.16671048  1
  Ba  Ba3  1  0.49912030  0.87487163  0.50184868  1
  Ba  Ba4  1  0.83771105  0.62577487  0.83329348  1
  Ba  Ba5  1  0.00040262  0.62411242  0.99509216  1
  Ba  Ba6  1  0.33379824  0.87566284  0.66945935  1
  Ba  Ba7  1  0.16539953  0.37555395  0.49929588  1
  Ba  Ba8  1  0.50058199  0.12607439  0.50144647  1
  Ba  Ba9  1  0.50312542  0.62397338  0.83659437  1
  Ba  Ba10  1  0.82994277  0.37577550  0.16674300  1
  Ba  Ba11  1  0.33129506  0.37469721  -0.00023040  1
  Ba  Ba12  1  0.83046639  0.37560688  0.49667369  1
  Ba  Ba13  1  0.33187569  0.87427369  0.00235894  1
  Ba  Ba14  1  0.16518045  0.87642409  0.82975596  1
  Ba  Ba15  1  0.49934277  0.37665296  0.83483859  1
  Ba  Ba16  1  0.33540457  0.12459034  0.33451787  1
  Sr  Sr17  1  0.16287324  0.37411750  0.82670585  1
  Sr  Sr18  1  0.49663295  0.87655017  0.16944987  1
  Sr  Sr19  1  0.50034847  0.37663283  0.50077949  1
  Sr  Sr20  1  0.66323072  0.37438836  0.33637205  1
  Sr  Sr21  1  -0.00326526  0.87646902  0.66677503  1
  La  La22  1  0.66854091  0.12454771  1.00216955  1
  La  La23  1  0.66287365  0.87710576  0.33615944  1
  La  La24  1  0.00018234  0.12521025  0.99734367  1
  La  La25  1  -0.00340946  0.37691432  -0.00422470  1
  La  La26  1  0.16289605  0.87565736  0.49740560  1
  La  La27  1  0.66582381  0.87632600  0.66918200  1
  La  La28  1  0.66733874  0.62293573  0.33437115  1
  La  La29  1  0.49923934  0.87357477  0.83273699  1
  Pr  Pr30  1  0.66453718  0.12765994  0.33288474  1
  Pr  Pr31  1  0.33672037  0.62594540  0.99637067  1
  Pr  Pr32  1  0.67257914  0.62521979  0.99697293  1
  Pr  Pr33  1  0.66875637  0.12761046  0.66267437  1
  Pr  Pr34  1  0.17507054  0.12517872  0.49928241  1
  Pr  Pr35  1  0.33859986  0.62370811  0.66929214  1
  Pr  Pr36  1  0.83444773  0.12395051  0.17187523  1
  Pr  Pr37  1  0.66344368  0.37805394  0.00364776  1
  Pr  Pr38  1  0.00880936  0.12400826  0.65929725  1
  Pr  Pr39  1  -0.00298558  0.87238568  -0.00023065  1
  Pr  Pr40  1  0.83865385  0.62558362  0.16673940  1
  Pr  Pr41  1  0.17403176  0.12494283  0.16755617  1
  Pr  Pr42  1  0.33880816  0.12339606  1.00290731  1
  Pr  Pr43  1  0.17462996  0.62447546  0.50186956  1
  Pr  Pr44  1  -0.01014041  0.37310573  0.66606879  1
  Pr  Pr45  1  0.83106207  0.87399313  0.49588053  1
  Pr  Pr46  1  0.17168062  0.62569396  0.83435903  1
  Pr  Pr47  1  0.83480344  0.87315701  0.83307767  1
  Pr  Pr48  1  0.83776653  0.62423580  0.50471991  1
  Pr  Pr49  1  0.66877707  0.62258342  0.66483300  1
  Pr  Pr50  1  0.33289294  0.12666589  0.66613233  1
  Pr  Pr51  1  0.16335719  0.37290610  0.16148260  1
  Pr  Pr52  1  0.66302548  0.37432801  0.66807481  1
  Pr  Pr53  1  0.66279628  0.87177122  0.00553784  1
  Pr  Pr54  1  -0.00540497  0.87293494  0.33446110  1
  Pr  Pr55  1  0.83606999  0.12618815  0.50209573  1
  Pr  Pr56  1  0.49777261  0.62532174  0.16778406  1
  Pr  Pr57  1  0.17459198  0.12378725  0.83206829  1
  Pr  Pr58  1  0.83061902  0.37745395  0.83029038  1
  Pr  Pr59  1  0.50000470  0.12457878  0.83859720  1
  Pr  Pr60  1  0.83672730  0.12273048  0.83294695  1
  Pr  Pr61  1  0.00344980  0.61990932  0.32853732  1
  Pr  Pr62  1  0.00333134  0.12945048  0.32833686  1
  Pr  Pr63  1  -0.00761179  0.37597666  0.33502853  1
  Pr  Pr64  1  0.17385555  0.62459713  0.16512668  1
  Pr  Pr65  1  0.00688857  0.62547131  0.66348163  1
  Pr  Pr66  1  0.16461473  0.87777922  0.16092975  1
  Pr  Pr67  1  0.33398761  0.37184099  0.33684720  1
  Pr  Pr68  1  0.33921031  0.62322099  0.33625802  1
  Pr  Pr69  1  0.50005330  0.37134097  0.16618497  1
  Pr  Pr70  1  0.33248861  0.36994998  0.67478587  1
  Pr  Pr71  1  0.50212486  0.62786534  0.50552670  1
  Mn  Mn72  1  -0.00016690  0.00076014  0.16485886  1
  Mn  Mn73  1  -0.00009522  -0.00010094  0.49686057  1
  Mn  Mn74  1  -0.00083265  0.00299290  0.83000311  1
  Mn  Mn75  1  0.00056484  0.49957644  0.16423798  1
  Mn  Mn76  1  0.00128810  0.50132884  0.49730194  1
  Mn  Mn77  1  0.00201475  0.49706119  0.82854576  1
  Mn  Mn78  1  0.33226093  -0.00198678  0.16787349  1
  Mn  Mn79  1  0.33303017  0.00073025  0.50243677  1
  Mn  Mn80  1  0.33573416  0.00199217  0.83503600  1
  Mn  Mn81  1  0.33178969  0.50052358  0.16927343  1
  Mn  Mn82  1  0.33463419  0.49888280  0.50149471  1
  Mn  Mn83  1  0.33093867  0.49932911  0.83396602  1
  Mn  Mn84  1  0.66650321  -0.00133316  0.16812301  1
  Mn  Mn85  1  0.66954896  0.00080985  0.50115054  1
  Mn  Mn86  1  0.66875104  0.00075960  0.83437758  1
  Mn  Mn87  1  0.66464824  0.50232444  0.16699861  1
  Mn  Mn88  1  0.66596177  0.50047258  0.49864323  1
  Mn  Mn89  1  0.66847816  0.49957729  0.83387368  1
  Mn  Mn90  1  -0.00062930  0.25025121  0.16262990  1
  Mn  Mn91  1  0.00067491  0.24884938  0.49642500  1
  Mn  Mn92  1  -0.00063117  0.24741272  0.82929426  1
  Mn  Mn93  1  0.00105553  0.74890637  0.16651030  1
  Mn  Mn94  1  0.00085285  0.75001104  0.49813494  1
  Mn  Mn95  1  0.00133016  0.75181551  0.82943421  1
  Mn  Mn96  1  0.33134070  0.25276375  0.16882214  1
  Mn  Mn97  1  0.33477164  0.25290593  0.50292072  1
  Mn  Mn98  1  0.33262746  0.24824418  0.83490824  1
  Mn  Mn99  1  0.33195897  0.74798661  0.16828621  1
  Mn  Mn100  1  0.33158037  0.74859758  0.50165774  1
  Mn  Mn101  1  0.33434501  0.74926160  0.83480935  1
  Mn  Mn102  1  0.66744583  0.25086885  0.16754713  1
  Mn  Mn103  1  0.66683892  0.25063358  0.49920597  1
  Mn  Mn104  1  0.66897155  0.24771398  0.83355599  1
  Mn  Mn105  1  0.66403527  0.74718516  0.16740927  1
  Mn  Mn106  1  0.66903830  0.74928761  0.50063834  1
  Mn  Mn107  1  0.66908530  0.75221941  0.83526466  1
  Mn  Mn108  1  0.16459623  0.24918081  -0.00252444  1
  Mn  Mn109  1  0.16561250  0.25208527  0.33030155  1
  Mn  Mn110  1  0.16548303  0.25075397  0.66532281  1
  Mn  Mn111  1  0.16497691  0.74961148  -0.00038882  1
  Mn  Mn112  1  0.16402571  0.74739242  0.33240584  1
  Mn  Mn113  1  0.16586618  0.74812786  0.66567801  1
  Mn  Mn114  1  0.50143209  0.24955016  0.00226876  1
  Mn  Mn115  1  0.50152069  0.25349748  0.33547479  1
  Mn  Mn116  1  0.50179951  0.25052658  0.66953000  1
  Mn  Mn117  1  0.50082906  0.75015454  0.00370709  1
  Mn  Mn118  1  0.50069669  0.74734718  0.33525654  1
  Mn  Mn119  1  0.50235976  0.74991183  0.66994505  1
  Mn  Mn120  1  0.83229191  0.24787877  -0.00154857  1
  Mn  Mn121  1  0.83276446  0.24872200  0.33352970  1
  Mn  Mn122  1  0.83292579  0.24873564  0.66709413  1
  Mn  Mn123  1  0.83288225  0.75187484  0.00024395  1
  Mn  Mn124  1  0.83295623  0.74846533  0.33415823  1
  Mn  Mn125  1  0.83491965  0.75119361  0.66588878  1
  Mn  Mn126  1  0.16421391  0.00270761  -0.00061577  1
  Mn  Mn127  1  0.16214345  -0.00027334  0.33140995  1
  Mn  Mn128  1  0.16595858  0.00056123  0.66443355  1
  Mn  Mn129  1  0.16604749  0.49799277  -0.00243529  1
  Mn  Mn130  1  0.16707360  0.50069532  0.33102692  1
  Mn  Mn131  1  0.16657570  0.49960267  0.66686700  1
  Mn  Mn132  1  0.50123391  0.00065662  0.00182009  1
  Mn  Mn133  1  0.50088472  -0.00121152  0.33481123  1
  Mn  Mn134  1  0.50329218  0.00119477  0.67239764  1
  Mn  Mn135  1  0.50065549  0.49889671  0.00481621  1
  Mn  Mn136  1  0.50029658  0.50066408  0.33552508  1
  Mn  Mn137  1  0.50066339  0.50054326  0.66554773  1
  Mn  Mn138  1  0.83268356  0.00189937  0.00032800  1
  Mn  Mn139  1  0.83392602  0.00015074  0.33485060  1
  Mn  Mn140  1  0.83439279  -0.00015902  0.66643524  1
  Mn  Mn141  1  0.83259746  0.49800569  -0.00156524  1
  Mn  Mn142  1  0.83219493  0.50250899  0.33334560  1
  Mn  Mn143  1  0.83337337  0.50059976  0.66567830  1
  O  O144  1  0.15597269  0.12689721  0.02467348  1
  O  O145  1  0.15587001  0.12596966  0.35549840  1
  O  O146  1  0.15874563  0.12723734  0.68527111  1
  O  O147  1  0.16784704  0.62314034  0.02029526  1
  O  O148  1  0.15581154  0.62401428  0.35942373  1
  O  O149  1  0.15462754  0.62216859  0.68896823  1
  O  O150  1  0.50218351  0.12615519  0.01411181  1
  O  O151  1  0.50816253  0.12667696  0.34265830  1
  O  O152  1  0.51124986  0.12494300  0.69335088  1
  O  O153  1  0.50185605  0.62159472  0.02331028  1
  O  O154  1  0.49754246  0.62245819  0.36112142  1
  O  O155  1  0.50352328  0.62413682  0.67962332  1
  O  O156  1  0.83427095  0.12491252  0.02806016  1
  O  O157  1  0.83880547  0.12150969  0.35759972  1
  O  O158  1  0.82668572  0.12552016  0.69129908  1
  O  O159  1  0.82794254  0.62658780  0.02082477  1
  O  O160  1  0.83618455  0.62747028  0.35917458  1
  O  O161  1  0.83026149  0.62582942  0.67943406  1
  O  O162  1  0.17339134  0.37870044  0.30538742  1
  O  O163  1  0.18145795  0.37509617  0.65608779  1
  O  O164  1  0.16266623  0.37163747  0.97702029  1
  O  O165  1  0.15815639  0.87140776  0.30574788  1
  O  O166  1  0.16605532  0.87457877  0.64249844  1
  O  O167  1  0.16049801  0.87714602  0.98708813  1
  O  O168  1  0.49986888  0.38141796  0.31023479  1
  O  O169  1  0.50201623  0.37749999  0.65131683  1
  O  O170  1  0.50781173  0.37298794  0.99063483  1
  O  O171  1  0.50869577  0.86891430  0.32094391  1
  O  O172  1  0.50609734  0.87587672  0.65892422  1
  O  O173  1  0.50678752  0.87913883  0.97662520  1
  O  O174  1  0.83866553  0.37639605  0.32182416  1
  O  O175  1  0.83611710  0.37384831  0.65080486  1
  O  O176  1  0.82819393  0.36819121  0.97500090  1
  O  O177  1  0.83395764  0.87444362  0.32061894  1
  O  O178  1  0.83262277  0.87521466  0.63845537  1
  O  O179  1  0.83027454  0.88049337  0.97821561  1
  O  O180  1  0.00740342  0.37357772  0.19146921  1
  O  O181  1  -0.00070141  0.37704485  0.52216418  1
  O  O182  1  0.00051291  0.36856886  0.85145016  1
  O  O183  1  0.00828712  0.87251546  0.19162064  1
  O  O184  1  0.00244852  0.87520379  0.51940753  1
  O  O185  1  -0.00300223  0.88401300  0.85541330  1
  O  O186  1  0.32381036  0.38009324  0.19256203  1
  O  O187  1  0.33517579  0.37802370  0.52884438  1
  O  O188  1  0.32604151  0.37341502  0.83960494  1
  O  O189  1  0.32327137  0.87032296  0.17770297  1
  O  O190  1  0.32287694  0.87284348  0.51216572  1
  O  O191  1  0.33864714  0.87746174  0.84436382  1
  O  O192  1  0.66176924  0.37839904  0.18674300  1
  O  O193  1  0.66609891  0.37810978  0.52346674  1
  O  O194  1  0.67692152  0.36858995  0.85930404  1
  O  O195  1  0.66587563  0.86845736  0.19301845  1
  O  O196  1  0.67661014  0.87449733  0.52293606  1
  O  O197  1  0.67106695  0.87932247  0.86251000  1
  O  O198  1  -0.00804047  0.12767839  0.14042645  1
  O  O199  1  -0.00376523  0.12129903  0.47142799  1
  O  O200  1  -0.01010327  0.12614150  0.80147665  1
  O  O201  1  -0.00643322  0.62561356  0.15126997  1
  O  O202  1  -0.00264641  0.62746296  0.47289982  1
  O  O203  1  0.00528081  0.62056063  0.80791244  1
  O  O204  1  0.32663971  0.12654580  0.14972839  1
  O  O205  1  0.32769818  0.12835011  0.49186840  1
  O  O206  1  0.34042133  0.12550443  0.81271558  1
  O  O207  1  0.33113035  0.62238347  0.14061734  1
  O  O208  1  0.33062401  0.62225935  0.47938061  1
  O  O209  1  0.33154577  0.62348094  0.81701759  1
  O  O210  1  0.67211230  0.12705236  0.14702884  1
  O  O211  1  0.67409298  0.12292661  0.47912747  1
  O  O212  1  0.66930502  0.12330142  0.80458762  1
  O  O213  1  0.65594154  0.62499373  0.13873844  1
  O  O214  1  0.66696972  0.62576020  0.48047637  1
  O  O215  1  0.66982035  0.62955158  0.80991856  1
  O  O216  1  0.08383097  0.02544987  0.24426697  1
  O  O217  1  0.08840078  0.02149505  0.56965379  1
  O  O218  1  0.08445327  0.02660082  0.90872208  1
  O  O219  1  0.08850266  0.52043037  0.24278078  1
  O  O220  1  0.08768406  0.52253089  0.57515996  1
  O  O221  1  0.09170042  0.51122807  0.90162782  1
  O  O222  1  0.41641921  0.00034017  0.24904706  1
  O  O223  1  0.41640121  0.01663390  0.59919278  1
  O  O224  1  0.41747424  0.02261572  0.91976889  1
  O  O225  1  0.41734827  0.52424486  0.25196058  1
  O  O226  1  0.42120935  0.52400150  0.57848692  1
  O  O227  1  0.41513060  0.51220018  0.92505018  1
  O  O228  1  0.75432220  0.02253521  0.25260456  1
  O  O229  1  0.75610091  0.02279495  0.58068290  1
  O  O230  1  0.75286437  0.02612791  0.91375905  1
  O  O231  1  0.75231892  0.52716857  0.24303648  1
  O  O232  1  0.75143811  0.52120640  0.58142146  1
  O  O233  1  0.75050494  0.51409810  0.91682915  1
  O  O234  1  0.24506170  0.23489505  0.24835463  1
  O  O235  1  0.25038905  0.23100892  0.58787653  1
  O  O236  1  0.25241649  0.22171221  0.92100439  1
  O  O237  1  0.25290147  0.72207089  0.25740875  1
  O  O238  1  0.25258697  0.72293399  0.58848970  1
  O  O239  1  0.25313764  0.72927469  0.92133960  1
  O  O240  1  0.59227912  0.23975878  0.25634026  1
  O  O241  1  0.59240317  0.23872260  0.59171165  1
  O  O242  1  0.58943959  0.22820829  0.91596965  1
  O  O243  1  0.58296906  0.72340659  0.25165878  1
  O  O244  1  0.58943107  0.73146996  0.58612469  1
  O  O245  1  0.59206226  0.73783045  0.92573835  1
  O  O246  1  0.91870932  0.22984000  0.24954010  1
  O  O247  1  0.91941198  0.22718999  0.58896346  1
  O  O248  1  0.91931690  0.22692107  0.91592127  1
  O  O249  1  0.92021247  0.73096900  0.25335949  1
  O  O250  1  0.92249252  0.72757883  0.58333760  1
  O  O251  1  0.91957872  0.75117612  0.91744724  1
  O  O252  1  0.07986190  0.47745799  0.07636635  1
  O  O253  1  0.07597277  0.48255570  0.40254127  1
  O  O254  1  0.07224954  0.47768471  0.73378103  1
  O  O255  1  0.07859720  0.98094651  0.07964100  1
  O  O256  1  0.07329840  0.97725145  0.40651858  1
  O  O257  1  0.07603592  0.99259938  0.73916641  1
  O  O258  1  0.42019412  0.48376273  0.09459246  1
  O  O259  1  0.41163319  0.48121731  0.41118579  1
  O  O260  1  0.40591639  0.48910179  0.73967513  1
  O  O261  1  0.41318328  0.99435415  0.08222288  1
  O  O262  1  0.41491348  0.99390881  0.42180610  1
  O  O263  1  0.42915455  0.99210986  0.76303236  1
  O  O264  1  0.73984333  0.48831317  0.07628588  1
  O  O265  1  0.74389757  0.49463231  0.40971017  1
  O  O266  1  0.74909666  0.47866146  0.74663949  1
  O  O267  1  0.74237899  0.98670098  0.07827434  1
  O  O268  1  0.75130156  0.98055150  0.41747801  1
  O  O269  1  0.74825494  0.97598174  0.75093672  1
  O  O270  1  0.24221274  0.26221325  0.09081125  1
  O  O271  1  0.25224465  0.26523988  0.41468361  1
  O  O272  1  0.24699575  0.25197642  0.75324122  1
  O  O273  1  0.23759834  0.75809123  0.09446014  1
  O  O274  1  0.23635085  0.75813908  0.42604241  1
  O  O275  1  0.24698185  0.74905046  0.75223989  1
  O  O276  1  0.58303672  0.26829204  0.08819302  1
  O  O277  1  0.58291807  0.26428376  0.42048755  1
  O  O278  1  0.58882389  0.26785040  0.74983461  1
  O  O279  1  0.58124914  0.77105919  0.08738864  1
  O  O280  1  0.58997641  0.75929999  0.41518476  1
  O  O281  1  0.58727845  0.77194016  0.75644122  1
  O  O282  1  0.91883178  0.26831590  0.07693015  1
  O  O283  1  0.91853281  0.26125730  0.41351838  1
  O  O284  1  0.91028323  0.27114870  0.75429781  1
  O  O285  1  0.91667669  0.76564674  0.08167528  1
  O  O286  1  0.91435876  0.77112507  0.42283850  1
  O  O287  1  0.91268721  0.77033791  0.75204392  1
  O  O288  1  0.24018616  0.48599127  0.09353029  1
  O  O289  1  0.25143162  0.48823434  0.41432546  1
  O  O290  1  0.24158122  0.49533058  0.75463853  1
  O  O291  1  0.24157337  0.99311190  0.08953400  1
  O  O292  1  0.23295552  0.98970298  0.42275776  1
  O  O293  1  0.25101151  1.00290581  0.75258600  1
  O  O294  1  0.57954536  0.47878314  0.09054747  1
  O  O295  1  0.58023640  0.48870896  0.41982777  1
  O  O296  1  0.58998546  0.48661116  0.74596424  1
  O  O297  1  0.58373265  0.98191970  0.08091067  1
  O  O298  1  0.59100317  0.98784084  0.41723496  1
  O  O299  1  0.58694825  0.97721158  0.75580954  1
  O  O300  1  0.91535588  0.48486975  0.07990644  1
  O  O301  1  0.91907459  0.49014200  0.41458779  1
  O  O302  1  0.91425803  0.47826394  0.75015134  1
  O  O303  1  0.92008499  0.98289518  0.07772773  1
  O  O304  1  0.91294822  0.97695008  0.42087439  1
  O  O305  1  0.90872901  0.98223422  0.75571375  1
  O  O306  1  0.07818478  0.27131705  0.07658358  1
  O  O307  1  0.07642049  0.26919921  0.40001831  1
  O  O308  1  0.07197333  0.26624450  0.73439379  1
  O  O309  1  0.07819757  0.77033426  0.07971011  1
  O  O310  1  0.07564881  0.77184915  0.40847151  1
  O  O311  1  0.07563327  0.76149362  0.73642775  1
  O  O312  1  0.41491210  0.26397276  0.09023287  1
  O  O313  1  0.41486036  0.27079518  0.41872342  1
  O  O314  1  0.41216280  0.26072359  0.74793977  1
  O  O315  1  0.41722958  0.75534229  0.08866439  1
  O  O316  1  0.41422222  0.75182361  0.41841385  1
  O  O317  1  0.42021402  0.75845532  0.75558226  1
  O  O318  1  0.74107419  0.26347319  0.07442430  1
  O  O319  1  0.74605831  0.25544451  0.40976644  1
  O  O320  1  0.74788626  0.27167447  0.74664313  1
  O  O321  1  0.74171848  0.76161095  0.07763716  1
  O  O322  1  0.74895879  0.76822018  0.41674596  1
  O  O323  1  0.74914983  0.77545717  0.74981905  1
  O  O324  1  0.24323694  0.01201332  0.24837862  1
  O  O325  1  0.25043465  0.02249158  0.58682680  1
  O  O326  1  0.25250939  0.02577636  0.92086302  1
  O  O327  1  0.25234348  0.52954705  0.25419494  1
  O  O328  1  0.25378146  0.52438695  0.59021061  1
  O  O329  1  0.25312413  0.52229840  0.92226239  1
  O  O330  1  0.59360450  0.00946173  0.25670263  1
  O  O331  1  0.59447680  0.01263966  0.59366009  1
  O  O332  1  0.58597893  0.02365778  0.91493849  1
  O  O333  1  0.58358598  0.52500466  0.25279028  1
  O  O334  1  0.58723548  0.52125868  0.58420267  1
  O  O335  1  0.59201977  0.51064287  0.92703820  1
  O  O336  1  0.91949829  0.01956304  0.25152389  1
  O  O337  1  0.92229142  0.02394078  0.58334531  1
  O  O338  1  0.91840626  0.02414640  0.91635211  1
  O  O339  1  0.91806485  0.51906201  0.25138320  1
  O  O340  1  0.92066668  0.52151262  0.58525906  1
  O  O341  1  0.92050525  0.49824212  0.91430521  1
  O  O342  1  0.08458809  0.22776995  0.23958559  1
  O  O343  1  0.08629196  0.22814445  0.57281816  1
  O  O344  1  0.08478759  0.22489895  0.90474323  1
  O  O345  1  0.08734278  0.72329971  0.24530729  1
  O  O346  1  0.08953689  0.72745729  0.57223729  1
  O  O347  1  0.08999632  0.73595050  0.90623348  1
  O  O348  1  0.41490534  0.25332647  0.25289705  1
  O  O349  1  0.41298210  0.23795483  0.59281885  1
  O  O350  1  0.41725955  0.23050358  0.91797175  1
  O  O351  1  0.41707419  0.72626567  0.25079353  1
  O  O352  1  0.41670218  0.72958227  0.58353955  1
  O  O353  1  0.41599292  0.73655128  0.92365554  1
  O  O354  1  0.75489027  0.22737839  0.24687010  1
  O  O355  1  0.75437064  0.22912884  0.58119563  1
  O  O356  1  0.75452099  0.22039864  0.91217451  1
  O  O357  1  0.75030127  0.72192423  0.24556536  1
  O  O358  1  0.75352208  0.72855074  0.58032024  1
  O  O359  1  0.75023649  0.73769229  0.91787799  1
