# generated using pymatgen
data_Ba17Sr5La8Pr42Mn72O216
_symmetry_space_group_name_H-M   'P 1'
_cell_length_a   16.67522886
_cell_length_b   15.70675754
_cell_length_c   16.81812034
_cell_angle_alpha   90.01188443
_cell_angle_beta   89.99871202
_cell_angle_gamma   89.99179801
_symmetry_Int_Tables_number   1
_chemical_formula_structural   Ba17Sr5La8Pr42Mn72O216
_chemical_formula_sum   'Ba17 Sr5 La8 Pr42 Mn72 O216'
_cell_volume   4404.89727387
_cell_formula_units_Z   1
loop_
 _symmetry_equiv_pos_site_id
 _symmetry_equiv_pos_as_xyz
  1  'x, y, z'
loop_
 _atom_site_type_symbol
 _atom_site_label
 _atom_site_symmetry_multiplicity
 _atom_site_fract_x
 _atom_site_fract_y
 _atom_site_fract_z
 _atom_site_occupancy
  Ba  Ba0  1  0.83303795  0.37379404  0.16538705  1
  Ba  Ba1  1  0.49697303  0.37401783  0.16534692  1
  Ba  Ba2  1  0.00227735  0.62612875  0.32969880  1
  Ba  Ba3  1  0.66446754  0.37542145  0.33501677  1
  Ba  Ba4  1  0.49860427  0.12194502  0.16793589  1
  Ba  Ba5  1  0.50007495  0.37576315  0.83323084  1
  Ba  Ba6  1  0.66992535  0.62696429  1.00102658  1
  Ba  Ba7  1  0.33417885  0.12246178  0.33394761  1
  Ba  Ba8  1  0.33718093  0.62559684  0.66599808  1
  Ba  Ba9  1  0.16669513  0.12572996  0.83405825  1
  Ba  Ba10  1  0.66690587  0.37676298  0.00070607  1
  Ba  Ba11  1  0.33417597  0.12420262  0.66664290  1
  Ba  Ba12  1  0.16567665  0.37573941  0.49948218  1
  Ba  Ba13  1  -0.00033331  0.12315165  0.99868999  1
  Ba  Ba14  1  -0.00061461  0.12390191  0.33091649  1
  Ba  Ba15  1  0.82947744  0.37490794  0.50025061  1
  Ba  Ba16  1  0.16347394  0.37576062  0.83346514  1
  Sr  Sr17  1  0.32848189  0.87347340  0.00230245  1
  Sr  Sr18  1  0.49557999  0.87472501  0.50136286  1
  Sr  Sr19  1  0.83210425  0.12677411  0.16741731  1
  Sr  Sr20  1  0.83201445  0.37430585  0.83159620  1
  Sr  Sr21  1  0.49528209  0.87610629  0.16564568  1
  La  La22  1  0.50673088  0.62761958  0.16883432  1
  La  La23  1  -0.00098372  0.62192699  0.66124696  1
  La  La24  1  0.66868735  0.62477728  0.67008329  1
  La  La25  1  0.83493036  0.87452751  0.49399406  1
  La  La26  1  0.83735972  0.87560454  0.16514900  1
  La  La27  1  0.16886123  0.62442206  0.50161377  1
  La  La28  1  0.66421184  0.87826424  0.67148087  1
  La  La29  1  0.00535896  0.87567610  0.33368269  1
  Pr  Pr30  1  0.50310559  0.12132880  0.84183591  1
  Pr  Pr31  1  0.17490416  0.62811110  0.17063832  1
  Pr  Pr32  1  0.66540857  0.87616249  0.00894461  1
  Pr  Pr33  1  0.16777028  0.87656324  0.83262601  1
  Pr  Pr34  1  0.32959845  0.87330508  0.67215823  1
  Pr  Pr35  1  0.50728382  0.62772951  0.83798962  1
  Pr  Pr36  1  0.17420370  0.87376527  0.49944798  1
  Pr  Pr37  1  0.66755509  0.12719402  0.33096313  1
  Pr  Pr38  1  -0.00418325  0.37050686  -0.00175989  1
  Pr  Pr39  1  0.66279552  0.87805288  0.33900467  1
  Pr  Pr40  1  0.34020689  0.62642607  0.33466956  1
  Pr  Pr41  1  0.82554647  0.12869637  0.49994188  1
  Pr  Pr42  1  0.32494209  0.37567793  0.67141176  1
  Pr  Pr43  1  0.17407502  0.62397275  0.83811181  1
  Pr  Pr44  1  0.83655889  0.62366689  0.83515584  1
  Pr  Pr45  1  0.83262507  0.62063297  0.50086333  1
  Pr  Pr46  1  0.66659912  0.37449473  0.67487961  1
  Pr  Pr47  1  0.50644394  0.62864880  0.50341067  1
  Pr  Pr48  1  0.66579243  0.12689052  0.67037793  1
  Pr  Pr49  1  0.00088682  0.62390081  0.99696149  1
  Pr  Pr50  1  0.33687736  0.12469044  0.99739050  1
  Pr  Pr51  1  -0.00180305  0.12759986  0.66076917  1
  Pr  Pr52  1  0.66926268  0.13012671  1.00411566  1
  Pr  Pr53  1  0.33099792  0.37153051  0.33224008  1
  Pr  Pr54  1  0.00486993  0.87330721  0.66620692  1
  Pr  Pr55  1  0.67224352  0.62432327  0.33218835  1
  Pr  Pr56  1  0.33586436  0.87677933  0.33179939  1
  Pr  Pr57  1  0.83341468  0.62095064  0.16725528  1
  Pr  Pr58  1  0.16043827  0.37531549  0.16497609  1
  Pr  Pr59  1  0.00483883  0.87860432  -0.00159014  1
  Pr  Pr60  1  0.34284940  0.62695411  0.99731595  1
  Pr  Pr61  1  0.32698385  0.37351436  0.00308553  1
  Pr  Pr62  1  0.49531264  0.87251242  0.83493395  1
  Pr  Pr63  1  0.16644657  0.12698083  0.50549497  1
  Pr  Pr64  1  0.16533035  0.87644741  0.16694288  1
  Pr  Pr65  1  0.16769915  0.12209809  0.16856395  1
  Pr  Pr66  1  0.50381262  0.12116305  0.50192065  1
  Pr  Pr67  1  0.83136638  0.12529424  0.83727214  1
  Pr  Pr68  1  0.83537382  0.87454594  0.82948841  1
  Pr  Pr69  1  -0.00774120  0.37362557  0.33488289  1
  Pr  Pr70  1  0.49365188  0.37506682  0.49784355  1
  Pr  Pr71  1  -0.00367793  0.37529476  0.66853142  1
  Mn  Mn72  1  -0.00015821  -0.00144492  0.16574291  1
  Mn  Mn73  1  -0.00036174  -0.00138610  0.49954835  1
  Mn  Mn74  1  -0.00134184  -0.00303516  0.82911894  1
  Mn  Mn75  1  0.00198672  0.50117829  0.16330233  1
  Mn  Mn76  1  0.00049139  0.50062035  0.49756800  1
  Mn  Mn77  1  -0.00142262  0.50196652  0.83069554  1
  Mn  Mn78  1  0.33158666  -0.00317227  0.16457830  1
  Mn  Mn79  1  0.33434067  -0.00137837  0.50051755  1
  Mn  Mn80  1  0.33487208  -0.00220236  0.83441184  1
  Mn  Mn81  1  0.33154751  0.50331322  0.16661744  1
  Mn  Mn82  1  0.33406584  0.50079975  0.49881703  1
  Mn  Mn83  1  0.33519010  0.50180155  0.83432195  1
  Mn  Mn84  1  0.66777816  -0.00224551  0.17069378  1
  Mn  Mn85  1  0.66636876  -0.00178661  0.50387629  1
  Mn  Mn86  1  0.66730823  -0.00234821  0.83895067  1
  Mn  Mn87  1  0.66631228  0.50134565  0.16717843  1
  Mn  Mn88  1  0.66382165  0.50232630  0.50274044  1
  Mn  Mn89  1  0.66812136  0.50085232  0.83271889  1
  Mn  Mn90  1  0.00065514  0.24926134  0.16634145  1
  Mn  Mn91  1  -0.00066844  0.24910234  0.49787444  1
  Mn  Mn92  1  -0.00278390  0.25010716  0.83080006  1
  Mn  Mn93  1  0.00100740  0.75079430  0.16265996  1
  Mn  Mn94  1  -0.00070501  0.75059530  0.49946961  1
  Mn  Mn95  1  0.00084116  0.74950312  0.83073873  1
  Mn  Mn96  1  0.32936686  0.24956679  0.16652101  1
  Mn  Mn97  1  0.33359585  0.24926680  0.50024536  1
  Mn  Mn98  1  0.33505769  0.25064176  0.83323109  1
  Mn  Mn99  1  0.33393349  0.74974352  0.16575685  1
  Mn  Mn100  1  0.33526508  0.75137168  0.49975369  1
  Mn  Mn101  1  0.33360663  0.75004799  0.83489633  1
  Mn  Mn102  1  0.66628385  0.24800547  0.16655736  1
  Mn  Mn103  1  0.66267928  0.24799487  0.50319411  1
  Mn  Mn104  1  0.66697089  0.24817363  0.83345947  1
  Mn  Mn105  1  0.66834039  0.75174415  0.17040554  1
  Mn  Mn106  1  0.66731628  0.75189045  0.50221632  1
  Mn  Mn107  1  0.66938928  0.75386764  0.83532369  1
  Mn  Mn108  1  0.16683150  0.25121155  0.00173831  1
  Mn  Mn109  1  0.16655847  0.25031212  0.33173126  1
  Mn  Mn110  1  0.16469171  0.25022447  0.66647012  1
  Mn  Mn111  1  0.16539182  0.74820424  0.00138862  1
  Mn  Mn112  1  0.17044218  0.75023485  0.33393922  1
  Mn  Mn113  1  0.16504807  0.74896186  0.66757501  1
  Mn  Mn114  1  0.49794827  0.24937891  -0.00015741  1
  Mn  Mn115  1  0.49860618  0.25058419  0.33552266  1
  Mn  Mn116  1  0.50070591  0.24917132  0.66524322  1
  Mn  Mn117  1  0.50117225  0.75277616  0.00226866  1
  Mn  Mn118  1  0.50122300  0.75159408  0.33516050  1
  Mn  Mn119  1  0.50248973  0.75297925  0.66813173  1
  Mn  Mn120  1  0.83366818  0.24828427  -0.00094496  1
  Mn  Mn121  1  0.83195951  0.24810506  0.33356256  1
  Mn  Mn122  1  0.83253110  0.24806132  0.66763058  1
  Mn  Mn123  1  0.83586474  0.75295216  -0.00208479  1
  Mn  Mn124  1  0.83331289  0.75142894  0.33093613  1
  Mn  Mn125  1  0.83238783  0.75161828  0.66356816  1
  Mn  Mn126  1  0.16847658  -0.00153876  -0.00000618  1
  Mn  Mn127  1  0.16808174  -0.00172350  0.33495274  1
  Mn  Mn128  1  0.16419616  -0.00159241  0.66574341  1
  Mn  Mn129  1  0.16543440  0.50284322  0.00317623  1
  Mn  Mn130  1  0.16921996  0.50070284  0.33150601  1
  Mn  Mn131  1  0.16543049  0.50237007  0.66758813  1
  Mn  Mn132  1  0.50026324  -0.00290488  0.00148748  1
  Mn  Mn133  1  0.50081631  -0.00341388  0.33557884  1
  Mn  Mn134  1  0.50027190  -0.00171176  0.66951784  1
  Mn  Mn135  1  0.49846622  0.50134909  0.00127749  1
  Mn  Mn136  1  0.49875328  0.50181237  0.33533019  1
  Mn  Mn137  1  0.50171237  0.50042746  0.66435248  1
  Mn  Mn138  1  0.83257739  -0.00192867  -0.00175694  1
  Mn  Mn139  1  0.83234757  -0.00199006  0.33143085  1
  Mn  Mn140  1  0.83349313  -0.00077794  0.66427097  1
  Mn  Mn141  1  0.83596355  0.50172125  -0.00093680  1
  Mn  Mn142  1  0.83357734  0.50158681  0.33406900  1
  Mn  Mn143  1  0.83174472  0.50122841  0.66749130  1
  O  O144  1  0.17188087  0.12578205  0.02370357  1
  O  O145  1  0.16573096  0.11836348  0.36082983  1
  O  O146  1  0.15599510  0.12199527  0.67431882  1
  O  O147  1  0.15347285  0.62650159  0.02929101  1
  O  O148  1  0.17166077  0.62866984  0.35911274  1
  O  O149  1  0.15684222  0.62851717  0.69252003  1
  O  O150  1  0.48894581  0.12085430  0.00784736  1
  O  O151  1  0.50469009  0.12126101  0.35755100  1
  O  O152  1  0.50366046  0.12049859  0.69645098  1
  O  O153  1  0.49344018  0.62975099  0.02080431  1
  O  O154  1  0.49371231  0.62773280  0.36091313  1
  O  O155  1  0.50454689  0.63144301  0.69434339  1
  O  O156  1  0.83061934  0.11952369  0.01644956  1
  O  O157  1  0.82850442  0.11933912  0.35582614  1
  O  O158  1  0.83877075  0.12081236  0.69376014  1
  O  O159  1  0.84415565  0.63229329  0.02336899  1
  O  O160  1  0.82945885  0.62925366  0.35660779  1
  O  O161  1  0.83347595  0.63024178  0.69220333  1
  O  O162  1  0.17828704  0.37931450  0.30817004  1
  O  O163  1  0.16882915  0.37707178  0.65809251  1
  O  O164  1  0.17572562  0.37986093  0.98813190  1
  O  O165  1  0.17228165  0.87258120  0.31087454  1
  O  O166  1  0.17044033  0.87265158  0.64456083  1
  O  O167  1  0.16401804  0.86889297  0.97422514  1
  O  O168  1  0.49563545  0.37868594  0.32342144  1
  O  O169  1  0.51563671  0.37240512  0.64040342  1
  O  O170  1  0.49271816  0.37537945  0.99198688  1
  O  O171  1  0.50611912  0.87263360  0.31441652  1
  O  O172  1  0.50945461  0.87532015  0.64846917  1
  O  O173  1  0.51143616  0.87468177  0.97959888  1
  O  O174  1  0.83917890  0.37762363  0.32514006  1
  O  O175  1  0.82656219  0.37388710  0.65528384  1
  O  O176  1  0.84149639  0.37501448  0.98309130  1
  O  O177  1  0.82472949  0.87372308  0.31006330  1
  O  O178  1  0.82752841  0.87481862  0.63592915  1
  O  O179  1  0.82821440  0.87481847  0.97214418  1
  O  O180  1  0.00764271  0.37838037  0.19070071  1
  O  O181  1  -0.00336269  0.37645357  0.52342408  1
  O  O182  1  -0.00517583  0.38224064  0.85391782  1
  O  O183  1  0.00189546  0.87264014  0.18859511  1
  O  O184  1  -0.01021148  0.87448223  0.52403184  1
  O  O185  1  -0.00447938  0.87096176  0.85580778  1
  O  O186  1  0.32526987  0.38070761  0.18817665  1
  O  O187  1  0.34202204  0.37526073  0.52695119  1
  O  O188  1  0.33287963  0.38089564  0.85729217  1
  O  O189  1  0.32571429  0.87017717  0.18837895  1
  O  O190  1  0.32882730  0.87426090  0.52853889  1
  O  O191  1  0.32697298  0.87201357  0.85209763  1
  O  O192  1  0.66528404  0.37899731  0.17415779  1
  O  O193  1  0.65902158  0.37581523  0.52813694  1
  O  O194  1  0.67185635  0.37395949  0.83974785  1
  O  O195  1  0.67394045  0.87336170  0.19485941  1
  O  O196  1  0.67499609  0.87490067  0.52996532  1
  O  O197  1  0.67481316  0.87623275  0.86526997  1
  O  O198  1  0.00827914  0.12088885  0.15521613  1
  O  O199  1  0.01505200  0.11976891  0.48707192  1
  O  O200  1  -0.00737176  0.11787155  0.80595185  1
  O  O201  1  0.00131282  0.62836121  0.14071757  1
  O  O202  1  0.00115436  0.62770018  0.48690989  1
  O  O203  1  -0.00588975  0.62832755  0.80396246  1
  O  O204  1  0.32315334  0.12155579  0.14231805  1
  O  O205  1  0.33116836  0.12225348  0.49002719  1
  O  O206  1  0.34509093  0.11860324  0.82473555  1
  O  O207  1  0.32759391  0.62802608  0.13998773  1
  O  O208  1  0.33460969  0.62836431  0.47874298  1
  O  O209  1  0.33375579  0.62787207  0.82202848  1
  O  O210  1  0.66949407  0.11871766  0.14931407  1
  O  O211  1  0.66343349  0.11873565  0.47662086  1
  O  O212  1  0.66526959  0.11923311  0.81238067  1
  O  O213  1  0.66707810  0.62859990  0.15792711  1
  O  O214  1  0.66140547  0.63078557  0.47643116  1
  O  O215  1  0.66568179  0.63048498  0.81370475  1
  O  O216  1  0.08635159  0.00437815  0.25069339  1
  O  O217  1  0.07199923  0.00700755  0.59212469  1
  O  O218  1  0.08327623  0.00174008  0.91434187  1
  O  O219  1  0.09730047  0.51690376  0.23628661  1
  O  O220  1  0.08652718  0.52034843  0.57868158  1
  O  O221  1  0.08692650  0.52556397  0.91029246  1
  O  O222  1  0.41306420  -0.00065144  0.24864017  1
  O  O223  1  0.42148987  0.01171448  0.57752757  1
  O  O224  1  0.42819071  0.00269949  0.90663579  1
  O  O225  1  0.42060540  0.52697869  0.24265012  1
  O  O226  1  0.43003673  0.51576348  0.56883774  1
  O  O227  1  0.42293896  0.52453151  0.91125463  1
  O  O228  1  0.74680587  0.01842024  0.25605491  1
  O  O229  1  0.74827920  0.02689212  0.58679438  1
  O  O230  1  0.74749226  0.02411101  0.91908554  1
  O  O231  1  0.75243809  0.52057891  0.25138466  1
  O  O232  1  0.75086618  0.52430124  0.58237239  1
  O  O233  1  0.75933949  0.51584100  0.90849236  1
  O  O234  1  0.24615296  0.23075556  0.24669261  1
  O  O235  1  0.24737740  0.23849129  0.57976462  1
  O  O236  1  0.25883258  0.23748327  0.92933520  1
  O  O237  1  0.25809763  0.72743858  0.25588588  1
  O  O238  1  0.24136232  0.73447534  0.57891064  1
  O  O239  1  0.24985405  0.72600717  0.92430590  1
  O  O240  1  0.58626108  0.23521103  0.25997127  1
  O  O241  1  0.58551706  0.21837660  0.58729634  1
  O  O242  1  0.58520388  0.22880671  0.91604190  1
  O  O243  1  0.58687869  0.73002383  0.25918445  1
  O  O244  1  0.58827506  0.73091141  0.58926438  1
  O  O245  1  0.58170200  0.73780690  0.91446429  1
  O  O246  1  0.91866320  0.24337463  0.24828900  1
  O  O247  1  0.91293689  0.22607379  0.58215944  1
  O  O248  1  0.90997927  0.23427541  0.90737939  1
  O  O249  1  0.91241180  0.73744771  0.23743901  1
  O  O250  1  0.91125570  0.72860675  0.58030810  1
  O  O251  1  0.92076339  0.72869003  0.91358282  1
  O  O252  1  0.07676055  0.47601577  0.07398487  1
  O  O253  1  0.07922546  0.48306728  0.40214821  1
  O  O254  1  0.07051344  0.48737248  0.73963245  1
  O  O255  1  0.08431505  0.97816827  0.08373369  1
  O  O256  1  0.08721160  0.97142328  0.42299745  1
  O  O257  1  0.08476764  0.97263177  0.75106430  1
  O  O258  1  0.39852191  0.49049515  0.07241607  1
  O  O259  1  0.40634291  0.48211862  0.40739577  1
  O  O260  1  0.41261312  0.48040931  0.73339529  1
  O  O261  1  0.41204188  0.98469654  0.07652853  1
  O  O262  1  0.41494595  0.97897534  0.41487245  1
  O  O263  1  0.41375136  0.97161690  0.74679333  1
  O  O264  1  0.75612654  0.50070960  0.08278499  1
  O  O265  1  0.74407178  0.49949087  0.41913081  1
  O  O266  1  0.74470243  0.49212929  0.74312322  1
  O  O267  1  0.75048541  0.97610499  0.08632690  1
  O  O268  1  0.75124780  0.97865010  0.42188131  1
  O  O269  1  0.74981774  0.97825647  0.75548211  1
  O  O270  1  0.24361371  0.27173087  0.08941538  1
  O  O271  1  0.25199858  0.26425746  0.41319431  1
  O  O272  1  0.25258626  0.26080486  0.75036401  1
  O  O273  1  0.23979124  0.76533711  0.09076056  1
  O  O274  1  0.25196154  0.77288467  0.41805302  1
  O  O275  1  0.24769857  0.76785562  0.75141849  1
  O  O276  1  0.58112108  0.24833828  0.07996491  1
  O  O277  1  0.57273437  0.26113344  0.43022475  1
  O  O278  1  0.58879672  0.26024688  0.74448252  1
  O  O279  1  0.58512867  0.76764084  0.08815477  1
  O  O280  1  0.58450568  0.77094224  0.42249100  1
  O  O281  1  0.58483035  0.77394695  0.75594414  1
  O  O282  1  0.92223308  0.26152319  0.07682629  1
  O  O283  1  0.91701271  0.25741626  0.41673314  1
  O  O284  1  0.91816693  0.26858828  0.74223735  1
  O  O285  1  0.91816365  0.77825869  0.07566730  1
  O  O286  1  0.91734028  0.77250691  0.40941826  1
  O  O287  1  0.91542740  0.77449631  0.74385303  1
  O  O288  1  0.23778287  0.48925577  0.09701234  1
  O  O289  1  0.25050602  0.48953534  0.41576527  1
  O  O290  1  0.24750634  0.49460977  0.75371379  1
  O  O291  1  0.24497020  0.97744028  0.08716700  1
  O  O292  1  0.25342609  0.97376273  0.41474494  1
  O  O293  1  0.24915379  0.98040003  0.74916075  1
  O  O294  1  0.57557341  0.50165154  0.08945373  1
  O  O295  1  0.57139688  0.49002059  0.43143026  1
  O  O296  1  0.58658150  0.49064589  0.74569840  1
  O  O297  1  0.58603131  0.98150564  0.08645479  1
  O  O298  1  0.58526953  0.97817644  0.42413114  1
  O  O299  1  0.58199675  0.97566503  0.76269475  1
  O  O300  1  0.92324437  0.48898398  0.07480561  1
  O  O301  1  0.91727773  0.49061619  0.41400913  1
  O  O302  1  0.91344531  0.48446291  0.74886278  1
  O  O303  1  0.91950971  0.97607854  0.07485951  1
  O  O304  1  0.92054500  0.97706734  0.40920943  1
  O  O305  1  0.91979319  0.97096105  0.73996798  1
  O  O306  1  0.08171581  0.27273054  0.08084400  1
  O  O307  1  0.07819892  0.27000753  0.40535342  1
  O  O308  1  0.07358167  0.26201059  0.74169615  1
  O  O309  1  0.08012770  0.77609514  0.07775905  1
  O  O310  1  0.08697636  0.77297073  0.41839015  1
  O  O311  1  0.08472780  0.77659890  0.75158168  1
  O  O312  1  0.40161927  0.25917038  0.07323358  1
  O  O313  1  0.41189665  0.27051456  0.41480062  1
  O  O314  1  0.41246814  0.27090264  0.73580877  1
  O  O315  1  0.41238222  0.76447899  0.07986390  1
  O  O316  1  0.41166700  0.77023593  0.40825186  1
  O  O317  1  0.41699351  0.77419784  0.74703673  1
  O  O318  1  0.74963196  0.25127576  0.07922381  1
  O  O319  1  0.74453044  0.25115672  0.42052645  1
  O  O320  1  0.74877953  0.25492978  0.74852637  1
  O  O321  1  0.75179630  0.77139246  0.08161084  1
  O  O322  1  0.74759992  0.77097938  0.41777943  1
  O  O323  1  0.74891400  0.77437358  0.74516916  1
  O  O324  1  0.24374175  0.01231250  0.24488125  1
  O  O325  1  0.23735208  0.01063408  0.57431912  1
  O  O326  1  0.25862725  0.01248294  0.92311745  1
  O  O327  1  0.25893895  0.52829440  0.25654328  1
  O  O328  1  0.25076620  0.51491526  0.58122243  1
  O  O329  1  0.25212739  0.52590507  0.93016096  1
  O  O330  1  0.59047921  0.01131389  0.26109076  1
  O  O331  1  0.58678702  0.02071299  0.59124089  1
  O  O332  1  0.58885483  0.02124691  0.92367212  1
  O  O333  1  0.58536362  0.52327857  0.26068932  1
  O  O334  1  0.58798185  0.52932553  0.58856852  1
  O  O335  1  0.58369671  0.51536937  0.91194481  1
  O  O336  1  0.91119864  0.00338618  0.24000876  1
  O  O337  1  0.91182844  0.02374727  0.57164751  1
  O  O338  1  0.90793297  0.00882468  0.90131350  1
  O  O339  1  0.91632864  0.51632756  0.24196650  1
  O  O340  1  0.91475944  0.51939732  0.58649011  1
  O  O341  1  0.92063968  0.52614879  0.91526473  1
  O  O342  1  0.09137777  0.23741068  0.24031308  1
  O  O343  1  0.08074161  0.23564498  0.58014273  1
  O  O344  1  0.08094363  0.24662272  0.91821266  1
  O  O345  1  0.09379815  0.73919715  0.24284814  1
  O  O346  1  0.07884446  0.73625796  0.58980412  1
  O  O347  1  0.08686423  0.72589048  0.91396101  1
  O  O348  1  0.41239874  0.24543414  0.24934064  1
  O  O349  1  0.42824036  0.23338963  0.57311902  1
  O  O350  1  0.42219271  0.23346326  0.90980815  1
  O  O351  1  0.42068880  0.73041156  0.24608476  1
  O  O352  1  0.42358914  0.73801719  0.57619339  1
  O  O353  1  0.42202176  0.73652913  0.91240268  1
  O  O354  1  0.74905215  0.23300648  0.25402137  1
  O  O355  1  0.74780587  0.22531734  0.58674940  1
  O  O356  1  0.74874989  0.22772797  0.91632233  1
  O  O357  1  0.75289959  0.72648279  0.24988705  1
  O  O358  1  0.75183758  0.72291624  0.58087787  1
  O  O359  1  0.76122590  0.73375575  0.90678102  1
