# generated using pymatgen
data_Ba17Sr5La8Pr42Mn72O216
_symmetry_space_group_name_H-M   'P 1'
_cell_length_a   16.67694319
_cell_length_b   15.70555809
_cell_length_c   16.82241615
_cell_angle_alpha   90.00582299
_cell_angle_beta   90.01972531
_cell_angle_gamma   90.02138975
_symmetry_Int_Tables_number   1
_chemical_formula_structural   Ba17Sr5La8Pr42Mn72O216
_chemical_formula_sum   'Ba17 Sr5 La8 Pr42 Mn72 O216'
_cell_volume   4406.13842610
_cell_formula_units_Z   1
loop_
 _symmetry_equiv_pos_site_id
 _symmetry_equiv_pos_as_xyz
  1  'x, y, z'
loop_
 _atom_site_type_symbol
 _atom_site_label
 _atom_site_symmetry_multiplicity
 _atom_site_fract_x
 _atom_site_fract_y
 _atom_site_fract_z
 _atom_site_occupancy
  Ba  Ba0  1  0.16522246  0.62366141  0.83269005  1
  Ba  Ba1  1  0.49937284  0.37645657  0.16836377  1
  Ba  Ba2  1  0.00120496  0.12476171  0.33213290  1
  Ba  Ba3  1  0.83182074  0.87351167  0.49951583  1
  Ba  Ba4  1  0.83520449  0.37535393  0.16394566  1
  Ba  Ba5  1  0.33372717  0.62502728  0.66691779  1
  Ba  Ba6  1  0.16523143  0.37349388  0.83059921  1
  Ba  Ba7  1  0.66893944  0.87510346  0.00443834  1
  Ba  Ba8  1  0.33175504  0.37480065  0.66448827  1
  Ba  Ba9  1  -0.00158632  0.62341060  0.66474786  1
  Ba  Ba10  1  0.16514545  0.87621331  0.16539814  1
  Ba  Ba11  1  0.66806780  0.12617240  0.66653586  1
  Ba  Ba12  1  0.33005513  0.87595566  0.00132626  1
  Ba  Ba13  1  0.66587239  0.87311401  0.33755343  1
  Ba  Ba14  1  0.33385397  0.62654196  0.99893159  1
  Ba  Ba15  1  0.49740638  0.37369862  0.49850153  1
  Ba  Ba16  1  0.33700901  0.12450405  1.00079046  1
  Sr  Sr17  1  0.00230855  0.12691494  0.65931279  1
  Sr  Sr18  1  0.50667022  0.12613293  0.50299671  1
  Sr  Sr19  1  0.00124165  0.37174624  0.66573641  1
  Sr  Sr20  1  0.16998561  0.12297732  0.50053803  1
  Sr  Sr21  1  0.82900666  0.87385675  0.83007478  1
  La  La22  1  0.16887722  0.62559073  0.50662213  1
  La  La23  1  0.83235855  0.62553261  0.16416438  1
  La  La24  1  0.83313954  0.37521399  0.82892699  1
  La  La25  1  0.83649483  0.12157125  0.83082221  1
  La  La26  1  -0.00093136  0.62360479  0.99242211  1
  La  La27  1  0.66832969  0.62615348  0.67060072  1
  La  La28  1  0.16468130  0.37090429  0.16581295  1
  La  La29  1  0.33604838  0.12751869  0.66367513  1
  Pr  Pr30  1  0.16509617  0.87495955  0.83372565  1
  Pr  Pr31  1  0.66604514  0.37805598  0.33894827  1
  Pr  Pr32  1  0.83730870  0.87595765  0.16400922  1
  Pr  Pr33  1  -0.00075490  0.87849215  0.66801903  1
  Pr  Pr34  1  0.16150412  0.37549852  0.50209921  1
  Pr  Pr35  1  0.33916611  0.62345695  0.33054728  1
  Pr  Pr36  1  0.50442628  0.63044862  0.16812933  1
  Pr  Pr37  1  0.32539710  0.37713439  0.00106360  1
  Pr  Pr38  1  0.17813494  0.12266708  0.17263415  1
  Pr  Pr39  1  0.83258495  0.62758046  0.83681363  1
  Pr  Pr40  1  0.66516839  0.62139162  1.00033339  1
  Pr  Pr41  1  0.49633252  0.87749257  0.50089512  1
  Pr  Pr42  1  -0.00043871  0.87368391  -0.00081000  1
  Pr  Pr43  1  0.50655102  0.62512531  0.50549200  1
  Pr  Pr44  1  0.17007449  0.12946797  0.83191802  1
  Pr  Pr45  1  0.32473722  0.87623407  0.66903385  1
  Pr  Pr46  1  -0.00099934  0.87721823  0.33486416  1
  Pr  Pr47  1  0.49224966  0.87631271  0.83306767  1
  Pr  Pr48  1  0.00485440  0.37523634  -0.00245301  1
  Pr  Pr49  1  0.32302659  0.37313564  0.34063780  1
  Pr  Pr50  1  0.66199584  0.37366214  0.67033341  1
  Pr  Pr51  1  0.67100578  0.12661231  0.33811189  1
  Pr  Pr52  1  0.50640185  0.12669073  0.83563329  1
  Pr  Pr53  1  0.83099265  0.62577243  0.50092547  1
  Pr  Pr54  1  0.49457000  0.87458636  0.16436452  1
  Pr  Pr55  1  0.15886008  0.87476345  0.49849630  1
  Pr  Pr56  1  0.17205774  0.62684425  0.16784169  1
  Pr  Pr57  1  0.32756390  0.87729803  0.33565171  1
  Pr  Pr58  1  0.83446783  0.37452493  0.49822546  1
  Pr  Pr59  1  0.51039959  0.12025855  0.16995905  1
  Pr  Pr60  1  0.83407912  0.12378716  0.16833609  1
  Pr  Pr61  1  -0.00090031  0.62661099  0.32922094  1
  Pr  Pr62  1  0.83628432  0.12164351  0.50540371  1
  Pr  Pr63  1  0.66190740  0.87797695  0.67450045  1
  Pr  Pr64  1  0.66611087  0.37424320  0.00622299  1
  Pr  Pr65  1  0.49918082  0.62363822  0.83792616  1
  Pr  Pr66  1  0.66542131  0.62422286  0.33581717  1
  Pr  Pr67  1  0.00077921  0.12650350  0.99754653  1
  Pr  Pr68  1  0.34242941  0.12614514  0.32986368  1
  Pr  Pr69  1  -0.00088110  0.37281062  0.33549378  1
  Pr  Pr70  1  0.49293970  0.37466617  0.83099004  1
  Pr  Pr71  1  0.67191369  0.12805803  0.99862053  1
  Mn  Mn72  1  0.00012373  0.00111744  0.16374249  1
  Mn  Mn73  1  -0.00014653  0.00016555  0.50038463  1
  Mn  Mn74  1  -0.00021993  0.00197732  0.83121256  1
  Mn  Mn75  1  0.00173374  0.50082471  0.16444899  1
  Mn  Mn76  1  -0.00073187  0.49904756  0.49607654  1
  Mn  Mn77  1  -0.00334681  0.49786172  0.82976388  1
  Mn  Mn78  1  0.33620447  0.00117357  0.16824120  1
  Mn  Mn79  1  0.33442551  0.00029740  0.50094824  1
  Mn  Mn80  1  0.33301783  0.00036713  0.83102915  1
  Mn  Mn81  1  0.33399336  0.49943839  0.16833972  1
  Mn  Mn82  1  0.33138723  0.50038145  0.49655948  1
  Mn  Mn83  1  0.33327142  0.50031844  0.83418616  1
  Mn  Mn84  1  0.66981150  -0.00029659  0.17047856  1
  Mn  Mn85  1  0.66642963  -0.00056273  0.50277873  1
  Mn  Mn86  1  0.66572485  0.00017837  0.83642798  1
  Mn  Mn87  1  0.66683401  0.50114339  0.16862682  1
  Mn  Mn88  1  0.66764544  0.50085640  0.50328068  1
  Mn  Mn89  1  0.66654747  0.49866719  0.83611906  1
  Mn  Mn90  1  0.00024732  0.24992868  0.16483845  1
  Mn  Mn91  1  0.00024099  0.25025213  0.49949821  1
  Mn  Mn92  1  -0.00199655  0.24646867  0.82892473  1
  Mn  Mn93  1  0.00056090  0.74754349  0.16373457  1
  Mn  Mn94  1  -0.00107153  0.74895599  0.49705702  1
  Mn  Mn95  1  -0.00250512  0.75305484  0.83198143  1
  Mn  Mn96  1  0.33664472  0.25166114  0.16819216  1
  Mn  Mn97  1  0.33134037  0.24698351  0.49807594  1
  Mn  Mn98  1  0.33500423  0.24762872  0.83300541  1
  Mn  Mn99  1  0.33355987  0.74785894  0.16848909  1
  Mn  Mn100  1  0.33393480  0.75280034  0.49912422  1
  Mn  Mn101  1  0.33263661  0.75187757  0.83283971  1
  Mn  Mn102  1  0.66804451  0.24937948  0.16799291  1
  Mn  Mn103  1  0.66855569  0.25174057  0.50087165  1
  Mn  Mn104  1  0.66798860  0.25122869  0.83624180  1
  Mn  Mn105  1  0.66866524  0.74943576  0.16994023  1
  Mn  Mn106  1  0.66554125  0.74894957  0.50427422  1
  Mn  Mn107  1  0.66393550  0.75007200  0.83577325  1
  Mn  Mn108  1  0.16573853  0.24796161  0.00142198  1
  Mn  Mn109  1  0.16739992  0.24825717  0.33325046  1
  Mn  Mn110  1  0.16588456  0.24714332  0.66452887  1
  Mn  Mn111  1  0.16372515  0.75078458  -0.00022301  1
  Mn  Mn112  1  0.16630816  0.74955416  0.33576540  1
  Mn  Mn113  1  0.16527097  0.75173037  0.66480688  1
  Mn  Mn114  1  0.50201833  0.25101487  0.00099310  1
  Mn  Mn115  1  0.50185879  0.24909135  0.33282397  1
  Mn  Mn116  1  0.50041498  0.25061312  0.66735626  1
  Mn  Mn117  1  0.50184782  0.75057898  0.00158770  1
  Mn  Mn118  1  0.49823770  0.75079586  0.33664992  1
  Mn  Mn119  1  0.49944683  0.75037032  0.66760841  1
  Mn  Mn120  1  0.83521854  0.24937181  -0.00308368  1
  Mn  Mn121  1  0.83272973  0.25151908  0.33369348  1
  Mn  Mn122  1  0.83356957  0.25180117  0.66461696  1
  Mn  Mn123  1  0.83403145  0.75069787  -0.00031772  1
  Mn  Mn124  1  0.83435027  0.74670298  0.33142182  1
  Mn  Mn125  1  0.83121592  0.74997253  0.66743516  1
  Mn  Mn126  1  0.16384643  0.00438748  -0.00136283  1
  Mn  Mn127  1  0.16827674  -0.00007218  0.33537463  1
  Mn  Mn128  1  0.16584914  0.00042647  0.66572971  1
  Mn  Mn129  1  0.16519695  0.49830362  0.00265755  1
  Mn  Mn130  1  0.16505079  0.50286484  0.33362706  1
  Mn  Mn131  1  0.16543074  0.49979916  0.66526945  1
  Mn  Mn132  1  0.50287798  0.00086908  0.00187914  1
  Mn  Mn133  1  0.50116281  -0.00014424  0.33576239  1
  Mn  Mn134  1  0.49868621  -0.00031643  0.66596824  1
  Mn  Mn135  1  0.50062581  0.49762951  -0.00005371  1
  Mn  Mn136  1  0.49924972  0.50119266  0.33356454  1
  Mn  Mn137  1  0.50036255  0.50057128  0.66913042  1
  Mn  Mn138  1  0.83566909  0.00032700  0.00021701  1
  Mn  Mn139  1  0.83289726  0.00090265  0.33322330  1
  Mn  Mn140  1  0.83267781  -0.00202343  0.66775536  1
  Mn  Mn141  1  0.83376563  0.49889606  -0.00350241  1
  Mn  Mn142  1  0.83447834  0.50081812  0.33283398  1
  Mn  Mn143  1  0.83135614  0.49958865  0.66553000  1
  O  O144  1  0.15769473  0.12782057  0.02773394  1
  O  O145  1  0.17584691  0.12221181  0.34988093  1
  O  O146  1  0.16737316  0.11964542  0.68749277  1
  O  O147  1  0.15673606  0.61928120  0.02128123  1
  O  O148  1  0.16286690  0.62613396  0.36323739  1
  O  O149  1  0.16602851  0.62902824  0.67154791  1
  O  O150  1  0.50738094  0.12694809  0.02536527  1
  O  O151  1  0.49745582  0.12433468  0.35429881  1
  O  O152  1  0.49619375  0.12431417  0.69063989  1
  O  O153  1  0.50605095  0.62339403  0.02347293  1
  O  O154  1  0.49394992  0.62699113  0.36256998  1
  O  O155  1  0.50627302  0.62669034  0.69364996  1
  O  O156  1  0.83786319  0.12470591  0.02470970  1
  O  O157  1  0.82936345  0.13206967  0.36060324  1
  O  O158  1  0.83767854  0.12448704  0.68541112  1
  O  O159  1  0.84365369  0.62539930  0.01914022  1
  O  O160  1  0.84430331  0.62224328  0.35781261  1
  O  O161  1  0.83004156  0.62363122  0.69335429  1
  O  O162  1  0.16819241  0.37869921  0.30806284  1
  O  O163  1  0.16358150  0.37328840  0.64734297  1
  O  O164  1  0.16771787  0.37141923  0.98941970  1
  O  O165  1  0.16340997  0.87438258  0.31965598  1
  O  O166  1  0.16563246  0.87663412  0.64320666  1
  O  O167  1  0.15655325  0.88313595  0.97847303  1
  O  O168  1  0.50847478  0.37513949  0.32343189  1
  O  O169  1  0.50549216  0.37628310  0.65751892  1
  O  O170  1  0.51214416  0.37421152  0.97516572  1
  O  O171  1  0.49609067  0.87435575  0.30779528  1
  O  O172  1  0.50338167  0.87246164  0.64361490  1
  O  O173  1  0.50257183  0.87568985  0.98076335  1
  O  O174  1  0.82805486  0.37750147  0.31852741  1
  O  O175  1  0.82182718  0.37835587  0.64188759  1
  O  O176  1  0.82431377  0.37383634  0.97377295  1
  O  O177  1  0.83733954  0.86877240  0.30802107  1
  O  O178  1  0.82066433  0.87253032  0.65587422  1
  O  O179  1  0.83776086  0.87641547  0.98051554  1
  O  O180  1  0.00724282  0.37618223  0.19265527  1
  O  O181  1  0.00152958  0.37560570  0.51513154  1
  O  O182  1  -0.00796758  0.37028758  0.85439988  1
  O  O183  1  -0.00484062  0.87182327  0.19177999  1
  O  O184  1  0.00445170  0.87443904  0.52045508  1
  O  O185  1  0.00675442  0.88030613  0.85667786  1
  O  O186  1  0.32928830  0.37637163  0.19522589  1
  O  O187  1  0.32858829  0.37264746  0.50651296  1
  O  O188  1  0.34136905  0.37266653  0.85541955  1
  O  O189  1  0.34238606  0.87367396  0.18979188  1
  O  O190  1  0.34625052  0.87727339  0.52698336  1
  O  O191  1  0.33637149  0.87764218  0.84478258  1
  O  O192  1  0.66886858  0.37710437  0.19432608  1
  O  O193  1  0.67628615  0.37930492  0.52433408  1
  O  O194  1  0.67491382  0.37562682  0.86459074  1
  O  O195  1  0.68047798  0.87355416  0.18294404  1
  O  O196  1  0.66262484  0.86923669  0.52635863  1
  O  O197  1  0.66238963  0.87466432  0.84818808  1
  O  O198  1  -0.01023720  0.12524137  0.14246445  1
  O  O199  1  -0.01028323  0.12520692  0.48910181  1
  O  O200  1  -0.00872459  0.12249767  0.80717591  1
  O  O201  1  -0.00005268  0.62493871  0.13660811  1
  O  O202  1  0.00019469  0.62328470  0.47339262  1
  O  O203  1  -0.01042659  0.62555039  0.82306790  1
  O  O204  1  0.32940020  0.12656494  0.15894211  1
  O  O205  1  0.32882500  0.12177052  0.47328359  1
  O  O206  1  0.33258960  0.12154977  0.81087798  1
  O  O207  1  0.32979218  0.62394718  0.15562827  1
  O  O208  1  0.32441752  0.62861422  0.47432099  1
  O  O209  1  0.34075226  0.62769440  0.82582063  1
  O  O210  1  0.66470338  0.12369093  0.14332263  1
  O  O211  1  0.66882003  0.12875142  0.48248566  1
  O  O212  1  0.66115449  0.12677793  0.82155446  1
  O  O213  1  0.66187346  0.62529056  0.14523456  1
  O  O214  1  0.65989931  0.62409395  0.48019105  1
  O  O215  1  0.66177738  0.62296919  0.81226660  1
  O  O216  1  0.08919090  0.01788005  0.23788382  1
  O  O217  1  0.08862768  0.01011541  0.57910190  1
  O  O218  1  0.08373177  0.02984304  0.90950202  1
  O  O219  1  0.08711881  0.52790576  0.25099597  1
  O  O220  1  0.08619257  0.51121968  0.57071652  1
  O  O221  1  0.07217214  0.50599596  0.92459556  1
  O  O222  1  0.42505344  0.02036651  0.24731630  1
  O  O223  1  0.42154613  0.02039733  0.57771775  1
  O  O224  1  0.42649673  0.01342371  0.90259572  1
  O  O225  1  0.42217324  0.52351975  0.24487323  1
  O  O226  1  0.42007210  0.51717808  0.57024416  1
  O  O227  1  0.42692374  0.50988009  0.91050239  1
  O  O228  1  0.75134394  0.02682680  0.25134294  1
  O  O229  1  0.75720253  0.01520540  0.57932991  1
  O  O230  1  0.75416038  0.02213216  0.91938888  1
  O  O231  1  0.74906026  0.52528681  0.25513155  1
  O  O232  1  0.74851742  0.52808259  0.58514784  1
  O  O233  1  0.74901941  0.52718145  0.91638007  1
  O  O234  1  0.25981448  0.23478205  0.26034264  1
  O  O235  1  0.25354242  0.22884921  0.58507363  1
  O  O236  1  0.24860512  0.23438026  0.91663103  1
  O  O237  1  0.25277434  0.73083743  0.25785179  1
  O  O238  1  0.25215413  0.74588794  0.58067627  1
  O  O239  1  0.24344320  0.74917659  0.91564875  1
  O  O240  1  0.58780030  0.22624105  0.25293851  1
  O  O241  1  0.58834317  0.24662397  0.58634639  1
  O  O242  1  0.59094697  0.23106312  0.92454560  1
  O  O243  1  0.58433241  0.72728933  0.25999104  1
  O  O244  1  0.58819349  0.72730008  0.59269231  1
  O  O245  1  0.58641393  0.72579486  0.92127484  1
  O  O246  1  0.91455108  0.23787979  0.24594913  1
  O  O247  1  0.91627823  0.24058032  0.58171397  1
  O  O248  1  0.91632233  0.22580638  0.91281400  1
  O  O249  1  0.91663227  0.72402930  0.24241440  1
  O  O250  1  0.91243770  0.73401815  0.57255080  1
  O  O251  1  0.91168653  0.73599729  0.91334505  1
  O  O252  1  0.08486022  0.47562532  0.08651993  1
  O  O253  1  0.08047218  0.47584259  0.40994912  1
  O  O254  1  0.07719946  0.48981602  0.74867952  1
  O  O255  1  0.07162023  0.98841210  0.07109595  1
  O  O256  1  0.08016754  0.98141519  0.41480841  1
  O  O257  1  0.08103760  0.97756547  0.74700477  1
  O  O258  1  0.41105190  0.48044739  0.07217154  1
  O  O259  1  0.40422522  0.48819187  0.40205531  1
  O  O260  1  0.42135828  0.48889910  0.75393297  1
  O  O261  1  0.42046485  0.98773731  0.08731241  1
  O  O262  1  0.41034175  0.97864934  0.40985876  1
  O  O263  1  0.40980026  0.97955706  0.73944280  1
  O  O264  1  0.75023099  0.49189841  0.07680847  1
  O  O265  1  0.75309334  0.48731071  0.42207854  1
  O  O266  1  0.74569160  0.47979851  0.75176929  1
  O  O267  1  0.75881180  0.99128139  0.09157229  1
  O  O268  1  0.74655048  0.99562580  0.41534454  1
  O  O269  1  0.74399442  0.98715486  0.75003354  1
  O  O270  1  0.24780725  0.26662660  0.09176700  1
  O  O271  1  0.24046614  0.27111729  0.42098696  1
  O  O272  1  0.24901918  0.25090222  0.75014898  1
  O  O273  1  0.24586365  0.75309956  0.08958407  1
  O  O274  1  0.24843142  0.77643092  0.42192265  1
  O  O275  1  0.24628339  0.77184274  0.74972936  1
  O  O276  1  0.58644741  0.26619501  0.08372739  1
  O  O277  1  0.59007605  0.26205350  0.41236635  1
  O  O278  1  0.58311817  0.27097824  0.76097247  1
  O  O279  1  0.57843711  0.76458188  0.09593363  1
  O  O280  1  0.57128750  0.76338433  0.43048249  1
  O  O281  1  0.57613633  0.77209844  0.75465286  1
  O  O282  1  0.92083920  0.26839345  0.07008669  1
  O  O283  1  0.91462435  0.27308838  0.41625156  1
  O  O284  1  0.90859065  0.26865204  0.75178367  1
  O  O285  1  0.91805106  0.77213825  0.08170714  1
  O  O286  1  0.92467696  0.76408187  0.40395212  1
  O  O287  1  0.91906958  0.77192412  0.74576676  1
  O  O288  1  0.24663173  0.48105282  0.09036208  1
  O  O289  1  0.24245427  0.47938677  0.41767095  1
  O  O290  1  0.25176097  0.49394738  0.75277371  1
  O  O291  1  0.24628864  0.99750684  0.08889951  1
  O  O292  1  0.24829635  0.97325355  0.42666091  1
  O  O293  1  0.24390589  0.97846979  0.75286342  1
  O  O294  1  0.58827812  0.48519606  0.07915644  1
  O  O295  1  0.58927999  0.48970359  0.41419268  1
  O  O296  1  0.58588367  0.47616336  0.75871080  1
  O  O297  1  0.57937452  0.98377831  0.10006017  1
  O  O298  1  0.57381085  0.98485167  0.42617048  1
  O  O299  1  0.57367426  0.98132828  0.75602896  1
  O  O300  1  0.92388260  0.48187537  0.06703733  1
  O  O301  1  0.91978865  0.47701450  0.41016163  1
  O  O302  1  0.91224575  0.47825915  0.74624202  1
  O  O303  1  0.91739449  0.97562411  0.08241939  1
  O  O304  1  0.91895321  0.98400016  0.40996807  1
  O  O305  1  0.91557952  0.97763709  0.75021999  1
  O  O306  1  0.07952108  0.26962851  0.07882498  1
  O  O307  1  0.07918564  0.26975008  0.40884052  1
  O  O308  1  0.07861049  0.25454127  0.74605705  1
  O  O309  1  0.07678685  0.76614561  0.07822791  1
  O  O310  1  0.08093505  0.77107012  0.41383118  1
  O  O311  1  0.08157088  0.77350556  0.74902074  1
  O  O312  1  0.41002655  0.27068692  0.07216523  1
  O  O313  1  0.40474171  0.26016438  0.40213984  1
  O  O314  1  0.41902898  0.26086899  0.75248540  1
  O  O315  1  0.42094780  0.76128891  0.08851255  1
  O  O316  1  0.40949941  0.77453815  0.41024930  1
  O  O317  1  0.41310329  0.77251271  0.74209574  1
  O  O318  1  0.74573033  0.26073003  0.07658031  1
  O  O319  1  0.74746738  0.27453031  0.41462493  1
  O  O320  1  0.74554624  0.27141452  0.74710157  1
  O  O321  1  0.75966650  0.75580938  0.08869083  1
  O  O322  1  0.74820730  0.74808328  0.41775914  1
  O  O323  1  0.74014084  0.76023515  0.74988427  1
  O  O324  1  0.26061454  0.01204331  0.25874236  1
  O  O325  1  0.25983828  0.01355086  0.59276363  1
  O  O326  1  0.24412683  0.01629703  0.91135533  1
  O  O327  1  0.25047975  0.52450204  0.25828842  1
  O  O328  1  0.24720940  0.51000911  0.57525873  1
  O  O329  1  0.25236632  0.50224483  0.92376851  1
  O  O330  1  0.58996044  0.02164965  0.25926600  1
  O  O331  1  0.58592077  0.00580741  0.59002946  1
  O  O332  1  0.58831320  0.02251722  0.92381757  1
  O  O333  1  0.58199723  0.52542903  0.25460692  1
  O  O334  1  0.58590162  0.51894122  0.58865663  1
  O  O335  1  0.58621401  0.52198946  0.91921745  1
  O  O336  1  0.91112066  0.01253010  0.24147626  1
  O  O337  1  0.91959920  0.00782763  0.58518263  1
  O  O338  1  0.92016957  0.02193970  0.91834967  1
  O  O339  1  0.91826436  0.52135571  0.24419250  1
  O  O340  1  0.90858849  0.51185006  0.56960898  1
  O  O341  1  0.90676571  0.51353092  0.90685763  1
  O  O342  1  0.09751441  0.23402058  0.24068553  1
  O  O343  1  0.08871076  0.23892590  0.57403731  1
  O  O344  1  0.08107061  0.22800316  0.91330061  1
  O  O345  1  0.08333031  0.72473998  0.24643179  1
  O  O346  1  0.08681278  0.73957641  0.57483956  1
  O  O347  1  0.07367739  0.73923958  0.91898834  1
  O  O348  1  0.42614413  0.22883841  0.24232089  1
  O  O349  1  0.41507921  0.23171580  0.57888061  1
  O  O350  1  0.42958957  0.23453790  0.90902699  1
  O  O351  1  0.42055182  0.72726308  0.24943689  1
  O  O352  1  0.42806457  0.73275767  0.57107248  1
  O  O353  1  0.42717694  0.74152197  0.90801402  1
  O  O354  1  0.75114309  0.22585135  0.24980699  1
  O  O355  1  0.76026154  0.23511393  0.57323045  1
  O  O356  1  0.75548356  0.22507887  0.91265422  1
  O  O357  1  0.75078701  0.72106720  0.25259006  1
  O  O358  1  0.74984259  0.72453177  0.58347370  1
  O  O359  1  0.74930182  0.72643888  0.91922982  1
