# generated using pymatgen
data_Ba17Sr5La8Pr42Mn72O216
_symmetry_space_group_name_H-M   'P 1'
_cell_length_a   16.67758865
_cell_length_b   15.70425992
_cell_length_c   16.82722923
_cell_angle_alpha   90.00965878
_cell_angle_beta   89.96951528
_cell_angle_gamma   89.99429500
_symmetry_Int_Tables_number   1
_chemical_formula_structural   Ba17Sr5La8Pr42Mn72O216
_chemical_formula_sum   'Ba17 Sr5 La8 Pr42 Mn72 O216'
_cell_volume   4407.20521726
_cell_formula_units_Z   1
loop_
 _symmetry_equiv_pos_site_id
 _symmetry_equiv_pos_as_xyz
  1  'x, y, z'
loop_
 _atom_site_type_symbol
 _atom_site_label
 _atom_site_symmetry_multiplicity
 _atom_site_fract_x
 _atom_site_fract_y
 _atom_site_fract_z
 _atom_site_occupancy
  Ba  Ba0  1  -0.00310099  0.62468467  0.33093226  1
  Ba  Ba1  1  0.33289284  0.12564407  0.33503558  1
  Ba  Ba2  1  0.49680547  0.62500108  0.49919488  1
  Ba  Ba3  1  0.50314674  0.87609872  0.83476676  1
  Ba  Ba4  1  0.16898050  0.12552686  0.83534818  1
  Ba  Ba5  1  0.83294674  0.87697024  0.50026991  1
  Ba  Ba6  1  0.66801451  0.87600332  0.66982119  1
  Ba  Ba7  1  0.16520104  0.62654666  0.16967177  1
  Ba  Ba8  1  0.32974523  0.37300883  0.33450546  1
  Ba  Ba9  1  0.82979523  0.62305054  0.83324628  1
  Ba  Ba10  1  0.66700949  0.87565902  0.33350417  1
  Ba  Ba11  1  0.16471447  0.37507358  0.50036896  1
  Ba  Ba12  1  0.83436918  0.37454311  0.83187398  1
  Ba  Ba13  1  0.66273191  0.62449156  0.33297086  1
  Ba  Ba14  1  0.33697869  0.87627481  0.00002292  1
  Ba  Ba15  1  0.32931597  0.62364968  0.33441243  1
  Ba  Ba16  1  0.83435095  0.12590648  0.49921739  1
  Sr  Sr17  1  0.83591888  0.87637098  0.82800958  1
  Sr  Sr18  1  0.83421150  0.12504069  0.83249545  1
  Sr  Sr19  1  0.66766594  0.37467067  0.33611900  1
  Sr  Sr20  1  0.83310915  0.37443782  0.49698563  1
  Sr  Sr21  1  -0.00154272  0.12585259  0.33406196  1
  La  La22  1  0.49751310  0.37473011  0.49322245  1
  La  La23  1  0.33221383  0.37223234  0.00464846  1
  La  La24  1  0.00166534  0.37395067  -0.00221668  1
  La  La25  1  0.34043226  0.12454715  0.99832734  1
  La  La26  1  0.00004170  0.87613069  0.67000346  1
  La  La27  1  0.32960459  0.62747672  0.66170002  1
  La  La28  1  0.33299005  0.87443335  0.33199161  1
  La  La29  1  0.83315563  0.12656541  0.16995209  1
  Pr  Pr30  1  0.66470942  0.62579207  0.66316991  1
  Pr  Pr31  1  -0.00235344  0.37222312  0.66701555  1
  Pr  Pr32  1  0.67372801  0.12442694  0.66726515  1
  Pr  Pr33  1  0.50019307  0.87606987  0.49860226  1
  Pr  Pr34  1  0.82124665  0.62482387  0.50024173  1
  Pr  Pr35  1  0.16800358  0.12278033  0.17114708  1
  Pr  Pr36  1  0.00557526  0.87598958  -0.00319342  1
  Pr  Pr37  1  0.16840843  0.12799142  0.50577604  1
  Pr  Pr38  1  0.49949977  0.37130461  0.83121869  1
  Pr  Pr39  1  -0.00459729  0.62447815  0.99733320  1
  Pr  Pr40  1  0.16796715  0.87351318  0.16813216  1
  Pr  Pr41  1  0.34064178  0.12260156  0.66355182  1
  Pr  Pr42  1  0.84230186  0.87566219  0.16617564  1
  Pr  Pr43  1  0.49798338  0.62759856  0.83198855  1
  Pr  Pr44  1  0.66776989  0.12677810  0.99625066  1
  Pr  Pr45  1  0.67587413  0.87469843  0.00223455  1
  Pr  Pr46  1  0.50587250  0.87416279  0.16165882  1
  Pr  Pr47  1  0.16721472  0.37470984  0.82936393  1
  Pr  Pr48  1  0.16356049  0.37649342  0.17163944  1
  Pr  Pr49  1  0.00027812  0.12585423  0.66317507  1
  Pr  Pr50  1  -0.01102962  0.62265779  0.66079822  1
  Pr  Pr51  1  0.33842176  0.87417936  0.67356050  1
  Pr  Pr52  1  0.67175149  0.12529137  0.33360244  1
  Pr  Pr53  1  0.16208490  0.62133375  0.49973527  1
  Pr  Pr54  1  0.82795555  0.62427937  0.17032563  1
  Pr  Pr55  1  0.84004127  0.37583069  0.16571321  1
  Pr  Pr56  1  0.66391051  0.37364988  0.66608965  1
  Pr  Pr57  1  -0.00036256  0.37594991  0.33647383  1
  Pr  Pr58  1  0.17213718  0.87578560  0.82878850  1
  Pr  Pr59  1  0.16298498  0.62476289  0.83775671  1
  Pr  Pr60  1  0.65817969  0.62207966  0.99803307  1
  Pr  Pr61  1  0.49103751  0.62645357  0.17334188  1
  Pr  Pr62  1  0.33029352  0.37654554  0.66728514  1
  Pr  Pr63  1  0.32869592  0.62591454  0.99875386  1
  Pr  Pr64  1  0.50417560  0.12702265  0.49982103  1
  Pr  Pr65  1  0.00146281  0.87449763  0.33618213  1
  Pr  Pr66  1  -0.00042084  0.12525753  0.99360640  1
  Pr  Pr67  1  0.67597411  0.37386566  0.00384731  1
  Pr  Pr68  1  0.50156491  0.37790253  0.16752309  1
  Pr  Pr69  1  0.16688660  0.87529163  0.50061655  1
  Pr  Pr70  1  0.50585354  0.12220686  0.83411551  1
  Pr  Pr71  1  0.50548590  0.12319657  0.16861649  1
  Mn  Mn72  1  0.00134583  0.00115340  0.16438629  1
  Mn  Mn73  1  0.00254263  0.00006663  0.50004051  1
  Mn  Mn74  1  0.00090308  0.00056731  0.83316143  1
  Mn  Mn75  1  -0.00088316  0.49841947  0.16507206  1
  Mn  Mn76  1  -0.00351454  0.50025112  0.49903568  1
  Mn  Mn77  1  0.00194694  0.50035986  0.83170366  1
  Mn  Mn78  1  0.33456706  0.00188943  0.16666937  1
  Mn  Mn79  1  0.33263492  -0.00118167  0.50188228  1
  Mn  Mn80  1  0.33481750  0.00233208  0.83282465  1
  Mn  Mn81  1  0.33325189  0.49646277  0.16536342  1
  Mn  Mn82  1  0.33069043  0.50083855  0.50210866  1
  Mn  Mn83  1  0.33451267  0.49969465  0.83450434  1
  Mn  Mn84  1  0.66972721  0.00108524  0.16521116  1
  Mn  Mn85  1  0.66471359  0.00206709  0.50033350  1
  Mn  Mn86  1  0.67053695  0.00209284  0.83509337  1
  Mn  Mn87  1  0.66664628  0.49723681  0.16541628  1
  Mn  Mn88  1  0.66474589  0.49747137  0.50062702  1
  Mn  Mn89  1  0.66276805  0.49716660  0.83279661  1
  Mn  Mn90  1  0.00098261  0.24837504  0.16529482  1
  Mn  Mn91  1  -0.00002249  0.25006534  0.49890080  1
  Mn  Mn92  1  0.00132956  0.24922186  0.83284746  1
  Mn  Mn93  1  -0.00094569  0.75252127  0.16466915  1
  Mn  Mn94  1  -0.00095875  0.74922262  0.50107302  1
  Mn  Mn95  1  0.00135702  0.74881162  0.83228907  1
  Mn  Mn96  1  0.33308393  0.24958920  0.16517766  1
  Mn  Mn97  1  0.33357012  0.24775191  0.50200115  1
  Mn  Mn98  1  0.33569030  0.25043850  0.83462611  1
  Mn  Mn99  1  0.33421036  0.75263894  0.16650364  1
  Mn  Mn100  1  0.32913494  0.75390079  0.50236330  1
  Mn  Mn101  1  0.33356795  0.74752378  0.83213223  1
  Mn  Mn102  1  0.66718441  0.25121964  0.16723080  1
  Mn  Mn103  1  0.66591486  0.25084335  0.50021487  1
  Mn  Mn104  1  0.66697261  0.25138458  0.83375852  1
  Mn  Mn105  1  0.66886643  0.75029599  0.16327468  1
  Mn  Mn106  1  0.66370603  0.75088296  0.50067673  1
  Mn  Mn107  1  0.66720590  0.74750684  0.83457560  1
  Mn  Mn108  1  0.16690790  0.25086151  0.00359642  1
  Mn  Mn109  1  0.16268842  0.24623774  0.33456302  1
  Mn  Mn110  1  0.16811179  0.25003250  0.66875765  1
  Mn  Mn111  1  0.16626293  0.74985791  -0.00081934  1
  Mn  Mn112  1  0.16475274  0.75398389  0.33459363  1
  Mn  Mn113  1  0.16443852  0.74948796  0.66734972  1
  Mn  Mn114  1  0.50192094  0.25167347  -0.00163820  1
  Mn  Mn115  1  0.50202958  0.24835587  0.33224704  1
  Mn  Mn116  1  0.49957975  0.25094583  0.66577507  1
  Mn  Mn117  1  0.50310565  0.74737188  0.00134033  1
  Mn  Mn118  1  0.49745753  0.75224662  0.33178958  1
  Mn  Mn119  1  0.49945063  0.74928410  0.66781219  1
  Mn  Mn120  1  0.83523499  0.24904274  0.00132957  1
  Mn  Mn121  1  0.83329208  0.25043733  0.33233741  1
  Mn  Mn122  1  0.83408903  0.25094621  0.66574574  1
  Mn  Mn123  1  0.83475708  0.75144111  0.00017533  1
  Mn  Mn124  1  0.83301451  0.74992843  0.33258491  1
  Mn  Mn125  1  0.83283428  0.74924253  0.66729987  1
  Mn  Mn126  1  0.16747232  -0.00007814  0.00252743  1
  Mn  Mn127  1  0.16423966  0.00080286  0.33520874  1
  Mn  Mn128  1  0.16735824  0.00007672  0.66677771  1
  Mn  Mn129  1  0.16703093  0.49917122  -0.00066818  1
  Mn  Mn130  1  0.16359634  0.49922290  0.33376650  1
  Mn  Mn131  1  0.16540186  0.50093440  0.66922516  1
  Mn  Mn132  1  0.50489983  0.00156004  0.00092768  1
  Mn  Mn133  1  0.49943290  0.00122330  0.33240748  1
  Mn  Mn134  1  0.50161365  0.00296413  0.66640930  1
  Mn  Mn135  1  0.49955723  0.49926712  -0.00130058  1
  Mn  Mn136  1  0.49889281  0.49860259  0.33170179  1
  Mn  Mn137  1  0.49814901  0.49605451  0.66782976  1
  Mn  Mn138  1  0.83581948  -0.00045654  -0.00113732  1
  Mn  Mn139  1  0.83528900  0.00206450  0.33117011  1
  Mn  Mn140  1  0.83593382  0.00104479  0.66847592  1
  Mn  Mn141  1  0.83406267  0.49941055  0.00175079  1
  Mn  Mn142  1  0.83101138  0.49826163  0.33296315  1
  Mn  Mn143  1  0.83116705  0.49766500  0.66356324  1
  O  O144  1  0.15833813  0.12974774  0.02825961  1
  O  O145  1  0.16055760  0.12115958  0.35946287  1
  O  O146  1  0.15762511  0.12487622  0.68008919  1
  O  O147  1  0.16986041  0.62463151  0.01431588  1
  O  O148  1  0.16443111  0.63208348  0.35276434  1
  O  O149  1  0.17057259  0.62452059  0.69523796  1
  O  O150  1  0.50853744  0.12916427  0.02385763  1
  O  O151  1  0.50570016  0.12468619  0.35485545  1
  O  O152  1  0.49117470  0.13195163  0.69253681  1
  O  O153  1  0.50723797  0.62069827  0.02897673  1
  O  O154  1  0.49765558  0.62536883  0.33771300  1
  O  O155  1  0.49533118  0.61788443  0.68805849  1
  O  O156  1  0.83894115  0.12539892  0.02622836  1
  O  O157  1  0.83116818  0.12678879  0.34150168  1
  O  O158  1  0.83307323  0.12847187  0.68116437  1
  O  O159  1  0.84252288  0.62601622  0.02657192  1
  O  O160  1  0.83341016  0.62165835  0.35284152  1
  O  O161  1  0.83012735  0.62247275  0.67648385  1
  O  O162  1  0.15700948  0.36886598  0.31622105  1
  O  O163  1  0.17359945  0.37548658  0.65539436  1
  O  O164  1  0.16891252  0.37599743  0.97241927  1
  O  O165  1  0.15973600  0.87951098  0.31237955  1
  O  O166  1  0.16623151  0.87489531  0.64399982  1
  O  O167  1  0.16133728  0.87019593  0.97157791  1
  O  O168  1  0.50332112  0.37087267  0.31213730  1
  O  O169  1  0.50507098  0.37013836  0.63713606  1
  O  O170  1  0.49306178  0.37565893  0.97251899  1
  O  O171  1  0.49537046  0.87941956  0.30740667  1
  O  O172  1  0.49484671  0.87892861  0.64575379  1
  O  O173  1  0.50888918  0.87443547  0.99160342  1
  O  O174  1  0.83689641  0.37306428  0.30916433  1
  O  O175  1  0.84066206  0.37528663  0.64791687  1
  O  O176  1  0.83103005  0.37284422  0.98711498  1
  O  O177  1  0.84052862  0.87882418  0.31146508  1
  O  O178  1  0.84206343  0.87293717  0.65926695  1
  O  O179  1  0.82883476  0.87548701  0.97611432  1
  O  O180  1  -0.00329006  0.37033853  0.19151142  1
  O  O181  1  -0.00444266  0.37703952  0.52305334  1
  O  O182  1  0.00730773  0.37602825  0.85309935  1
  O  O183  1  -0.00443336  0.87983886  0.19169701  1
  O  O184  1  0.00525596  0.87218688  0.52589751  1
  O  O185  1  0.00151801  0.87518405  0.85294975  1
  O  O186  1  0.34237091  0.37151205  0.17603921  1
  O  O187  1  0.33652201  0.37032531  0.52298822  1
  O  O188  1  0.33532220  0.37706895  0.86195079  1
  O  O189  1  0.34095039  0.88100896  0.18366947  1
  O  O190  1  0.32468062  0.87780258  0.53162023  1
  O  O191  1  0.32741770  0.87550759  0.84327287  1
  O  O192  1  0.65983596  0.37238584  0.18682732  1
  O  O193  1  0.65859128  0.37337971  0.52274798  1
  O  O194  1  0.65759141  0.37434415  0.86038155  1
  O  O195  1  0.65987344  0.87677744  0.17621272  1
  O  O196  1  0.65497827  0.87750650  0.51160626  1
  O  O197  1  0.67016610  0.87857242  0.85712600  1
  O  O198  1  0.00325716  0.12473696  0.13510013  1
  O  O199  1  0.01180879  0.12391445  0.48577809  1
  O  O200  1  0.00223174  0.12483693  0.81032997  1
  O  O201  1  -0.00444902  0.62564077  0.14061552  1
  O  O202  1  0.00886077  0.62642839  0.48760963  1
  O  O203  1  0.01125632  0.62266579  0.80736241  1
  O  O204  1  0.32309020  0.12639981  0.14279448  1
  O  O205  1  0.33372873  0.12170796  0.49055443  1
  O  O206  1  0.34062514  0.12727748  0.80872637  1
  O  O207  1  0.33883820  0.62184868  0.14427200  1
  O  O208  1  0.32788726  0.63150802  0.49258720  1
  O  O209  1  0.33640536  0.62029738  0.80617841  1
  O  O210  1  0.66832067  0.12728564  0.13836612  1
  O  O211  1  0.65769636  0.12772730  0.47834664  1
  O  O212  1  0.66369336  0.12992136  0.81291238  1
  O  O213  1  0.67619963  0.62292906  0.14049154  1
  O  O214  1  0.66979472  0.62314598  0.49350172  1
  O  O215  1  0.65920936  0.61608553  0.80911144  1
  O  O216  1  0.08290167  0.01979795  0.24562832  1
  O  O217  1  0.08856625  0.01551791  0.58184521  1
  O  O218  1  0.07778309  0.01402883  0.92292162  1
  O  O219  1  0.07856226  0.50217460  0.24891570  1
  O  O220  1  0.07807231  0.51775215  0.59019992  1
  O  O221  1  0.08297390  0.52016993  0.91774252  1
  O  O222  1  0.42229747  0.02071763  0.24368595  1
  O  O223  1  0.42244403  0.01984403  0.57937411  1
  O  O224  1  0.42381288  0.02184538  0.91626541  1
  O  O225  1  0.41711547  0.50841877  0.24359261  1
  O  O226  1  0.40662770  0.50763396  0.59606510  1
  O  O227  1  0.41291896  0.52779659  0.92063377  1
  O  O228  1  0.74904804  0.02048332  0.24657150  1
  O  O229  1  0.74565035  0.01388249  0.58765784  1
  O  O230  1  0.74784388  0.02235300  0.92533968  1
  O  O231  1  0.74895101  0.51163398  0.24855932  1
  O  O232  1  0.74644116  0.51340543  0.58432979  1
  O  O233  1  0.73970399  0.51161361  0.92722882  1
  O  O234  1  0.24315790  0.23660963  0.24861518  1
  O  O235  1  0.25624309  0.23045817  0.59377080  1
  O  O236  1  0.25925610  0.23399985  0.93227274  1
  O  O237  1  0.24697475  0.75391834  0.24962938  1
  O  O238  1  0.23593393  0.73112539  0.57659640  1
  O  O239  1  0.24773098  0.72814407  0.90988720  1
  O  O240  1  0.58809707  0.22453647  0.24869495  1
  O  O241  1  0.58335363  0.22479028  0.59077734  1
  O  O242  1  0.58433334  0.22947701  0.91725243  1
  O  O243  1  0.57546851  0.73989745  0.22988350  1
  O  O244  1  0.58070270  0.73628841  0.58751742  1
  O  O245  1  0.57753543  0.72428746  0.91309847  1
  O  O246  1  0.91482686  0.23253522  0.24170450  1
  O  O247  1  0.92623844  0.23618535  0.58807661  1
  O  O248  1  0.91998763  0.23380714  0.91939826  1
  O  O249  1  0.90704665  0.73743817  0.23470734  1
  O  O250  1  0.90999433  0.72714831  0.57560264  1
  O  O251  1  0.91911498  0.73361418  0.91831105  1
  O  O252  1  0.08412293  0.47611566  0.08421104  1
  O  O253  1  0.07756152  0.48708902  0.41622037  1
  O  O254  1  0.08822161  0.47725127  0.75356938  1
  O  O255  1  0.08460152  0.97351253  0.08542611  1
  O  O256  1  0.08334720  0.97426755  0.41868811  1
  O  O257  1  0.08663932  0.97683373  0.75106729  1
  O  O258  1  0.42246297  0.47902672  0.08267940  1
  O  O259  1  0.41800326  0.48538036  0.42321637  1
  O  O260  1  0.41861260  0.47185895  0.75451712  1
  O  O261  1  0.42452712  0.99623830  0.08505105  1
  O  O262  1  0.41037738  0.97552663  0.41766518  1
  O  O263  1  0.41165927  0.98896628  0.74072027  1
  O  O264  1  0.75439408  0.47707498  0.09058414  1
  O  O265  1  0.75160512  0.48651719  0.42088197  1
  O  O266  1  0.74243473  0.48159359  0.74468835  1
  O  O267  1  0.75659309  0.97971584  0.08635940  1
  O  O268  1  0.74315105  0.99842108  0.41522600  1
  O  O269  1  0.75343132  0.99614742  0.75684175  1
  O  O270  1  0.24431085  0.27417941  0.08885418  1
  O  O271  1  0.24424143  0.25082864  0.42564005  1
  O  O272  1  0.24992587  0.27037433  0.75810487  1
  O  O273  1  0.25084117  0.76437526  0.08322577  1
  O  O274  1  0.25037573  0.77727873  0.41649478  1
  O  O275  1  0.25277394  0.76847723  0.74065761  1
  O  O276  1  0.58196407  0.27461214  0.08203620  1
  O  O277  1  0.57897643  0.26583278  0.42343431  1
  O  O278  1  0.57684973  0.27126579  0.74870461  1
  O  O279  1  0.59930055  0.76215074  0.06919962  1
  O  O280  1  0.57469039  0.76394682  0.41779276  1
  O  O281  1  0.58385002  0.75139583  0.74946921  1
  O  O282  1  0.91940501  0.27103349  0.08202396  1
  O  O283  1  0.91622466  0.26646641  0.41362597  1
  O  O284  1  0.92298654  0.26276015  0.74498415  1
  O  O285  1  0.92294166  0.77663414  0.07594305  1
  O  O286  1  0.92560799  0.76656166  0.40857578  1
  O  O287  1  0.92839398  0.75710911  0.74027945  1
  O  O288  1  0.25344788  0.47914244  0.07932379  1
  O  O289  1  0.24475955  0.49744886  0.42068215  1
  O  O290  1  0.25383141  0.47794532  0.75258206  1
  O  O291  1  0.24492158  0.98412245  0.09152169  1
  O  O292  1  0.24707505  0.97921289  0.42236936  1
  O  O293  1  0.24803369  0.98265016  0.74830242  1
  O  O294  1  0.59053428  0.47671533  0.07135409  1
  O  O295  1  0.58206930  0.48329517  0.41833615  1
  O  O296  1  0.57937257  0.47110710  0.74985283  1
  O  O297  1  0.58916246  0.98521733  0.08181769  1
  O  O298  1  0.57136841  0.98876603  0.42579693  1
  O  O299  1  0.58194672  1.00032779  0.75102470  1
  O  O300  1  0.92201373  0.47656751  0.07991058  1
  O  O301  1  0.91788786  0.48029413  0.40991120  1
  O  O302  1  0.92607147  0.48851184  0.73900933  1
  O  O303  1  0.92222625  0.97612384  0.07667078  1
  O  O304  1  0.92432985  0.98848781  0.41045282  1
  O  O305  1  0.92521133  0.98859070  0.74735790  1
  O  O306  1  0.08318792  0.27833945  0.08348275  1
  O  O307  1  0.07348824  0.26511816  0.40970462  1
  O  O308  1  0.08438890  0.27193429  0.74811274  1
  O  O309  1  0.08438458  0.77425886  0.08567929  1
  O  O310  1  0.08847925  0.77114297  0.42497065  1
  O  O311  1  0.09271807  0.77198706  0.75766623  1
  O  O312  1  0.41295159  0.26117221  0.07133774  1
  O  O313  1  0.41869289  0.25957456  0.42188582  1
  O  O314  1  0.41572013  0.27801360  0.74157602  1
  O  O315  1  0.43143142  0.76066760  0.09217519  1
  O  O316  1  0.41190496  0.77730724  0.42413905  1
  O  O317  1  0.41703317  0.76064311  0.75169072  1
  O  O318  1  0.75201831  0.27001662  0.08818552  1
  O  O319  1  0.74528312  0.26085479  0.41335680  1
  O  O320  1  0.74257614  0.26529923  0.74524997  1
  O  O321  1  0.76066410  0.77327874  0.09001220  1
  O  O322  1  0.75263917  0.75429242  0.42226149  1
  O  O323  1  0.75482689  0.75766955  0.75713463  1
  O  O324  1  0.24654121  0.01040218  0.25047978  1
  O  O325  1  0.25225291  0.02282213  0.58764680  1
  O  O326  1  0.25629217  0.01752375  0.92534973  1
  O  O327  1  0.24523890  0.49885269  0.24469759  1
  O  O328  1  0.24419183  0.52124668  0.58627625  1
  O  O329  1  0.25023399  0.52269252  0.91282835  1
  O  O330  1  0.58789570  0.02299980  0.24767778  1
  O  O331  1  0.58403375  0.02765048  0.58712260  1
  O  O332  1  0.58674191  0.02378182  0.91813251  1
  O  O333  1  0.57500718  0.51144201  0.23284924  1
  O  O334  1  0.58561240  0.51278504  0.59277243  1
  O  O335  1  0.57409279  0.52231302  0.91137001  1
  O  O336  1  0.91423946  0.01922003  0.23705837  1
  O  O337  1  0.92657487  0.01331949  0.58773623  1
  O  O338  1  0.91750580  0.01950289  0.91689178  1
  O  O339  1  0.90699869  0.51171903  0.23714741  1
  O  O340  1  0.91072354  0.52190887  0.57488219  1
  O  O341  1  0.92277183  0.51340189  0.91833103  1
  O  O342  1  0.08385727  0.22838090  0.24239803  1
  O  O343  1  0.08717308  0.23522744  0.58132833  1
  O  O344  1  0.08135275  0.23744511  0.92304512  1
  O  O345  1  0.07742847  0.74918819  0.25242588  1
  O  O346  1  0.07563284  0.72930242  0.59531699  1
  O  O347  1  0.07959041  0.72684043  0.92021360  1
  O  O348  1  0.42557556  0.23379400  0.23607138  1
  O  O349  1  0.42149454  0.22809331  0.58393728  1
  O  O350  1  0.42493084  0.22840275  0.90964505  1
  O  O351  1  0.41324034  0.74090748  0.25115639  1
  O  O352  1  0.40431900  0.74213117  0.59330979  1
  O  O353  1  0.41470175  0.72523339  0.92437105  1
  O  O354  1  0.74874164  0.23069117  0.24841189  1
  O  O355  1  0.74453212  0.23974782  0.58671812  1
  O  O356  1  0.74855294  0.23376779  0.92527930  1
  O  O357  1  0.74856832  0.73731056  0.24667294  1
  O  O358  1  0.74579969  0.73438516  0.58863369  1
  O  O359  1  0.73995381  0.73190851  0.93202910  1
