# generated using pymatgen
data_Ba17Sr5La8Pr42Mn72O216
_symmetry_space_group_name_H-M   'P 1'
_cell_length_a   16.66983080
_cell_length_b   15.69989885
_cell_length_c   16.81283252
_cell_angle_alpha   90.00243642
_cell_angle_beta   90.00772523
_cell_angle_gamma   89.97752311
_symmetry_Int_Tables_number   1
_chemical_formula_structural   Ba17Sr5La8Pr42Mn72O216
_chemical_formula_sum   'Ba17 Sr5 La8 Pr42 Mn72 O216'
_cell_volume   4400.16431851
_cell_formula_units_Z   1
loop_
 _symmetry_equiv_pos_site_id
 _symmetry_equiv_pos_as_xyz
  1  'x, y, z'
loop_
 _atom_site_type_symbol
 _atom_site_label
 _atom_site_symmetry_multiplicity
 _atom_site_fract_x
 _atom_site_fract_y
 _atom_site_fract_z
 _atom_site_occupancy
  Ba  Ba0  1  -0.00123554  0.62396647  0.33577596  1
  Ba  Ba1  1  0.16756065  0.12461558  0.50068941  1
  Ba  Ba2  1  0.33071789  0.12753119  0.33217910  1
  Ba  Ba3  1  -0.00151057  0.12628339  0.33763732  1
  Ba  Ba4  1  -0.00045952  0.37657298  0.33737543  1
  Ba  Ba5  1  0.50314256  0.87624935  0.83131316  1
  Ba  Ba6  1  0.83162869  0.12565293  0.50318031  1
  Ba  Ba7  1  0.00361568  0.87532093  -0.00036306  1
  Ba  Ba8  1  0.82981393  0.62466042  0.17040330  1
  Ba  Ba9  1  0.16870522  0.87374006  0.83386898  1
  Ba  Ba10  1  0.66333446  0.62530212  0.33002378  1
  Ba  Ba11  1  0.66617765  0.62519725  0.66446831  1
  Ba  Ba12  1  0.50170768  0.37475661  0.49587162  1
  Ba  Ba13  1  0.16834827  0.87445287  0.16413573  1
  Ba  Ba14  1  0.16863039  0.87282498  0.50125172  1
  Ba  Ba15  1  0.83808408  0.87663371  0.83631902  1
  Ba  Ba16  1  0.49981537  0.37319544  0.82856124  1
  Sr  Sr17  1  0.66221612  0.12502639  0.99989901  1
  Sr  Sr18  1  0.50325559  0.87594162  0.16054781  1
  Sr  Sr19  1  0.33066188  0.62320226  0.33154041  1
  Sr  Sr20  1  -0.00106447  0.62705716  0.66701980  1
  Sr  Sr21  1  0.33523114  0.37626882  0.33493128  1
  La  La22  1  0.66006479  0.12602131  0.32934442  1
  La  La23  1  0.67696670  0.87596859  0.66996085  1
  La  La24  1  0.83211829  0.37729001  0.50217414  1
  La  La25  1  0.33892224  0.87414193  0.00344455  1
  La  La26  1  0.83911417  0.87181210  0.50516609  1
  La  La27  1  0.84052170  0.87293863  0.16661430  1
  La  La28  1  0.83467531  0.37730730  0.17219376  1
  La  La29  1  0.82931113  0.12407604  0.17543663  1
  Pr  Pr30  1  0.83177975  0.12477698  0.83920666  1
  Pr  Pr31  1  0.65970043  0.62624212  0.99429100  1
  Pr  Pr32  1  0.65722338  0.12293809  0.66439310  1
  Pr  Pr33  1  0.67654924  0.87797732  0.00352679  1
  Pr  Pr34  1  0.00079481  0.37321071  0.66866731  1
  Pr  Pr35  1  0.83119681  0.37484525  0.83522831  1
  Pr  Pr36  1  0.16235619  0.62464994  0.16930953  1
  Pr  Pr37  1  0.16591052  0.62254817  0.50111225  1
  Pr  Pr38  1  0.32674860  0.62549060  0.99647300  1
  Pr  Pr39  1  0.33043374  0.12403362  0.99846857  1
  Pr  Pr40  1  -0.00012129  0.12478662  1.00257274  1
  Pr  Pr41  1  0.83426362  0.62117443  0.50315481  1
  Pr  Pr42  1  0.33205023  0.62579955  0.66472762  1
  Pr  Pr43  1  0.49089806  0.62321891  0.49689812  1
  Pr  Pr44  1  0.33265972  0.37293543  0.66681598  1
  Pr  Pr45  1  0.67577554  0.87490442  0.33089479  1
  Pr  Pr46  1  -0.00693799  0.62812470  0.99979669  1
  Pr  Pr47  1  0.16577085  0.37525517  0.17028301  1
  Pr  Pr48  1  0.82814107  0.62563695  0.83975648  1
  Pr  Pr49  1  0.33986523  0.87734603  0.66776665  1
  Pr  Pr50  1  0.00434970  0.87239460  0.33544987  1
  Pr  Pr51  1  0.66888752  0.37607315  0.33372077  1
  Pr  Pr52  1  0.50598023  0.87270868  0.49414366  1
  Pr  Pr53  1  0.48992667  0.12363428  0.16546280  1
  Pr  Pr54  1  0.49042404  0.62422401  0.83379108  1
  Pr  Pr55  1  -0.00264992  0.12106390  0.66235235  1
  Pr  Pr56  1  0.67176898  0.37227535  0.66954159  1
  Pr  Pr57  1  0.66955460  0.37057371  0.00285285  1
  Pr  Pr58  1  0.33980128  0.87424496  0.33261126  1
  Pr  Pr59  1  0.49199209  0.62619608  0.16742487  1
  Pr  Pr60  1  0.33830270  0.37654792  0.00311074  1
  Pr  Pr61  1  0.15895135  0.62472481  0.83513847  1
  Pr  Pr62  1  0.16488088  0.12595672  0.83309782  1
  Pr  Pr63  1  0.49387332  0.12501420  0.49616701  1
  Pr  Pr64  1  0.33373551  0.12452611  0.66222983  1
  Pr  Pr65  1  0.50000446  0.37328966  0.16330026  1
  Pr  Pr66  1  0.16129545  0.12444511  0.17435665  1
  Pr  Pr67  1  0.49623717  0.12484819  0.83378474  1
  Pr  Pr68  1  0.16546408  0.37749467  0.83166774  1
  Pr  Pr69  1  0.16772490  0.37680467  0.49507880  1
  Pr  Pr70  1  0.00221413  0.37783119  0.00737706  1
  Pr  Pr71  1  0.00579211  0.87952943  0.67526843  1
  Mn  Mn72  1  -0.00078326  0.00188314  0.16794327  1
  Mn  Mn73  1  0.00046853  -0.00256341  0.50269273  1
  Mn  Mn74  1  0.00223774  0.00538494  0.83417952  1
  Mn  Mn75  1  -0.00003303  0.49900435  0.16774631  1
  Mn  Mn76  1  0.00130274  0.50108366  0.50607581  1
  Mn  Mn77  1  -0.00238483  0.49847984  0.83601536  1
  Mn  Mn78  1  0.33357370  -0.00003459  0.16445905  1
  Mn  Mn79  1  0.33592123  -0.00256522  0.49943705  1
  Mn  Mn80  1  0.33269793  0.00167659  0.83219732  1
  Mn  Mn81  1  0.33305654  0.49887052  0.16619878  1
  Mn  Mn82  1  0.33344757  0.50103345  0.49869470  1
  Mn  Mn83  1  0.33056388  0.49866942  0.83179055  1
  Mn  Mn84  1  0.66540074  0.00132118  0.16567808  1
  Mn  Mn85  1  0.66560115  -0.00117920  0.49857316  1
  Mn  Mn86  1  0.66767641  0.00246963  0.83442549  1
  Mn  Mn87  1  0.66283965  0.49733512  0.16359447  1
  Mn  Mn88  1  0.66624925  0.50125651  0.49939020  1
  Mn  Mn89  1  0.66534758  0.49929835  0.83279299  1
  Mn  Mn90  1  -0.00185542  0.25252022  0.16682024  1
  Mn  Mn91  1  0.00087123  0.25057557  0.50498989  1
  Mn  Mn92  1  0.00022273  0.25193987  0.83647834  1
  Mn  Mn93  1  0.00115758  0.74811919  0.16767395  1
  Mn  Mn94  1  0.00057844  0.74852270  0.50351754  1
  Mn  Mn95  1  -0.00024207  0.74660050  0.83168828  1
  Mn  Mn96  1  0.33099967  0.25372632  0.16425470  1
  Mn  Mn97  1  0.33385264  0.25110119  0.50000121  1
  Mn  Mn98  1  0.33034484  0.24988534  0.83242869  1
  Mn  Mn99  1  0.33465126  0.74807581  0.16562667  1
  Mn  Mn100  1  0.33465541  0.74932467  0.49825118  1
  Mn  Mn101  1  0.33276901  0.74958859  0.83119162  1
  Mn  Mn102  1  0.66432592  0.24920509  0.16621081  1
  Mn  Mn103  1  0.66582147  0.24831806  0.49998600  1
  Mn  Mn104  1  0.66692799  0.24822906  0.83420472  1
  Mn  Mn105  1  0.66433477  0.75111996  0.16374543  1
  Mn  Mn106  1  0.66681692  0.75092788  0.49897439  1
  Mn  Mn107  1  0.66624820  0.75000829  0.83235895  1
  Mn  Mn108  1  0.16749610  0.25155093  0.00055929  1
  Mn  Mn109  1  0.16681103  0.25188765  0.33376058  1
  Mn  Mn110  1  0.16723678  0.25238330  0.66847137  1
  Mn  Mn111  1  0.16780742  0.74706880  0.00005589  1
  Mn  Mn112  1  0.16890089  0.74915242  0.33259707  1
  Mn  Mn113  1  0.16784291  0.74694556  0.66710949  1
  Mn  Mn114  1  0.49916075  0.24910333  -0.00291019  1
  Mn  Mn115  1  0.49978854  0.24977164  0.32884970  1
  Mn  Mn116  1  0.49982181  0.25008737  0.66354128  1
  Mn  Mn117  1  0.50081265  0.74912402  -0.00147923  1
  Mn  Mn118  1  0.49998304  0.75118953  0.32874540  1
  Mn  Mn119  1  0.50050503  0.74907870  0.66305696  1
  Mn  Mn120  1  0.83413949  0.24973090  0.00346510  1
  Mn  Mn121  1  0.83003732  0.25028134  0.33685553  1
  Mn  Mn122  1  0.83343580  0.25056790  0.67166998  1
  Mn  Mn123  1  0.83142955  0.74945913  0.00325255  1
  Mn  Mn124  1  0.83307262  0.75281587  0.33540482  1
  Mn  Mn125  1  0.83559600  0.74818114  0.66897671  1
  Mn  Mn126  1  0.16891075  0.00409897  0.00094969  1
  Mn  Mn127  1  0.16691779  -0.00160628  0.33217960  1
  Mn  Mn128  1  0.16929262  -0.00023790  0.66877274  1
  Mn  Mn129  1  0.16665342  0.49853427  -0.00023627  1
  Mn  Mn130  1  0.16862018  0.50101687  0.33384623  1
  Mn  Mn131  1  0.16728159  0.49974302  0.66661287  1
  Mn  Mn132  1  0.50128893  0.00152439  -0.00165202  1
  Mn  Mn133  1  0.50055387  -0.00214867  0.32888392  1
  Mn  Mn134  1  0.50087588  -0.00059145  0.66277643  1
  Mn  Mn135  1  0.49999765  0.49907215  -0.00165309  1
  Mn  Mn136  1  0.49845432  0.50042289  0.32927671  1
  Mn  Mn137  1  0.49962592  0.50010978  0.66418273  1
  Mn  Mn138  1  0.83442193  0.00415354  0.00520953  1
  Mn  Mn139  1  0.83175283  -0.00098949  0.33595076  1
  Mn  Mn140  1  0.83383554  0.00228017  0.67006925  1
  Mn  Mn141  1  0.83079617  0.49801085  0.00168320  1
  Mn  Mn142  1  0.83094369  0.49969979  0.33624338  1
  Mn  Mn143  1  0.83569565  0.49879174  0.67069262  1
  O  O144  1  0.17741467  0.13365039  0.02989033  1
  O  O145  1  0.16647978  0.12641125  0.33949779  1
  O  O146  1  0.17679694  0.13026763  0.68910516  1
  O  O147  1  0.17670844  0.61915678  0.02523854  1
  O  O148  1  0.17218068  0.62492742  0.35547739  1
  O  O149  1  0.17962631  0.62074689  0.69306548  1
  O  O150  1  0.49635206  0.12757064  0.02206438  1
  O  O151  1  0.50587730  0.12094222  0.35271615  1
  O  O152  1  0.50309419  0.12571186  0.68963330  1
  O  O153  1  0.50620583  0.62180202  0.02361472  1
  O  O154  1  0.49956297  0.62885282  0.35297142  1
  O  O155  1  0.49638999  0.62496723  0.68991082  1
  O  O156  1  0.84254476  0.12970228  0.03104067  1
  O  O157  1  0.82363997  0.12492217  0.34434005  1
  O  O158  1  0.84427959  0.12959335  0.69382455  1
  O  O159  1  0.82968481  0.62179548  0.01371660  1
  O  O160  1  0.83071836  0.62850719  0.35782850  1
  O  O161  1  0.83782505  0.61963885  0.69528860  1
  O  O162  1  0.16972195  0.37782193  0.31586786  1
  O  O163  1  0.16392237  0.37723547  0.64005654  1
  O  O164  1  0.15936307  0.37534911  0.97197240  1
  O  O165  1  0.16134774  0.87193922  0.32132424  1
  O  O166  1  0.15431761  0.87052969  0.66001658  1
  O  O167  1  0.17212646  0.87250165  0.98986894  1
  O  O168  1  0.50322870  0.37279347  0.30758065  1
  O  O169  1  0.49532490  0.37392997  0.65233752  1
  O  O170  1  0.49537496  0.37374684  0.98310701  1
  O  O171  1  0.48973781  0.87519987  0.30927605  1
  O  O172  1  0.49109095  0.87426469  0.63966505  1
  O  O173  1  0.49412794  0.87566093  0.98719292  1
  O  O174  1  0.82564763  0.37239270  0.31862584  1
  O  O175  1  0.82579880  0.37358005  0.64717022  1
  O  O176  1  0.83270433  0.37310133  0.97663863  1
  O  O177  1  0.83032209  0.87740577  0.31185512  1
  O  O178  1  0.83209234  0.87676916  0.65242790  1
  O  O179  1  0.82846395  0.87747250  0.99271060  1
  O  O180  1  0.00350894  0.37601081  0.17883320  1
  O  O181  1  0.00818831  0.37668594  0.52448898  1
  O  O182  1  0.00600748  0.37444600  0.86601059  1
  O  O183  1  -0.00336624  0.87633319  0.18536292  1
  O  O184  1  -0.00429125  0.87049492  0.52974025  1
  O  O185  1  0.00481548  0.87506017  0.84056268  1
  O  O186  1  0.33896557  0.37748255  0.18521124  1
  O  O187  1  0.32917484  0.37788260  0.52361035  1
  O  O188  1  0.32771448  0.37482183  0.86034268  1
  O  O189  1  0.33664135  0.87238958  0.18488026  1
  O  O190  1  0.34460864  0.87256857  0.52427324  1
  O  O191  1  0.33533401  0.87733642  0.85911624  1
  O  O192  1  0.65242513  0.37084153  0.18913518  1
  O  O193  1  0.66930274  0.37605449  0.52671619  1
  O  O194  1  0.67030082  0.37225105  0.85868975  1
  O  O195  1  0.65971249  0.88099725  0.18622522  1
  O  O196  1  0.65673609  0.87653489  0.52674934  1
  O  O197  1  0.66746920  0.87856893  0.85760938  1
  O  O198  1  -0.00255213  0.13062801  0.14837364  1
  O  O199  1  -0.00169410  0.12493544  0.49788807  1
  O  O200  1  -0.00107664  0.13401241  0.80728338  1
  O  O201  1  0.00390257  0.61888099  0.14593420  1
  O  O202  1  -0.00432542  0.62518643  0.49147157  1
  O  O203  1  -0.00635142  0.61848817  0.81626000  1
  O  O204  1  0.33196485  0.12995327  0.14302080  1
  O  O205  1  0.33725993  0.12216723  0.49017208  1
  O  O206  1  0.32626134  0.12718293  0.80624463  1
  O  O207  1  0.33596740  0.62024511  0.13949782  1
  O  O208  1  0.33455037  0.62605174  0.47958182  1
  O  O209  1  0.33295468  0.62154452  0.81006947  1
  O  O210  1  0.67859161  0.12678424  0.14792221  1
  O  O211  1  0.66331595  0.12008784  0.47322825  1
  O  O212  1  0.66911116  0.12692422  0.80907977  1
  O  O213  1  0.66190615  0.61980085  0.13904101  1
  O  O214  1  0.67966126  0.62786050  0.48662121  1
  O  O215  1  0.67561337  0.62322786  0.82263820  1
  O  O216  1  0.07952785  0.01262590  0.24837663  1
  O  O217  1  0.07855944  0.01124108  0.59354455  1
  O  O218  1  0.08272401  0.02820785  0.92001762  1
  O  O219  1  0.08893237  0.51240736  0.24546980  1
  O  O220  1  0.08930974  0.52160508  0.58435906  1
  O  O221  1  0.07935706  0.52488462  0.92187947  1
  O  O222  1  0.41463206  0.01610906  0.24681155  1
  O  O223  1  0.41679252  0.02181641  0.58497430  1
  O  O224  1  0.41177122  0.02577281  0.91553913  1
  O  O225  1  0.41424525  0.51918143  0.24714509  1
  O  O226  1  0.41386304  0.52156018  0.58298959  1
  O  O227  1  0.41208589  0.52126654  0.91981503  1
  O  O228  1  0.73760717  0.01289092  0.25809392  1
  O  O229  1  0.74052219  0.01364974  0.59468133  1
  O  O230  1  0.75246787  0.02236729  0.92509666  1
  O  O231  1  0.74147601  0.49915837  0.24840240  1
  O  O232  1  0.76063546  0.51253633  0.58100770  1
  O  O233  1  0.74616472  0.51410445  0.92103068  1
  O  O234  1  0.24338196  0.24307058  0.23833454  1
  O  O235  1  0.25794119  0.24130410  0.59506593  1
  O  O236  1  0.24919615  0.22860396  0.91730883  1
  O  O237  1  0.24630760  0.72952162  0.23867106  1
  O  O238  1  0.24758511  0.72849843  0.57744497  1
  O  O239  1  0.24269661  0.72500278  0.90974179  1
  O  O240  1  0.57695644  0.22335042  0.23966665  1
  O  O241  1  0.57935647  0.22460387  0.57478772  1
  O  O242  1  0.57931581  0.22955765  0.90898700  1
  O  O243  1  0.57197122  0.73548066  0.23278577  1
  O  O244  1  0.57007582  0.73431952  0.56544446  1
  O  O245  1  0.57340601  0.72563550  0.90646637  1
  O  O246  1  0.90506448  0.24183475  0.24358453  1
  O  O247  1  0.92082023  0.24440226  0.59600704  1
  O  O248  1  0.91794336  0.22756635  0.91757346  1
  O  O249  1  0.91503569  0.74744292  0.25222914  1
  O  O250  1  0.90821778  0.73133500  0.57758479  1
  O  O251  1  0.91123913  0.72941413  0.91407361  1
  O  O252  1  0.08795249  0.47913502  0.08267273  1
  O  O253  1  0.08875495  0.49070347  0.42495739  1
  O  O254  1  0.08381165  0.47993445  0.75320984  1
  O  O255  1  0.08639040  1.00422747  0.08457672  1
  O  O256  1  0.07905560  0.98468661  0.41753743  1
  O  O257  1  0.08791131  1.00130372  0.75386903  1
  O  O258  1  0.42087990  0.48016019  0.08442022  1
  O  O259  1  0.41714808  0.49189706  0.41464826  1
  O  O260  1  0.40917595  0.48674986  0.74653620  1
  O  O261  1  0.42083717  0.99064857  0.08421077  1
  O  O262  1  0.42405793  0.98110871  0.42063121  1
  O  O263  1  0.41739055  0.99058891  0.74656037  1
  O  O264  1  0.74992842  0.47113794  0.08493185  1
  O  O265  1  0.74911583  0.47871184  0.41957229  1
  O  O266  1  0.75235157  0.47642972  0.75399627  1
  O  O267  1  0.75498864  0.98230737  0.09458539  1
  O  O268  1  0.75311338  0.97365521  0.42470680  1
  O  O269  1  0.75490497  0.99341704  0.75473315  1
  O  O270  1  0.25015560  0.28234649  0.07917245  1
  O  O271  1  0.25054445  0.26867071  0.42151237  1
  O  O272  1  0.24555907  0.27751719  0.75454455  1
  O  O273  1  0.26486413  0.75874081  0.06993021  1
  O  O274  1  0.26265807  0.76725540  0.40635512  1
  O  O275  1  0.26156884  0.76553316  0.73644436  1
  O  O276  1  0.58614428  0.26774553  0.07921756  1
  O  O277  1  0.59152917  0.26219871  0.40135438  1
  O  O278  1  0.59149635  0.26203509  0.73611761  1
  O  O279  1  0.59657466  0.76474804  0.06372268  1
  O  O280  1  0.58852801  0.77456460  0.40402418  1
  O  O281  1  0.59102292  0.76806509  0.73438844  1
  O  O282  1  0.91867901  0.27578118  0.08096802  1
  O  O283  1  0.91475983  0.26448246  0.42713217  1
  O  O284  1  0.91748442  0.27942492  0.75670901  1
  O  O285  1  0.91786209  0.75636658  0.08181353  1
  O  O286  1  0.91802467  0.77416494  0.41648570  1
  O  O287  1  0.92718714  0.76454064  0.74015335  1
  O  O288  1  0.25327304  0.47480994  0.07790767  1
  O  O289  1  0.24885442  0.48366242  0.42067057  1
  O  O290  1  0.24826574  0.47215597  0.74758353  1
  O  O291  1  0.26371592  0.98844123  0.07077529  1
  O  O292  1  0.26128821  0.98163137  0.40998490  1
  O  O293  1  0.25883316  0.98218099  0.74468860  1
  O  O294  1  0.58827552  0.47466937  0.07301289  1
  O  O295  1  0.58827355  0.48569916  0.40381437  1
  O  O296  1  0.58990887  0.48399764  0.74154706  1
  O  O297  1  0.59503127  0.98769908  0.07244238  1
  O  O298  1  0.58904313  0.97599516  0.40564509  1
  O  O299  1  0.59177373  0.98646896  0.73268383  1
  O  O300  1  0.91732050  0.48107194  0.08061858  1
  O  O301  1  0.91000794  0.48976262  0.43270563  1
  O  O302  1  0.91653202  0.46940508  0.75557647  1
  O  O303  1  0.91760449  0.98920042  0.08524714  1
  O  O304  1  0.91953556  0.97589880  0.41721863  1
  O  O305  1  0.92662029  0.99047705  0.74485015  1
  O  O306  1  0.08406586  0.26995264  0.08015584  1
  O  O307  1  0.08842642  0.26469832  0.42532839  1
  O  O308  1  0.08435978  0.27540719  0.75497375  1
  O  O309  1  0.08813523  0.74772610  0.08316568  1
  O  O310  1  0.08017147  0.76060182  0.41727962  1
  O  O311  1  0.08844874  0.74728631  0.75440067  1
  O  O312  1  0.41418966  0.26848881  0.07981498  1
  O  O313  1  0.42012703  0.25721485  0.41272753  1
  O  O314  1  0.40730944  0.26004897  0.74252925  1
  O  O315  1  0.42539612  0.75910211  0.08719590  1
  O  O316  1  0.42480004  0.76860537  0.42161461  1
  O  O317  1  0.41956710  0.76138691  0.74859805  1
  O  O318  1  0.75119457  0.27466798  0.08996521  1
  O  O319  1  0.75097847  0.27189166  0.42474212  1
  O  O320  1  0.75495684  0.27087518  0.75829614  1
  O  O321  1  0.75320984  0.77172376  0.09043316  1
  O  O322  1  0.75343624  0.77634210  0.42175830  1
  O  O323  1  0.75562186  0.76045117  0.75442911  1
  O  O324  1  0.24449234  0.01310303  0.23792044  1
  O  O325  1  0.25555307  0.00549238  0.58862022  1
  O  O326  1  0.24620051  0.02625316  0.91207189  1
  O  O327  1  0.24644780  0.51493869  0.24077889  1
  O  O328  1  0.25110006  0.52142657  0.58295095  1
  O  O329  1  0.24468322  0.51972161  0.91189669  1
  O  O330  1  0.57688826  0.02405920  0.23784426  1
  O  O331  1  0.57596351  0.02230617  0.57233253  1
  O  O332  1  0.57676572  0.02257331  0.90684129  1
  O  O333  1  0.57061599  0.51328662  0.23316150  1
  O  O334  1  0.57693229  0.51942359  0.57003377  1
  O  O335  1  0.57720986  0.52203565  0.91079238  1
  O  O336  1  0.90670609  0.01230245  0.24491876  1
  O  O337  1  0.91542232  0.00852791  0.58700828  1
  O  O338  1  0.91767119  0.02577763  0.91653293  1
  O  O339  1  0.91085070  0.50278139  0.25156552  1
  O  O340  1  0.92206517  0.50711473  0.59404716  1
  O  O341  1  0.91193392  0.51768058  0.91787549  1
  O  O342  1  0.08412122  0.24133042  0.24327889  1
  O  O343  1  0.07998455  0.23553096  0.59583698  1
  O  O344  1  0.08443531  0.22325921  0.91881267  1
  O  O345  1  0.08537882  0.73418483  0.24853976  1
  O  O346  1  0.08659018  0.72757078  0.58465217  1
  O  O347  1  0.07859376  0.72373603  0.92085873  1
  O  O348  1  0.42032638  0.23716264  0.24018689  1
  O  O349  1  0.41836680  0.22935381  0.58215370  1
  O  O350  1  0.41311833  0.22626339  0.91191400  1
  O  O351  1  0.41067953  0.73011707  0.25263381  1
  O  O352  1  0.41198417  0.72563682  0.58598184  1
  O  O353  1  0.41097000  0.72617244  0.92197973  1
  O  O354  1  0.73843569  0.23937609  0.25530985  1
  O  O355  1  0.74157827  0.23333433  0.59868208  1
  O  O356  1  0.75328073  0.22982941  0.92135638  1
  O  O357  1  0.74407882  0.74904997  0.25429985  1
  O  O358  1  0.75200352  0.74530827  0.58588954  1
  O  O359  1  0.74291768  0.73560128  0.92756634  1
