# generated using pymatgen
data_Ba17Sr5La8Pr42Mn72O216
_symmetry_space_group_name_H-M   'P 1'
_cell_length_a   16.67273992
_cell_length_b   15.70333071
_cell_length_c   16.82300813
_cell_angle_alpha   90.00310489
_cell_angle_beta   90.01708920
_cell_angle_gamma   89.96485063
_symmetry_Int_Tables_number   1
_chemical_formula_structural   Ba17Sr5La8Pr42Mn72O216
_chemical_formula_sum   'Ba17 Sr5 La8 Pr42 Mn72 O216'
_cell_volume   4404.55772123
_cell_formula_units_Z   1
loop_
 _symmetry_equiv_pos_site_id
 _symmetry_equiv_pos_as_xyz
  1  'x, y, z'
loop_
 _atom_site_type_symbol
 _atom_site_label
 _atom_site_symmetry_multiplicity
 _atom_site_fract_x
 _atom_site_fract_y
 _atom_site_fract_z
 _atom_site_occupancy
  Ba  Ba0  1  0.83269203  0.62339775  0.16621706  1
  Ba  Ba1  1  0.16830577  0.12483895  0.16854314  1
  Ba  Ba2  1  0.83312725  0.62467471  0.83179163  1
  Ba  Ba3  1  0.00043609  0.87435662  0.33800100  1
  Ba  Ba4  1  0.83487772  0.37572343  0.16417357  1
  Ba  Ba5  1  0.49950164  0.87542496  0.16584201  1
  Ba  Ba6  1  0.66788999  0.12628324  0.32977441  1
  Ba  Ba7  1  0.33244644  0.37625607  0.00103631  1
  Ba  Ba8  1  0.00079829  0.62660483  0.33483701  1
  Ba  Ba9  1  0.49865873  0.87345744  0.49747931  1
  Ba  Ba10  1  0.33144257  0.62483150  0.66529578  1
  Ba  Ba11  1  0.66489897  0.87609437  0.66444480  1
  Ba  Ba12  1  0.50325191  0.12482651  0.16621034  1
  Ba  Ba13  1  -0.00221206  0.37455358  0.66874337  1
  Ba  Ba14  1  0.50125065  0.62423904  0.83049651  1
  Ba  Ba15  1  0.16615181  0.12378035  0.83729298  1
  Ba  Ba16  1  0.49923922  0.62299166  0.50268875  1
  Sr  Sr17  1  0.83358390  0.37439947  0.49797513  1
  Sr  Sr18  1  0.49892404  0.37825129  0.49906916  1
  Sr  Sr19  1  0.83121835  0.37553223  0.82770065  1
  Sr  Sr20  1  0.66718200  0.62504628  0.66369928  1
  Sr  Sr21  1  0.16665167  0.87450221  0.50037881  1
  La  La22  1  0.50511501  0.12508925  0.83523306  1
  La  La23  1  0.33370452  0.37804149  0.66906422  1
  La  La24  1  0.66655959  0.37459731  0.33366607  1
  La  La25  1  0.16568726  0.37654586  0.50149345  1
  La  La26  1  0.49783680  0.87456652  0.82846315  1
  La  La27  1  0.33306411  0.37224052  0.33357723  1
  La  La28  1  0.16668577  0.12092826  0.50366940  1
  La  La29  1  0.00132309  0.12816657  0.66675529  1
  Pr  Pr30  1  -0.00325341  0.87715354  0.00510946  1
  Pr  Pr31  1  0.83256640  0.62544666  0.50391047  1
  Pr  Pr32  1  0.16137461  0.62904941  0.50580692  1
  Pr  Pr33  1  0.00026957  0.37480126  -0.00068425  1
  Pr  Pr34  1  0.83276429  0.87357420  0.16729463  1
  Pr  Pr35  1  0.83248737  0.87365118  0.82881206  1
  Pr  Pr36  1  0.49818116  0.37414869  0.82788870  1
  Pr  Pr37  1  0.67339944  0.12599600  0.66011182  1
  Pr  Pr38  1  0.50622103  0.12610122  0.50002915  1
  Pr  Pr39  1  0.66594252  0.87061246  -0.00033906  1
  Pr  Pr40  1  0.66280186  0.62335215  0.33249972  1
  Pr  Pr41  1  0.00110960  0.12696104  0.33284325  1
  Pr  Pr42  1  0.66407373  0.37891992  -0.00183250  1
  Pr  Pr43  1  -0.00071400  0.62379557  1.00057414  1
  Pr  Pr44  1  0.50222685  0.37035794  0.16470684  1
  Pr  Pr45  1  -0.00189011  0.37795254  0.33824077  1
  Pr  Pr46  1  0.66491742  0.87533754  0.33516542  1
  Pr  Pr47  1  0.33006654  0.87942240  0.33655858  1
  Pr  Pr48  1  0.83716083  0.12553246  0.16970773  1
  Pr  Pr49  1  0.83550925  0.12402435  0.83192740  1
  Pr  Pr50  1  0.17112164  0.62389547  0.17148316  1
  Pr  Pr51  1  0.32653227  0.87464851  0.00258949  1
  Pr  Pr52  1  0.67026133  0.62473084  0.99353299  1
  Pr  Pr53  1  0.16364556  0.37680358  0.16666873  1
  Pr  Pr54  1  0.16813111  0.87584344  0.83119147  1
  Pr  Pr55  1  0.83757203  0.12448328  0.50045553  1
  Pr  Pr56  1  0.34103323  0.12449767  0.99765962  1
  Pr  Pr57  1  0.00005892  0.87358953  0.66904414  1
  Pr  Pr58  1  -0.00519889  0.62199964  0.66409068  1
  Pr  Pr59  1  0.33662055  0.12465367  0.66410910  1
  Pr  Pr60  1  0.82878820  0.87402775  0.49579681  1
  Pr  Pr61  1  0.67358311  0.12665400  1.00047435  1
  Pr  Pr62  1  0.16537430  0.62209372  0.83646703  1
  Pr  Pr63  1  0.00059794  0.12689297  0.99875518  1
  Pr  Pr64  1  0.33846431  0.12361708  0.32951566  1
  Pr  Pr65  1  0.33640795  0.62689521  0.33666752  1
  Pr  Pr66  1  0.16319557  0.87319171  0.16877191  1
  Pr  Pr67  1  0.16706116  0.37183973  0.82954069  1
  Pr  Pr68  1  0.66315805  0.37774977  0.66727354  1
  Pr  Pr69  1  0.33249152  0.87112530  0.66608705  1
  Pr  Pr70  1  0.33799308  0.62766200  0.99406268  1
  Pr  Pr71  1  0.49991197  0.62126865  0.16668998  1
  Mn  Mn72  1  0.00067680  -0.00025075  0.16821149  1
  Mn  Mn73  1  -0.00064844  0.00069044  0.50242214  1
  Mn  Mn74  1  -0.00132496  -0.00304351  0.83563922  1
  Mn  Mn75  1  0.00182397  0.49992391  0.16743667  1
  Mn  Mn76  1  -0.00102997  0.49943421  0.50118002  1
  Mn  Mn77  1  0.00051071  0.50116779  0.83437390  1
  Mn  Mn78  1  0.33245202  -0.00176819  0.16636376  1
  Mn  Mn79  1  0.33279416  0.00298638  0.49913443  1
  Mn  Mn80  1  0.33370742  -0.00030681  0.83308470  1
  Mn  Mn81  1  0.33374933  0.50171285  0.16790262  1
  Mn  Mn82  1  0.33003014  0.49729760  0.49992460  1
  Mn  Mn83  1  0.33254326  0.49990205  0.83476856  1
  Mn  Mn84  1  0.67013247  -0.00256054  0.16440464  1
  Mn  Mn85  1  0.66676543  0.00246243  0.49758614  1
  Mn  Mn86  1  0.66723772  0.00218232  0.83373295  1
  Mn  Mn87  1  0.66543459  0.49964584  0.16470756  1
  Mn  Mn88  1  0.66862774  0.49695755  0.49908874  1
  Mn  Mn89  1  0.66676021  0.49872581  0.83259809  1
  Mn  Mn90  1  0.00163014  0.25020098  0.16739727  1
  Mn  Mn91  1  0.00099782  0.25041625  0.49909053  1
  Mn  Mn92  1  -0.00197727  0.24908951  0.83467628  1
  Mn  Mn93  1  0.00051242  0.75086347  0.16691925  1
  Mn  Mn94  1  -0.00128532  0.75085859  0.50365936  1
  Mn  Mn95  1  0.00102192  0.75054796  0.83526616  1
  Mn  Mn96  1  0.33298556  0.25071032  0.16735019  1
  Mn  Mn97  1  0.33300637  0.24903924  0.49972153  1
  Mn  Mn98  1  0.33373773  0.24921732  0.83252496  1
  Mn  Mn99  1  0.33283231  0.74859517  0.16613218  1
  Mn  Mn100  1  0.32968522  0.75177593  0.49944259  1
  Mn  Mn101  1  0.33201045  0.75050926  0.83472794  1
  Mn  Mn102  1  0.66916752  0.25167058  0.16393615  1
  Mn  Mn103  1  0.66790532  0.25135820  0.49914286  1
  Mn  Mn104  1  0.66741196  0.24829774  0.83118510  1
  Mn  Mn105  1  0.66624731  0.74869837  0.16577717  1
  Mn  Mn106  1  0.66733286  0.74945009  0.49744677  1
  Mn  Mn107  1  0.66590741  0.75039522  0.83282069  1
  Mn  Mn108  1  0.16640135  0.25091494  0.00179364  1
  Mn  Mn109  1  0.16738839  0.25119127  0.33593235  1
  Mn  Mn110  1  0.16781659  0.24717874  0.66700482  1
  Mn  Mn111  1  0.16553700  0.74969921  0.00151562  1
  Mn  Mn112  1  0.16976631  0.74930555  0.33561973  1
  Mn  Mn113  1  0.16373211  0.75255850  0.66914156  1
  Mn  Mn114  1  0.50195446  0.25011965  -0.00224052  1
  Mn  Mn115  1  0.49903046  0.25296209  0.33400832  1
  Mn  Mn116  1  0.49965396  0.24854139  0.66629289  1
  Mn  Mn117  1  0.50089389  0.75152717  -0.00084338  1
  Mn  Mn118  1  0.49930746  0.74782832  0.33015930  1
  Mn  Mn119  1  0.49982941  0.75072351  0.66507368  1
  Mn  Mn120  1  0.83427395  0.25018445  -0.00339254  1
  Mn  Mn121  1  0.83530231  0.25116566  0.33251891  1
  Mn  Mn122  1  0.83175722  0.25043894  0.66575460  1
  Mn  Mn123  1  0.83436375  0.75116716  -0.00082949  1
  Mn  Mn124  1  0.83040445  0.74886805  0.33349213  1
  Mn  Mn125  1  0.83317524  0.75081711  0.66533580  1
  Mn  Mn126  1  0.16641263  -0.00043104  0.00187541  1
  Mn  Mn127  1  0.16718219  0.00131704  0.33709652  1
  Mn  Mn128  1  0.16637785  -0.00054615  0.66814252  1
  Mn  Mn129  1  0.16562838  0.50101196  0.00239684  1
  Mn  Mn130  1  0.16940111  0.50019960  0.33468226  1
  Mn  Mn131  1  0.16507792  0.50021120  0.66848981  1
  Mn  Mn132  1  0.50265594  0.00014851  -0.00370029  1
  Mn  Mn133  1  0.50009480  -0.00054053  0.33275147  1
  Mn  Mn134  1  0.49815450  0.00173537  0.66724391  1
  Mn  Mn135  1  0.50046932  0.49923593  0.00069066  1
  Mn  Mn136  1  0.49830866  0.50032524  0.33179134  1
  Mn  Mn137  1  0.50058597  0.49818898  0.66476823  1
  Mn  Mn138  1  0.83319141  -0.00014825  -0.00053879  1
  Mn  Mn139  1  0.83391030  0.00052838  0.33262835  1
  Mn  Mn140  1  0.83497625  -0.00042275  0.66616889  1
  Mn  Mn141  1  0.83448437  0.49839239  -0.00292833  1
  Mn  Mn142  1  0.83252474  0.49921226  0.33490720  1
  Mn  Mn143  1  0.83105833  0.49902373  0.66516810  1
  O  O144  1  0.15858559  0.12521589  0.01293813  1
  O  O145  1  0.16726415  0.12851491  0.35959792  1
  O  O146  1  0.16382745  0.12277955  0.68154178  1
  O  O147  1  0.16358757  0.62672055  0.02887274  1
  O  O148  1  0.17593266  0.62352522  0.36176928  1
  O  O149  1  0.15861972  0.63063423  0.69234618  1
  O  O150  1  0.49099519  0.12453528  0.01021561  1
  O  O151  1  0.49208123  0.12955247  0.35413472  1
  O  O152  1  0.49215538  0.12516050  0.69234439  1
  O  O153  1  0.49808183  0.62265169  0.02205959  1
  O  O154  1  0.50243804  0.62271053  0.34654915  1
  O  O155  1  0.50190886  0.62341893  0.67323423  1
  O  O156  1  0.82871258  0.12242662  0.02715042  1
  O  O157  1  0.83992409  0.12548544  0.35530299  1
  O  O158  1  0.82832255  0.12314197  0.68854901  1
  O  O159  1  0.82749011  0.62661610  0.00919132  1
  O  O160  1  0.82309578  0.62381347  0.35742088  1
  O  O161  1  0.83434993  0.62676311  0.67538633  1
  O  O162  1  0.16644502  0.37582910  0.30942830  1
  O  O163  1  0.17145186  0.36961714  0.64712539  1
  O  O164  1  0.16063812  0.37689406  0.97340604  1
  O  O165  1  0.17485896  0.87371147  0.31223729  1
  O  O166  1  0.16697668  0.87728484  0.64858908  1
  O  O167  1  0.17224137  0.87296079  0.97436498  1
  O  O168  1  0.49373614  0.37942210  0.30859593  1
  O  O169  1  0.50392707  0.37013118  0.64924481  1
  O  O170  1  0.50853623  0.37332771  0.97206022  1
  O  O171  1  0.50011863  0.87063531  0.32279523  1
  O  O172  1  0.49356403  0.87980821  0.65549599  1
  O  O173  1  0.51162079  0.87932967  0.97344499  1
  O  O174  1  0.84225120  0.37370581  0.32074824  1
  O  O175  1  0.82652198  0.37287298  0.64888616  1
  O  O176  1  0.84308132  0.37156707  0.97757942  1
  O  O177  1  0.82697211  0.87628229  0.31229030  1
  O  O178  1  0.84270124  0.87734977  0.64041140  1
  O  O179  1  0.84033840  0.87854757  0.97153179  1
  O  O180  1  0.00743342  0.37383698  0.19275888  1
  O  O181  1  0.00389335  0.37543542  0.51255680  1
  O  O182  1  0.00308242  0.37863206  0.85536159  1
  O  O183  1  -0.00096992  0.87647343  0.18163117  1
  O  O184  1  -0.00750379  0.87704096  0.52490420  1
  O  O185  1  -0.00786259  0.87395666  0.86181833  1
  O  O186  1  0.33380659  0.38063145  0.18992828  1
  O  O187  1  0.32697008  0.36956085  0.52587066  1
  O  O188  1  0.33100738  0.37432313  0.84427984  1
  O  O189  1  0.32716020  0.87092851  0.19253778  1
  O  O190  1  0.33032792  0.88224800  0.52234293  1
  O  O191  1  0.32766127  0.87517333  0.85840661  1
  O  O192  1  0.66187007  0.37803831  0.18660270  1
  O  O193  1  0.66873065  0.37105096  0.52358299  1
  O  O194  1  0.66179824  0.37013067  0.85493734  1
  O  O195  1  0.67536166  0.87193794  0.18990301  1
  O  O196  1  0.67186455  0.87937864  0.50700742  1
  O  O197  1  0.66812544  0.88050687  0.85591368  1
  O  O198  1  -0.00373834  0.12315603  0.14231524  1
  O  O199  1  -0.00105914  0.12551601  0.47728111  1
  O  O200  1  -0.00457372  0.11773435  0.81019744  1
  O  O201  1  0.01037988  0.62705096  0.14448624  1
  O  O202  1  0.00374408  0.62427298  0.49258057  1
  O  O203  1  0.00925552  0.62867623  0.80811055  1
  O  O204  1  0.33301429  0.12110489  0.14133177  1
  O  O205  1  0.32868597  0.12756458  0.47137689  1
  O  O206  1  0.33958208  0.12359008  0.80987910  1
  O  O207  1  0.33015196  0.62571973  0.13657803  1
  O  O208  1  0.32133842  0.62235928  0.48125192  1
  O  O209  1  0.32583687  0.62647671  0.82241638  1
  O  O210  1  0.67718099  0.12388803  0.14461034  1
  O  O211  1  0.66530198  0.12756247  0.48623014  1
  O  O212  1  0.66837184  0.12483376  0.80392218  1
  O  O213  1  0.65898183  0.62314793  0.13764582  1
  O  O214  1  0.67671329  0.62287096  0.47700388  1
  O  O215  1  0.66813702  0.62399587  0.81826515  1
  O  O216  1  0.08333323  0.01399725  0.25761228  1
  O  O217  1  0.07999718  0.01883889  0.58635942  1
  O  O218  1  0.07637489  0.00789029  0.92282188  1
  O  O219  1  0.09516801  0.51530656  0.24403705  1
  O  O220  1  0.08017254  0.51846025  0.58911224  1
  O  O221  1  0.08352636  0.52631596  0.92147507  1
  O  O222  1  0.41495611  0.01186119  0.24826414  1
  O  O223  1  0.41800981  0.02847941  0.57547661  1
  O  O224  1  0.42524648  0.01440003  0.90436318  1
  O  O225  1  0.41453669  0.52608738  0.24918037  1
  O  O226  1  0.41071877  0.49971917  0.58396095  1
  O  O227  1  0.41362887  0.51389332  0.92382861  1
  O  O228  1  0.76300307  0.01255885  0.23664529  1
  O  O229  1  0.75437629  0.01951424  0.57702547  1
  O  O230  1  0.75175717  0.02467549  0.91584777  1
  O  O231  1  0.74089131  0.51165260  0.25425378  1
  O  O232  1  0.75361645  0.51634214  0.57755861  1
  O  O233  1  0.74783814  0.50507930  0.91639858  1
  O  O234  1  0.25524719  0.23720252  0.26105062  1
  O  O235  1  0.25417030  0.22466198  0.58383359  1
  O  O236  1  0.25531378  0.23468113  0.92380928  1
  O  O237  1  0.25582768  0.72337133  0.25067451  1
  O  O238  1  0.23748159  0.73776557  0.57948429  1
  O  O239  1  0.24962401  0.72956354  0.92150717  1
  O  O240  1  0.58251585  0.24884525  0.25067204  1
  O  O241  1  0.58490770  0.22677384  0.59014999  1
  O  O242  1  0.59119463  0.22515427  0.91834582  1
  O  O243  1  0.58014611  0.72719895  0.24398500  1
  O  O244  1  0.58897777  0.74109878  0.58017828  1
  O  O245  1  0.58878279  0.73562505  0.92104306  1
  O  O246  1  0.91908331  0.22698092  0.24841242  1
  O  O247  1  0.91671115  0.22831706  0.58315941  1
  O  O248  1  0.91564620  0.22270593  0.91624060  1
  O  O249  1  0.91075780  0.74364138  0.25020962  1
  O  O250  1  0.91773519  0.72994893  0.58654992  1
  O  O251  1  0.92498550  0.73303894  0.92262312  1
  O  O252  1  0.08113566  0.47536242  0.08124457  1
  O  O253  1  0.08517862  0.48259652  0.41668930  1
  O  O254  1  0.09209150  0.48432061  0.76192161  1
  O  O255  1  0.08236042  0.97751397  0.08512673  1
  O  O256  1  0.08402163  0.99220484  0.42367687  1
  O  O257  1  0.07945492  0.97467944  0.75508594  1
  O  O258  1  0.42344332  0.48554828  0.09206573  1
  O  O259  1  0.40986004  0.48659732  0.41269258  1
  O  O260  1  0.41921340  0.48033131  0.75019707  1
  O  O261  1  0.40844163  0.98294088  0.06755397  1
  O  O262  1  0.40656641  0.98926051  0.40966770  1
  O  O263  1  0.40543479  0.97879036  0.74409047  1
  O  O264  1  0.74376353  0.48605652  0.07526636  1
  O  O265  1  0.74756963  0.47659195  0.41441771  1
  O  O266  1  0.74357167  0.48156631  0.74376899  1
  O  O267  1  0.74984780  0.97147836  0.07707588  1
  O  O268  1  0.74719851  0.98346306  0.40911392  1
  O  O269  1  0.75528742  0.98464505  0.75416260  1
  O  O270  1  0.24423229  0.26790885  0.09116236  1
  O  O271  1  0.24662990  0.27331647  0.42117602  1
  O  O272  1  0.24999421  0.26584480  0.75095017  1
  O  O273  1  0.24438318  0.77213593  0.08820567  1
  O  O274  1  0.25339881  0.77161040  0.41351014  1
  O  O275  1  0.24828348  0.77292732  0.75138850  1
  O  O276  1  0.58418020  0.26868423  0.08055823  1
  O  O277  1  0.58077306  0.26891824  0.41716020  1
  O  O278  1  0.57745548  0.26684441  0.75588412  1
  O  O279  1  0.58997779  0.76615583  0.07879475  1
  O  O280  1  0.59186073  0.75734529  0.40537804  1
  O  O281  1  0.57920575  0.76574155  0.75640375  1
  O  O282  1  0.92348473  0.26068949  0.07528125  1
  O  O283  1  0.92324056  0.26271047  0.41106224  1
  O  O284  1  0.91022037  0.25527612  0.75257558  1
  O  O285  1  0.91578100  0.76929392  0.08132041  1
  O  O286  1  0.90859327  0.76070124  0.42652172  1
  O  O287  1  0.91875054  0.77122182  0.74942083  1
  O  O288  1  0.24133207  0.48580411  0.09389618  1
  O  O289  1  0.24940294  0.47215390  0.41593326  1
  O  O290  1  0.24944370  0.48201985  0.74868141  1
  O  O291  1  0.24594114  0.97484138  0.08975209  1
  O  O292  1  0.24797719  0.98337126  0.42055350  1
  O  O293  1  0.24736095  0.97925703  0.75563152  1
  O  O294  1  0.58117200  0.47462160  0.08362606  1
  O  O295  1  0.58712415  0.48276175  0.41047940  1
  O  O296  1  0.58150389  0.47673273  0.75365155  1
  O  O297  1  0.58998952  0.98886948  0.07758795  1
  O  O298  1  0.58110619  0.99447556  0.41842581  1
  O  O299  1  0.57487107  0.98921476  0.76214618  1
  O  O300  1  0.92271520  0.49092990  0.07762614  1
  O  O301  1  0.91929201  0.48744148  0.41827692  1
  O  O302  1  0.91705484  0.49399883  0.74983397  1
  O  O303  1  0.91284566  0.97981194  0.08437775  1
  O  O304  1  0.90727144  0.98714113  0.42774734  1
  O  O305  1  0.91713968  0.97605605  0.75306848  1
  O  O306  1  0.08430444  0.27382698  0.08649668  1
  O  O307  1  0.08577990  0.27138360  0.41684423  1
  O  O308  1  0.08505027  0.26281044  0.75798983  1
  O  O309  1  0.08251563  0.77563717  0.07803322  1
  O  O310  1  0.08676541  0.75800315  0.42754874  1
  O  O311  1  0.08383863  0.77916096  0.75566982  1
  O  O312  1  0.42086104  0.26602263  0.08563399  1
  O  O313  1  0.41232085  0.27084591  0.41537189  1
  O  O314  1  0.41439321  0.27025356  0.74457166  1
  O  O315  1  0.40775272  0.76593800  0.07612577  1
  O  O316  1  0.41001647  0.75712081  0.40619645  1
  O  O317  1  0.41155232  0.77052964  0.75259106  1
  O  O318  1  0.74444828  0.26629265  0.06773865  1
  O  O319  1  0.75047094  0.26700151  0.41035939  1
  O  O320  1  0.73917042  0.26547667  0.74051094  1
  O  O321  1  0.75352650  0.77201396  0.08504813  1
  O  O322  1  0.75006399  0.77246393  0.41452167  1
  O  O323  1  0.75496653  0.76839961  0.75240903  1
  O  O324  1  0.25661473  0.01478169  0.26070572  1
  O  O325  1  0.25589432  0.02315807  0.58511532  1
  O  O326  1  0.26321190  0.01547014  0.92776858  1
  O  O327  1  0.25544936  0.52328747  0.25479113  1
  O  O328  1  0.23862432  0.51192698  0.57584038  1
  O  O329  1  0.24643092  0.52141151  0.92179159  1
  O  O330  1  0.59110165  0.00245702  0.25148438  1
  O  O331  1  0.58617052  0.02336202  0.58736045  1
  O  O332  1  0.59004465  0.02735230  0.91945139  1
  O  O333  1  0.58041578  0.51901084  0.24457055  1
  O  O334  1  0.58970924  0.50491899  0.58660831  1
  O  O335  1  0.58968571  0.51431764  0.92460365  1
  O  O336  1  0.92092901  0.02236688  0.25373016  1
  O  O337  1  0.91989908  0.02809283  0.58753558  1
  O  O338  1  0.91570434  0.02563223  0.91902786  1
  O  O339  1  0.92200792  0.50776177  0.25192544  1
  O  O340  1  0.91525521  0.51726518  0.58310377  1
  O  O341  1  0.92495401  0.51627173  0.92108992  1
  O  O342  1  0.08000402  0.23404191  0.25900296  1
  O  O343  1  0.08482220  0.22986079  0.58193696  1
  O  O344  1  0.07447344  0.23888700  0.92641743  1
  O  O345  1  0.09458738  0.73822397  0.24534714  1
  O  O346  1  0.07526669  0.73584431  0.59524207  1
  O  O347  1  0.08750401  0.72722139  0.91669717  1
  O  O348  1  0.41332692  0.23796006  0.25411483  1
  O  O349  1  0.41866392  0.22492391  0.57960108  1
  O  O350  1  0.42144766  0.23381393  0.91064195  1
  O  O351  1  0.41748036  0.72483712  0.24319221  1
  O  O352  1  0.40811963  0.74736794  0.58421103  1
  O  O353  1  0.41315331  0.74083092  0.91873613  1
  O  O354  1  0.75858243  0.23763944  0.24191571  1
  O  O355  1  0.75446079  0.22683152  0.58009156  1
  O  O356  1  0.75446849  0.22592894  0.90798401  1
  O  O357  1  0.73918439  0.73141551  0.25618221  1
  O  O358  1  0.75694504  0.73909384  0.57487755  1
  O  O359  1  0.74673474  0.74499399  0.92233832  1
