# generated using pymatgen
data_Ba17Sr5La8Pr42Mn72O216
_symmetry_space_group_name_H-M   'P 1'
_cell_length_a   16.67636326
_cell_length_b   15.70524115
_cell_length_c   16.82628122
_cell_angle_alpha   89.99103444
_cell_angle_beta   90.02965634
_cell_angle_gamma   89.99418575
_symmetry_Int_Tables_number   1
_chemical_formula_structural   Ba17Sr5La8Pr42Mn72O216
_chemical_formula_sum   'Ba17 Sr5 La8 Pr42 Mn72 O216'
_cell_volume   4406.90849782
_cell_formula_units_Z   1
loop_
 _symmetry_equiv_pos_site_id
 _symmetry_equiv_pos_as_xyz
  1  'x, y, z'
loop_
 _atom_site_type_symbol
 _atom_site_label
 _atom_site_symmetry_multiplicity
 _atom_site_fract_x
 _atom_site_fract_y
 _atom_site_fract_z
 _atom_site_occupancy
  Ba  Ba0  1  0.33164754  0.37391735  0.33558115  1
  Ba  Ba1  1  -0.00108786  0.62380851  0.99855375  1
  Ba  Ba2  1  0.33454984  0.62506394  0.99956610  1
  Ba  Ba3  1  0.83355580  0.12500229  0.83455367  1
  Ba  Ba4  1  0.83656308  0.37634612  0.49895842  1
  Ba  Ba5  1  0.33179762  0.87560470  0.33372116  1
  Ba  Ba6  1  0.83230086  0.37424613  0.16892080  1
  Ba  Ba7  1  0.49875772  0.37371217  0.49889200  1
  Ba  Ba8  1  0.33337869  0.87601125  0.00165485  1
  Ba  Ba9  1  0.66784564  0.12362323  0.33136007  1
  Ba  Ba10  1  0.33131140  0.62562253  0.33230419  1
  Ba  Ba11  1  0.16489990  0.62463203  0.16620734  1
  Ba  Ba12  1  0.83175109  0.62597399  0.83391766  1
  Ba  Ba13  1  0.83251531  0.87544925  0.83177157  1
  Ba  Ba14  1  0.66456789  0.37514774  0.66734123  1
  Ba  Ba15  1  0.33359494  0.37336271  0.00075616  1
  Ba  Ba16  1  0.66852546  0.37256108  0.33614286  1
  Sr  Sr17  1  -0.00160583  0.37482076  0.66614732  1
  Sr  Sr18  1  0.00075845  0.12574564  0.33075220  1
  Sr  Sr19  1  0.67058458  0.12518675  1.00125118  1
  Sr  Sr20  1  -0.00048939  0.12746667  0.99749530  1
  Sr  Sr21  1  0.50153295  0.12369605  0.16602675  1
  La  La22  1  0.49539917  0.62460101  0.16800497  1
  La  La23  1  0.16083545  0.37669735  0.83361297  1
  La  La24  1  0.16265433  0.87351839  0.83675740  1
  La  La25  1  0.16462135  0.87252799  0.16460198  1
  La  La26  1  0.16673056  0.62348161  0.84067287  1
  La  La27  1  -0.00359030  0.62508694  0.32745772  1
  La  La28  1  0.83626424  0.87623927  0.49730777  1
  La  La29  1  0.17006157  0.12475897  0.16996614  1
  Pr  Pr30  1  0.16998502  0.12638000  0.84006373  1
  Pr  Pr31  1  0.66955912  0.37262817  0.00212570  1
  Pr  Pr32  1  0.83348804  0.87900098  0.16270215  1
  Pr  Pr33  1  0.66780804  0.62398535  0.99924408  1
  Pr  Pr34  1  0.66201569  0.62060950  0.33213275  1
  Pr  Pr35  1  0.83852483  0.37459156  0.82989040  1
  Pr  Pr36  1  0.00207416  0.87650089  0.33172672  1
  Pr  Pr37  1  0.50758674  0.12616977  0.83656361  1
  Pr  Pr38  1  -0.00255286  0.62563594  0.66302897  1
  Pr  Pr39  1  0.83516599  0.12970448  0.50165820  1
  Pr  Pr40  1  0.83421404  0.12575074  0.16779996  1
  Pr  Pr41  1  0.16508573  0.37430450  0.49860925  1
  Pr  Pr42  1  -0.00122020  0.87557689  0.67034245  1
  Pr  Pr43  1  0.17317204  0.12390745  0.50402318  1
  Pr  Pr44  1  0.34382825  0.12370641  0.66682487  1
  Pr  Pr45  1  0.67383156  0.12292115  0.66198014  1
  Pr  Pr46  1  0.49537339  0.37573124  0.82865040  1
  Pr  Pr47  1  0.49896306  0.87678057  0.49459727  1
  Pr  Pr48  1  -0.00504139  0.87659778  -0.00077368  1
  Pr  Pr49  1  0.50701339  0.12703082  0.49785000  1
  Pr  Pr50  1  0.82881626  0.62632805  0.16743369  1
  Pr  Pr51  1  0.00232102  0.12392879  0.66233278  1
  Pr  Pr52  1  0.49802204  0.62292440  0.49794294  1
  Pr  Pr53  1  0.17079184  0.62628477  0.50053636  1
  Pr  Pr54  1  0.66658534  0.62826043  0.66332279  1
  Pr  Pr55  1  0.34335756  0.12464944  0.99781046  1
  Pr  Pr56  1  0.00126174  0.37550494  0.33762782  1
  Pr  Pr57  1  0.50012687  0.87709587  0.16293781  1
  Pr  Pr58  1  0.50172574  0.37106731  0.16616107  1
  Pr  Pr59  1  0.33477687  0.62433811  0.66522075  1
  Pr  Pr60  1  0.16402447  0.87585309  0.49946809  1
  Pr  Pr61  1  0.50263975  0.62365136  0.83584938  1
  Pr  Pr62  1  0.65807347  0.87489565  0.67214713  1
  Pr  Pr63  1  0.67157739  0.87629171  -0.00016178  1
  Pr  Pr64  1  0.32500783  0.87802393  0.67146781  1
  Pr  Pr65  1  0.34097284  0.12531873  0.33343332  1
  Pr  Pr66  1  0.82767244  0.62306502  0.50232417  1
  Pr  Pr67  1  0.32858051  0.37256880  0.67205333  1
  Pr  Pr68  1  0.16286742  0.37670547  0.16709939  1
  Pr  Pr69  1  -0.00354631  0.37358925  -0.00123153  1
  Pr  Pr70  1  0.49329001  0.87483642  0.83218916  1
  Pr  Pr71  1  0.66674219  0.87722928  0.33361620  1
  Mn  Mn72  1  0.00015505  0.00223930  0.16537999  1
  Mn  Mn73  1  0.00182036  0.00039114  0.49880700  1
  Mn  Mn74  1  0.00260525  0.00152552  0.83264313  1
  Mn  Mn75  1  -0.00328872  0.49855054  0.16696359  1
  Mn  Mn76  1  0.00336054  0.50333409  0.49799975  1
  Mn  Mn77  1  0.00026171  0.49908960  0.83007003  1
  Mn  Mn78  1  0.33344477  0.00142241  0.16718717  1
  Mn  Mn79  1  0.33429869  -0.00022512  0.50269724  1
  Mn  Mn80  1  0.33212074  0.00104703  0.83400779  1
  Mn  Mn81  1  0.33359062  0.49722246  0.16700899  1
  Mn  Mn82  1  0.33215651  0.50167081  0.50310811  1
  Mn  Mn83  1  0.33236072  0.49918287  0.83109826  1
  Mn  Mn84  1  0.66806091  -0.00067930  0.16578242  1
  Mn  Mn85  1  0.66841686  -0.00265346  0.50065363  1
  Mn  Mn86  1  0.66393266  -0.00101986  0.83258555  1
  Mn  Mn87  1  0.66516899  0.50026149  0.16526084  1
  Mn  Mn88  1  0.66548705  0.50218011  0.49959227  1
  Mn  Mn89  1  0.66437191  0.49911882  0.83539461  1
  Mn  Mn90  1  0.00034311  0.24842033  0.16582551  1
  Mn  Mn91  1  0.00332977  0.24792539  0.49880693  1
  Mn  Mn92  1  0.00190700  0.24903313  0.83113876  1
  Mn  Mn93  1  -0.00357901  0.75165241  0.16642470  1
  Mn  Mn94  1  0.00175064  0.75014640  0.49780055  1
  Mn  Mn95  1  0.00111804  0.75099345  0.83148011  1
  Mn  Mn96  1  0.33377300  0.24844653  0.16742589  1
  Mn  Mn97  1  0.33308663  0.24673342  0.50309735  1
  Mn  Mn98  1  0.33240442  0.24801348  0.83346123  1
  Mn  Mn99  1  0.33364056  0.75136890  0.16711542  1
  Mn  Mn100  1  0.33349125  0.75054014  0.50368598  1
  Mn  Mn101  1  0.33267724  0.75170846  0.83085758  1
  Mn  Mn102  1  0.66675345  0.24903242  0.16543896  1
  Mn  Mn103  1  0.66831356  0.24809597  0.49987915  1
  Mn  Mn104  1  0.66528000  0.25048116  0.83507352  1
  Mn  Mn105  1  0.66722032  0.75043620  0.16797039  1
  Mn  Mn106  1  0.66598413  0.75353999  0.49967596  1
  Mn  Mn107  1  0.66284101  0.75041888  0.83300007  1
  Mn  Mn108  1  0.16542068  0.24882087  0.00319978  1
  Mn  Mn109  1  0.16574268  0.24619441  0.33522756  1
  Mn  Mn110  1  0.16645060  0.24834990  0.66889475  1
  Mn  Mn111  1  0.16565114  0.75123725  -0.00054381  1
  Mn  Mn112  1  0.16384006  0.75314558  0.33445642  1
  Mn  Mn113  1  0.16625256  0.74952242  0.66857277  1
  Mn  Mn114  1  0.50354463  0.24909578  -0.00114257  1
  Mn  Mn115  1  0.49998248  0.24784178  0.33155206  1
  Mn  Mn116  1  0.49952218  0.24777231  0.66739866  1
  Mn  Mn117  1  0.50380666  0.75042741  -0.00030704  1
  Mn  Mn118  1  0.50157784  0.75219172  0.33243268  1
  Mn  Mn119  1  0.49673201  0.75101840  0.66513218  1
  Mn  Mn120  1  0.83329145  0.24981622  -0.00085201  1
  Mn  Mn121  1  0.83702034  0.24696405  0.33389697  1
  Mn  Mn122  1  0.83457698  0.25068086  0.66787180  1
  Mn  Mn123  1  0.83300644  0.75125136  0.00118615  1
  Mn  Mn124  1  0.83235184  0.75226146  0.33257668  1
  Mn  Mn125  1  0.83328132  0.74983346  0.66313229  1
  Mn  Mn126  1  0.16476750  0.00228687  0.00279101  1
  Mn  Mn127  1  0.16587246  0.00216591  0.33522462  1
  Mn  Mn128  1  0.16665077  0.00138893  0.66971296  1
  Mn  Mn129  1  0.16579202  0.49746776  0.00006259  1
  Mn  Mn130  1  0.16458762  0.49890714  0.33450645  1
  Mn  Mn131  1  0.16575738  0.50085079  0.66754768  1
  Mn  Mn132  1  0.50411899  0.00015337  -0.00104692  1
  Mn  Mn133  1  0.50071020  -0.00132912  0.33114500  1
  Mn  Mn134  1  0.49915788  -0.00057848  0.66514356  1
  Mn  Mn135  1  0.50240128  0.49884084  -0.00066773  1
  Mn  Mn136  1  0.49926670  0.50029870  0.33282304  1
  Mn  Mn137  1  0.49752736  0.50211653  0.66737865  1
  Mn  Mn138  1  0.83372781  0.00117660  -0.00026971  1
  Mn  Mn139  1  0.83574317  -0.00156933  0.33173651  1
  Mn  Mn140  1  0.83492018  -0.00045244  0.66364927  1
  Mn  Mn141  1  0.83225486  0.49891696  -0.00082594  1
  Mn  Mn142  1  0.83404054  0.50332665  0.33411762  1
  Mn  Mn143  1  0.83278335  0.50008762  0.66760280  1
  O  O144  1  0.15843826  0.12611403  0.02575512  1
  O  O145  1  0.16188392  0.12343230  0.36203898  1
  O  O146  1  0.15748216  0.12431147  0.69646863  1
  O  O147  1  0.16583457  0.62390106  0.00487823  1
  O  O148  1  0.15726513  0.63033390  0.35520975  1
  O  O149  1  0.16721490  0.62974435  0.69709193  1
  O  O150  1  0.49658177  0.12434179  0.01657196  1
  O  O151  1  0.49692508  0.12009326  0.35227371  1
  O  O152  1  0.49742088  0.12101234  0.69321646  1
  O  O153  1  0.50977295  0.62507038  0.02435163  1
  O  O154  1  0.50791923  0.63190106  0.35308665  1
  O  O155  1  0.49723392  0.63036199  0.69366330  1
  O  O156  1  0.83435284  0.12411481  0.02182762  1
  O  O157  1  0.83904509  0.11740038  0.35796968  1
  O  O158  1  0.83147482  0.12373824  0.67719709  1
  O  O159  1  0.82862422  0.62685507  0.02172249  1
  O  O160  1  0.84011138  0.63282613  0.35912209  1
  O  O161  1  0.83153575  0.62584623  0.67746965  1
  O  O162  1  0.16070049  0.36758152  0.31279966  1
  O  O163  1  0.17409470  0.37040071  0.64052035  1
  O  O164  1  0.16179223  0.37091784  0.97881358  1
  O  O165  1  0.16046511  0.87954935  0.31134405  1
  O  O166  1  0.16991131  0.87524188  0.64093921  1
  O  O167  1  0.16105549  0.87860445  0.98095100  1
  O  O168  1  0.49997223  0.37106002  0.31507779  1
  O  O169  1  0.49011238  0.37277334  0.65585226  1
  O  O170  1  0.50861516  0.37318722  0.97156377  1
  O  O171  1  0.50643595  0.87492362  0.31006665  1
  O  O172  1  0.50084614  0.87497152  0.63620198  1
  O  O173  1  0.50891991  0.87634142  0.97425916  1
  O  O174  1  0.84193949  0.37673126  0.32607066  1
  O  O175  1  0.83630755  0.37692837  0.65605112  1
  O  O176  1  0.82837641  0.37426139  0.97764279  1
  O  O177  1  0.83235678  0.87369576  0.30565413  1
  O  O178  1  0.84185603  0.87378928  0.64240789  1
  O  O179  1  0.83126867  0.87573454  0.98922265  1
  O  O180  1  0.00479272  0.37167735  0.19372310  1
  O  O181  1  0.00843440  0.37582698  0.51807057  1
  O  O182  1  0.00097470  0.37254002  0.85116329  1
  O  O183  1  -0.00505133  0.87791522  0.18911042  1
  O  O184  1  0.00291173  0.87452775  0.52850615  1
  O  O185  1  0.00636385  0.87813380  0.85241156  1
  O  O186  1  0.33818878  0.37073518  0.17822778  1
  O  O187  1  0.32772350  0.37420995  0.52754966  1
  O  O188  1  0.34273561  0.37054318  0.84257821  1
  O  O189  1  0.33725518  0.87885226  0.17618813  1
  O  O190  1  0.33801746  0.87551503  0.52834118  1
  O  O191  1  0.33858867  0.87799811  0.84573672  1
  O  O192  1  0.66087371  0.37642416  0.17932802  1
  O  O193  1  0.66670768  0.37210866  0.50897894  1
  O  O194  1  0.65366855  0.37719221  0.85774087  1
  O  O195  1  0.67464889  0.87166054  0.19278444  1
  O  O196  1  0.66231337  0.87475062  0.52915308  1
  O  O197  1  0.65583517  0.87519514  0.85502399  1
  O  O198  1  0.00006778  0.12456801  0.14459165  1
  O  O199  1  0.00485836  0.12135231  0.47973061  1
  O  O200  1  0.00928452  0.12488416  0.80813969  1
  O  O201  1  -0.00798886  0.62629778  0.15503905  1
  O  O202  1  0.01264848  0.63008861  0.47033669  1
  O  O203  1  0.00966256  0.62514940  0.81014388  1
  O  O204  1  0.32885492  0.12459623  0.14142140  1
  O  O205  1  0.32483066  0.12046563  0.47832394  1
  O  O206  1  0.32527684  0.12382478  0.80999203  1
  O  O207  1  0.33947871  0.62428834  0.15805581  1
  O  O208  1  0.32798321  0.62812869  0.48840647  1
  O  O209  1  0.33004283  0.62776089  0.80908050  1
  O  O210  1  0.67113420  0.12348729  0.15000698  1
  O  O211  1  0.66637847  0.12000614  0.49053394  1
  O  O212  1  0.65874117  0.12099608  0.80575547  1
  O  O213  1  0.66410863  0.62761835  0.14146513  1
  O  O214  1  0.66596556  0.63431875  0.47672949  1
  O  O215  1  0.65855301  0.62601556  0.80687106  1
  O  O216  1  0.08693340  0.01537711  0.24264331  1
  O  O217  1  0.08941675  0.02008341  0.58244253  1
  O  O218  1  0.09295080  0.01688913  0.90855234  1
  O  O219  1  0.07079318  0.51071774  0.25788788  1
  O  O220  1  0.08556088  0.52678286  0.58305866  1
  O  O221  1  0.08548711  0.50642360  0.91018535  1
  O  O222  1  0.41555912  0.01747540  0.25180266  1
  O  O223  1  0.42295094  0.02488971  0.57875933  1
  O  O224  1  0.42018324  0.01994354  0.91126640  1
  O  O225  1  0.42276850  0.50934519  0.24599875  1
  O  O226  1  0.41727304  0.52449688  0.58294223  1
  O  O227  1  0.42492003  0.51337523  0.90681410  1
  O  O228  1  0.75895500  0.01285202  0.24195393  1
  O  O229  1  0.75771527  0.01529751  0.57520241  1
  O  O230  1  0.74700236  0.00739314  0.91837139  1
  O  O231  1  0.74760574  0.52455336  0.25152855  1
  O  O232  1  0.74555044  0.52221161  0.58519637  1
  O  O233  1  0.74165286  0.51372140  0.92394395  1
  O  O234  1  0.25284904  0.22452110  0.26123031  1
  O  O235  1  0.25637916  0.22276980  0.59614123  1
  O  O236  1  0.25448376  0.22603369  0.92634314  1
  O  O237  1  0.24232008  0.74821479  0.25189874  1
  O  O238  1  0.25043592  0.72988295  0.59107556  1
  O  O239  1  0.24884399  0.74214680  0.90821233  1
  O  O240  1  0.57883914  0.24083453  0.24266494  1
  O  O241  1  0.58566209  0.22692613  0.58991761  1
  O  O242  1  0.58465018  0.22677531  0.91734568  1
  O  O243  1  0.58446777  0.73100197  0.24819724  1
  O  O244  1  0.58203090  0.72836177  0.58558777  1
  O  O245  1  0.58359939  0.72551338  0.91662241  1
  O  O246  1  0.91684813  0.22851505  0.24525455  1
  O  O247  1  0.92270850  0.22834123  0.58150237  1
  O  O248  1  0.92152739  0.24429645  0.91806339  1
  O  O249  1  0.90673479  0.73273710  0.24442861  1
  O  O250  1  0.91785628  0.72629980  0.57330756  1
  O  O251  1  0.91867050  0.74644371  0.91624953  1
  O  O252  1  0.08075087  0.47772650  0.08688514  1
  O  O253  1  0.08640292  0.47746275  0.41942546  1
  O  O254  1  0.08513724  0.48046663  0.74793655  1
  O  O255  1  0.07664570  0.97713482  0.07889613  1
  O  O256  1  0.08091163  0.97564376  0.41615980  1
  O  O257  1  0.08186654  0.97609972  0.74454733  1
  O  O258  1  0.42504005  0.48681962  0.08426727  1
  O  O259  1  0.41608096  0.49844832  0.42097253  1
  O  O260  1  0.40774282  0.48683001  0.74182272  1
  O  O261  1  0.42490389  0.98785605  0.08359323  1
  O  O262  1  0.42117062  0.98620113  0.42090762  1
  O  O263  1  0.41076053  0.98194720  0.73842454  1
  O  O264  1  0.74616533  0.49038776  0.08205318  1
  O  O265  1  0.75452066  0.50373796  0.41788953  1
  O  O266  1  0.75047404  0.48262183  0.76188846  1
  O  O267  1  0.74918333  0.97988132  0.08330111  1
  O  O268  1  0.74985197  0.97413201  0.41344659  1
  O  O269  1  0.73755499  0.98396253  0.73899863  1
  O  O270  1  0.23860497  0.26292656  0.09626695  1
  O  O271  1  0.24042325  0.26120037  0.43277006  1
  O  O272  1  0.24298761  0.26946921  0.75808944  1
  O  O273  1  0.24486954  0.76288270  0.08607460  1
  O  O274  1  0.24362850  0.76574233  0.42973514  1
  O  O275  1  0.24750547  0.77503333  0.75001414  1
  O  O276  1  0.58462386  0.27052810  0.07970425  1
  O  O277  1  0.58011670  0.24924507  0.42058214  1
  O  O278  1  0.57006437  0.26222259  0.75974522  1
  O  O279  1  0.59108303  0.77758943  0.08396308  1
  O  O280  1  0.58704791  0.77737852  0.41547915  1
  O  O281  1  0.57281437  0.77430603  0.74973368  1
  O  O282  1  0.91995972  0.26640886  0.07831343  1
  O  O283  1  0.92476017  0.25965880  0.41226169  1
  O  O284  1  0.91600383  0.26497649  0.75255075  1
  O  O285  1  0.91734169  0.77319831  0.08241086  1
  O  O286  1  0.91971870  0.77561374  0.41040332  1
  O  O287  1  0.92439297  0.76041116  0.73980334  1
  O  O288  1  0.24493209  0.48464457  0.08771596  1
  O  O289  1  0.24268010  0.48902628  0.43012806  1
  O  O290  1  0.24762855  0.47730118  0.75023108  1
  O  O291  1  0.23772075  0.98806833  0.09474853  1
  O  O292  1  0.24246785  0.98327350  0.43217357  1
  O  O293  1  0.24282243  0.98011098  0.75690049  1
  O  O294  1  0.58392090  0.47702285  0.08042478  1
  O  O295  1  0.58381861  0.49931406  0.41689887  1
  O  O296  1  0.57138065  0.48763267  0.75876071  1
  O  O297  1  0.58777903  0.97557451  0.08183259  1
  O  O298  1  0.58389371  0.97879584  0.41932014  1
  O  O299  1  0.57346546  0.97488881  0.75175763  1
  O  O300  1  0.92067682  0.48180919  0.07628690  1
  O  O301  1  0.92838757  0.49382264  0.40703777  1
  O  O302  1  0.91969531  0.48788806  0.74751344  1
  O  O303  1  0.91446957  0.98133108  0.08587198  1
  O  O304  1  0.91660960  0.97299145  0.41606921  1
  O  O305  1  0.92221438  0.98875257  0.74311968  1
  O  O306  1  0.07954447  0.27469015  0.08084460  1
  O  O307  1  0.08305897  0.27105748  0.41579604  1
  O  O308  1  0.08257110  0.27103699  0.74573915  1
  O  O309  1  0.07919640  0.77177147  0.08523526  1
  O  O310  1  0.08355840  0.77953302  0.41916424  1
  O  O311  1  0.08411716  0.77544231  0.74614523  1
  O  O312  1  0.42369036  0.26160151  0.08222840  1
  O  O313  1  0.41238992  0.24875823  0.41551026  1
  O  O314  1  0.40644784  0.25858676  0.73918208  1
  O  O315  1  0.42774877  0.76276994  0.08512697  1
  O  O316  1  0.42491387  0.76383567  0.42477808  1
  O  O317  1  0.41045295  0.77407615  0.74142360  1
  O  O318  1  0.74666053  0.26231058  0.07904032  1
  O  O319  1  0.75686215  0.24874266  0.42116712  1
  O  O320  1  0.74823619  0.26428206  0.75647119  1
  O  O321  1  0.75538387  0.76753971  0.09255513  1
  O  O322  1  0.75297660  0.77658896  0.41742941  1
  O  O323  1  0.73757636  0.76533529  0.74324553  1
  O  O324  1  0.25174208  0.02356774  0.26020409  1
  O  O325  1  0.25617230  0.02039651  0.59628668  1
  O  O326  1  0.25307884  0.02421716  0.92768905  1
  O  O327  1  0.24303928  0.50207078  0.25220703  1
  O  O328  1  0.25112795  0.52371555  0.59014921  1
  O  O329  1  0.24891289  0.50716912  0.90853211  1
  O  O330  1  0.58361548  0.00339281  0.24569448  1
  O  O331  1  0.58721738  0.01928738  0.59148526  1
  O  O332  1  0.58273602  0.02065622  0.91407256  1
  O  O333  1  0.58296980  0.52111167  0.24666247  1
  O  O334  1  0.58147490  0.52523285  0.58701152  1
  O  O335  1  0.58473700  0.52608624  0.91875520  1
  O  O336  1  0.91852448  0.01852890  0.24713627  1
  O  O337  1  0.92177873  0.02054030  0.57971526  1
  O  O338  1  0.92502973  0.00806704  0.92137863  1
  O  O339  1  0.90821416  0.52125881  0.24475843  1
  O  O340  1  0.91981938  0.52629366  0.57456354  1
  O  O341  1  0.91380213  0.50089205  0.91134755  1
  O  O342  1  0.08920240  0.23008420  0.24449326  1
  O  O343  1  0.08998347  0.22629784  0.58064803  1
  O  O344  1  0.09115740  0.23488123  0.90946084  1
  O  O345  1  0.06998014  0.74351238  0.25695057  1
  O  O346  1  0.08528221  0.72720640  0.58564416  1
  O  O347  1  0.08811178  0.74111305  0.90903068  1
  O  O348  1  0.41585395  0.22911588  0.25001477  1
  O  O349  1  0.42170270  0.22214904  0.57887285  1
  O  O350  1  0.42034697  0.22799765  0.91032962  1
  O  O351  1  0.42283970  0.74150841  0.24722277  1
  O  O352  1  0.41789718  0.72444865  0.58374272  1
  O  O353  1  0.42322090  0.73763285  0.90375968  1
  O  O354  1  0.75642114  0.23446878  0.24567234  1
  O  O355  1  0.75137756  0.23052787  0.58432014  1
  O  O356  1  0.74730263  0.24258857  0.91847696  1
  O  O357  1  0.74562594  0.72320593  0.25559663  1
  O  O358  1  0.74915625  0.73156799  0.57961363  1
  O  O359  1  0.74270717  0.73969626  0.92752956  1
