# generated using pymatgen
data_Ba17Sr5La8Pr42Mn72O216
_symmetry_space_group_name_H-M   'P 1'
_cell_length_a   16.69157855
_cell_length_b   15.70792462
_cell_length_c   16.82993837
_cell_angle_alpha   89.99862458
_cell_angle_beta   90.01819670
_cell_angle_gamma   90.01204952
_symmetry_Int_Tables_number   1
_chemical_formula_structural   Ba17Sr5La8Pr42Mn72O216
_chemical_formula_sum   'Ba17 Sr5 La8 Pr42 Mn72 O216'
_cell_volume   4412.64218831
_cell_formula_units_Z   1
loop_
 _symmetry_equiv_pos_site_id
 _symmetry_equiv_pos_as_xyz
  1  'x, y, z'
loop_
 _atom_site_type_symbol
 _atom_site_label
 _atom_site_symmetry_multiplicity
 _atom_site_fract_x
 _atom_site_fract_y
 _atom_site_fract_z
 _atom_site_occupancy
  Ba  Ba0  1  0.33105286  0.12450614  0.66622104  1
  Ba  Ba1  1  0.50308337  0.87599267  0.16705343  1
  Ba  Ba2  1  0.16622195  0.37488391  0.49738700  1
  Ba  Ba3  1  0.67086643  0.87452022  0.66859520  1
  Ba  Ba4  1  0.33035123  0.12518874  0.33051107  1
  Ba  Ba5  1  0.83045715  0.62362655  0.16752812  1
  Ba  Ba6  1  0.66507235  0.12640437  0.66899638  1
  Ba  Ba7  1  0.00388589  0.87464693  0.00073111  1
  Ba  Ba8  1  0.66919385  0.37555424  0.66696247  1
  Ba  Ba9  1  0.32843559  0.62439900  0.33170123  1
  Ba  Ba10  1  0.33409713  0.12592317  0.99634691  1
  Ba  Ba11  1  0.33717403  0.87496051  0.33124564  1
  Ba  Ba12  1  0.83667937  0.37494833  0.16760568  1
  Ba  Ba13  1  0.83220411  0.12664944  0.16733405  1
  Ba  Ba14  1  0.83649632  0.87511274  0.50447928  1
  Ba  Ba15  1  0.50134853  0.37431562  0.16803905  1
  Ba  Ba16  1  0.66260001  0.62371656  0.66621150  1
  Sr  Sr17  1  0.49948099  0.12571772  0.83176600  1
  Sr  Sr18  1  0.49643690  0.12528417  0.16410557  1
  Sr  Sr19  1  0.82592945  0.12587110  0.83788495  1
  Sr  Sr20  1  0.33883102  0.37289614  0.33463271  1
  Sr  Sr21  1  0.83929944  0.37304288  0.83288791  1
  La  La22  1  0.17816327  0.87422007  0.83162391  1
  La  La23  1  -0.00412408  0.12597390  0.66825914  1
  La  La24  1  -0.00703152  0.12552879  0.99797435  1
  La  La25  1  0.67338214  0.87686900  0.00329633  1
  La  La26  1  0.82825522  0.12595379  0.50516213  1
  La  La27  1  0.34079687  0.37471503  0.66360176  1
  La  La28  1  -0.00481400  0.62411522  0.33520541  1
  La  La29  1  -0.00293894  0.37553873  0.33456758  1
  Pr  Pr30  1  0.65865768  0.62572493  0.33187371  1
  Pr  Pr31  1  -0.00278250  0.12623720  0.33447959  1
  Pr  Pr32  1  0.83617374  0.37572698  0.50296037  1
  Pr  Pr33  1  0.50606792  0.88070308  0.83318048  1
  Pr  Pr34  1  0.67511865  0.37257055  0.00175621  1
  Pr  Pr35  1  0.82015466  0.62427121  0.83918257  1
  Pr  Pr36  1  0.49381296  0.62579972  0.16966996  1
  Pr  Pr37  1  0.82403730  0.62477721  0.50258802  1
  Pr  Pr38  1  0.48828338  0.62553184  0.50193880  1
  Pr  Pr39  1  0.00345949  0.87543515  0.33397554  1
  Pr  Pr40  1  0.67295269  0.37406101  0.33604030  1
  Pr  Pr41  1  0.65720834  0.62074072  0.99916738  1
  Pr  Pr42  1  0.15938490  0.62769594  0.16850857  1
  Pr  Pr43  1  0.00863313  0.87557300  0.67490234  1
  Pr  Pr44  1  0.15515761  0.62388290  0.83597987  1
  Pr  Pr45  1  0.34240286  0.37449067  0.00078046  1
  Pr  Pr46  1  0.17202210  0.87485101  0.50008734  1
  Pr  Pr47  1  0.17695092  0.37587582  0.82856860  1
  Pr  Pr48  1  0.16241952  0.12195017  0.16790307  1
  Pr  Pr49  1  0.34569929  0.87452387  0.66620311  1
  Pr  Pr50  1  0.32606193  0.62361435  0.99929337  1
  Pr  Pr51  1  0.16245345  0.12690284  0.83806614  1
  Pr  Pr52  1  0.17817483  0.87466725  0.16257868  1
  Pr  Pr53  1  -0.01393362  0.62478915  0.99839500  1
  Pr  Pr54  1  0.65838591  0.12457856  0.33144664  1
  Pr  Pr55  1  -0.01058790  0.62378851  0.66626076  1
  Pr  Pr56  1  0.16193214  0.12478560  0.50170308  1
  Pr  Pr57  1  0.49411340  0.62430673  0.83062752  1
  Pr  Pr58  1  0.00642474  0.37480809  0.67254880  1
  Pr  Pr59  1  0.00640544  0.37475168  0.00435708  1
  Pr  Pr60  1  0.67528055  0.87633767  0.33765419  1
  Pr  Pr61  1  0.48967206  0.12404229  0.50263380  1
  Pr  Pr62  1  0.32456051  0.62518168  0.65919114  1
  Pr  Pr63  1  0.17490982  0.37594639  0.16653778  1
  Pr  Pr64  1  0.15780693  0.62583033  0.50091475  1
  Pr  Pr65  1  0.34331414  0.87515441  0.00294778  1
  Pr  Pr66  1  0.50448303  0.36972040  0.83103407  1
  Pr  Pr67  1  0.51021279  0.87841977  0.49478237  1
  Pr  Pr68  1  0.65806815  0.12862047  0.99572979  1
  Pr  Pr69  1  0.84008155  0.87537929  0.16838017  1
  Pr  Pr70  1  0.50321279  0.37137656  0.49389956  1
  Pr  Pr71  1  0.84506887  0.87654993  0.82878174  1
  Mn  Mn72  1  0.00139852  0.00005709  0.16771313  1
  Mn  Mn73  1  0.00122502  -0.00113293  0.50196856  1
  Mn  Mn74  1  0.00275352  0.00145041  0.83432576  1
  Mn  Mn75  1  0.00345956  0.49997488  0.16720104  1
  Mn  Mn76  1  -0.00286188  0.50098312  0.50231993  1
  Mn  Mn77  1  -0.00005124  0.49951694  0.83537661  1
  Mn  Mn78  1  0.33374525  0.00150905  0.16374553  1
  Mn  Mn79  1  0.33180359  -0.00120128  0.49962075  1
  Mn  Mn80  1  0.33388160  -0.00161257  0.83198373  1
  Mn  Mn81  1  0.33178087  0.49934529  0.16438048  1
  Mn  Mn82  1  0.33110882  0.49980400  0.49820044  1
  Mn  Mn83  1  0.33355743  0.50197078  0.83098094  1
  Mn  Mn84  1  0.66778888  0.00086603  0.16764315  1
  Mn  Mn85  1  0.66814707  0.00205582  0.49869919  1
  Mn  Mn86  1  0.66764168  0.00031047  0.83739078  1
  Mn  Mn87  1  0.66538028  0.50007496  0.16632524  1
  Mn  Mn88  1  0.66421156  0.49955313  0.49805501  1
  Mn  Mn89  1  0.66443715  0.49940494  0.83435374  1
  Mn  Mn90  1  0.00348701  0.25001722  0.16707854  1
  Mn  Mn91  1  -0.00123391  0.24956734  0.50158036  1
  Mn  Mn92  1  0.00130132  0.25150340  0.83572864  1
  Mn  Mn93  1  0.00072292  0.74990495  0.16757924  1
  Mn  Mn94  1  -0.00049088  0.75078464  0.50269684  1
  Mn  Mn95  1  0.00084405  0.74772565  0.83339804  1
  Mn  Mn96  1  0.33191760  0.25056280  0.16496015  1
  Mn  Mn97  1  0.33132148  0.24992848  0.49789821  1
  Mn  Mn98  1  0.33358262  0.25166823  0.83155279  1
  Mn  Mn99  1  0.33304814  0.74864004  0.16313777  1
  Mn  Mn100  1  0.33129455  0.75087941  0.50022551  1
  Mn  Mn101  1  0.33436569  0.74703672  0.83125276  1
  Mn  Mn102  1  0.66616434  0.24889105  0.16663296  1
  Mn  Mn103  1  0.66623593  0.25046338  0.49817665  1
  Mn  Mn104  1  0.66729739  0.25052229  0.83422096  1
  Mn  Mn105  1  0.66727559  0.75051157  0.16749273  1
  Mn  Mn106  1  0.66638127  0.74863098  0.49850937  1
  Mn  Mn107  1  0.66510051  0.74941977  0.83729038  1
  Mn  Mn108  1  0.16673930  0.25256495  -0.00064312  1
  Mn  Mn109  1  0.16394497  0.24998527  0.33127191  1
  Mn  Mn110  1  0.16662044  0.25044356  0.66775286  1
  Mn  Mn111  1  0.16715357  0.74766578  -0.00147714  1
  Mn  Mn112  1  0.16332408  0.75062933  0.33401329  1
  Mn  Mn113  1  0.16671303  0.74821071  0.66740181  1
  Mn  Mn114  1  0.50067354  0.25135367  -0.00220856  1
  Mn  Mn115  1  0.50071515  0.24908404  0.33149632  1
  Mn  Mn116  1  0.49959400  0.25000547  0.66413865  1
  Mn  Mn117  1  0.50042675  0.74663669  -0.00111027  1
  Mn  Mn118  1  0.50211069  0.75031838  0.33381671  1
  Mn  Mn119  1  0.49868622  0.74997520  0.66685434  1
  Mn  Mn120  1  0.83405686  0.25003139  -0.00103440  1
  Mn  Mn121  1  0.83308436  0.25038500  0.33772179  1
  Mn  Mn122  1  0.83578620  0.25043335  0.66921018  1
  Mn  Mn123  1  0.83085965  0.75119756  0.00068975  1
  Mn  Mn124  1  0.83378474  0.74966525  0.33446203  1
  Mn  Mn125  1  0.83563340  0.74897744  0.66957507  1
  Mn  Mn126  1  0.16756665  -0.00006869  -0.00110691  1
  Mn  Mn127  1  0.16399092  -0.00132674  0.33369752  1
  Mn  Mn128  1  0.16739619  -0.00042545  0.66738641  1
  Mn  Mn129  1  0.16586643  0.50012249  -0.00164948  1
  Mn  Mn130  1  0.16441647  0.50024294  0.33215555  1
  Mn  Mn131  1  0.16642966  0.50087224  0.66758355  1
  Mn  Mn132  1  0.50154677  -0.00017761  -0.00200047  1
  Mn  Mn133  1  0.50196289  0.00076419  0.33179873  1
  Mn  Mn134  1  0.50116407  0.00004481  0.66528648  1
  Mn  Mn135  1  0.49926180  0.50118418  -0.00152156  1
  Mn  Mn136  1  0.50091549  0.50050670  0.33321854  1
  Mn  Mn137  1  0.49728257  0.49988020  0.66565631  1
  Mn  Mn138  1  0.83290274  -0.00039528  0.00055815  1
  Mn  Mn139  1  0.83483711  0.00161447  0.33512328  1
  Mn  Mn140  1  0.83606487  0.00173749  0.66936946  1
  Mn  Mn141  1  0.83230136  0.49848953  -0.00099781  1
  Mn  Mn142  1  0.83194586  0.49998343  0.33717653  1
  Mn  Mn143  1  0.83478521  0.49931956  0.66963087  1
  O  O144  1  0.16530331  0.13094957  0.02357620  1
  O  O145  1  0.15832747  0.12229603  0.35665275  1
  O  O146  1  0.16190270  0.12891055  0.69423029  1
  O  O147  1  0.17440430  0.62331739  0.02498770  1
  O  O148  1  0.15942596  0.62860719  0.35683929  1
  O  O149  1  0.17422518  0.62549133  0.69382236  1
  O  O150  1  0.50821873  0.12669027  0.01187149  1
  O  O151  1  0.50577900  0.12429007  0.35775224  1
  O  O152  1  0.49714383  0.12526986  0.67787031  1
  O  O153  1  0.50619742  0.62303470  0.02610600  1
  O  O154  1  0.50522026  0.62585292  0.35759711  1
  O  O155  1  0.48858168  0.62566236  0.68516908  1
  O  O156  1  0.83707147  0.12554946  0.00921729  1
  O  O157  1  0.84198678  0.12826003  0.36058599  1
  O  O158  1  0.83856647  0.12550012  0.68527759  1
  O  O159  1  0.83449585  0.62449967  0.00864410  1
  O  O160  1  0.83949464  0.62353969  0.35913880  1
  O  O161  1  0.83866921  0.62366115  0.69371854  1
  O  O162  1  0.15393980  0.37349574  0.31049096  1
  O  O163  1  0.15909819  0.37581987  0.65428025  1
  O  O164  1  0.15693025  0.37901224  0.96990751  1
  O  O165  1  0.15346853  0.87385344  0.30783839  1
  O  O166  1  0.15747106  0.86930674  0.64345031  1
  O  O167  1  0.16922662  0.86801969  0.97424690  1
  O  O168  1  0.50671587  0.37583767  0.32739537  1
  O  O169  1  0.49689493  0.37699325  0.64193999  1
  O  O170  1  0.49317627  0.38080455  0.97464090  1
  O  O171  1  0.51067668  0.87488900  0.32608076  1
  O  O172  1  0.49877841  0.87242479  0.64301243  1
  O  O173  1  0.49630983  0.86858567  0.97745338  1
  O  O174  1  0.83191366  0.37540636  0.32336505  1
  O  O175  1  0.84593738  0.37647053  0.64781890  1
  O  O176  1  0.83485530  0.37580523  0.98313765  1
  O  O177  1  0.82899882  0.87473966  0.31235372  1
  O  O178  1  0.84390440  0.87496021  0.66405727  1
  O  O179  1  0.82841008  0.87408251  0.97447509  1
  O  O180  1  0.00921867  0.37738362  0.18993218  1
  O  O181  1  -0.00842952  0.37838757  0.52926993  1
  O  O182  1  0.00220431  0.37810051  0.86037205  1
  O  O183  1  -0.00476813  0.87595398  0.18876575  1
  O  O184  1  0.00497361  0.87341312  0.53177673  1
  O  O185  1  -0.00363293  0.87345043  0.84273098  1
  O  O186  1  0.32599713  0.37676412  0.18225100  1
  O  O187  1  0.33547798  0.37737950  0.51741503  1
  O  O188  1  0.32532472  0.38149297  0.85833730  1
  O  O189  1  0.32775042  0.87318523  0.17126059  1
  O  O190  1  0.32354920  0.87362860  0.52178250  1
  O  O191  1  0.32713777  0.86820171  0.85903298  1
  O  O192  1  0.66624008  0.37538904  0.19046352  1
  O  O193  1  0.65195510  0.37538812  0.50914828  1
  O  O194  1  0.65583902  0.37774622  0.85558343  1
  O  O195  1  0.66895926  0.87505884  0.19375432  1
  O  O196  1  0.65825932  0.87411927  0.50800517  1
  O  O197  1  0.65725447  0.87185650  0.85729835  1
  O  O198  1  0.00832058  0.12331014  0.14224492  1
  O  O199  1  0.00961279  0.12134501  0.47742671  1
  O  O200  1  0.01165720  0.12505202  0.81295163  1
  O  O201  1  0.00823881  0.62372642  0.14214032  1
  O  O202  1  0.00632619  0.62697210  0.47817326  1
  O  O203  1  0.00558576  0.62370559  0.81036375  1
  O  O204  1  0.32373497  0.12583469  0.15429152  1
  O  O205  1  0.33683103  0.12227134  0.48966031  1
  O  O206  1  0.33000587  0.12439124  0.82162224  1
  O  O207  1  0.33222540  0.62385196  0.14457893  1
  O  O208  1  0.33862396  0.62628563  0.48958803  1
  O  O209  1  0.34217177  0.62449656  0.80102714  1
  O  O210  1  0.66645801  0.12407242  0.14209504  1
  O  O211  1  0.67589315  0.12790181  0.47784421  1
  O  O212  1  0.66759242  0.12536289  0.82909204  1
  O  O213  1  0.66304110  0.62535595  0.14325343  1
  O  O214  1  0.67437373  0.62325882  0.47798859  1
  O  O215  1  0.67291753  0.62486012  0.82334800  1
  O  O216  1  0.07427926  0.02036554  0.25966455  1
  O  O217  1  0.07725470  0.02109323  0.59184968  1
  O  O218  1  0.07921537  0.02188004  0.92384530  1
  O  O219  1  0.08040242  0.52492952  0.25249347  1
  O  O220  1  0.07607196  0.52173973  0.59097165  1
  O  O221  1  0.07417270  0.52556072  0.92720262  1
  O  O222  1  0.41639866  0.00856881  0.24918906  1
  O  O223  1  0.41324003  0.00405385  0.58455248  1
  O  O224  1  0.41468906  0.00078991  0.91360363  1
  O  O225  1  0.41717807  0.51359225  0.24982986  1
  O  O226  1  0.40444833  0.51516843  0.59285505  1
  O  O227  1  0.40927583  0.52577149  0.91930592  1
  O  O228  1  0.74111197  0.01631835  0.25958237  1
  O  O229  1  0.74982773  0.01178394  0.58382196  1
  O  O230  1  0.73750183  0.01231037  0.93244121  1
  O  O231  1  0.74156680  0.51482052  0.26497285  1
  O  O232  1  0.74987318  0.50873045  0.58139296  1
  O  O233  1  0.73981613  0.51260033  0.92407123  1
  O  O234  1  0.23635349  0.24009820  0.23722339  1
  O  O235  1  0.23894044  0.23476580  0.57641646  1
  O  O236  1  0.23676565  0.24037215  0.90484418  1
  O  O237  1  0.23698092  0.73929012  0.23689693  1
  O  O238  1  0.23675496  0.72919440  0.57580804  1
  O  O239  1  0.24308797  0.72322371  0.90328709  1
  O  O240  1  0.58080550  0.22850612  0.24721559  1
  O  O241  1  0.57528115  0.23476715  0.56882162  1
  O  O242  1  0.57984512  0.23949819  0.91360437  1
  O  O243  1  0.57833757  0.72612685  0.24305426  1
  O  O244  1  0.57019913  0.73446341  0.56928135  1
  O  O245  1  0.57375792  0.72471183  0.91092127  1
  O  O246  1  0.92037626  0.23985303  0.25966604  1
  O  O247  1  0.91543059  0.22711269  0.58029411  1
  O  O248  1  0.91477382  0.23477329  0.91155263  1
  O  O249  1  0.91264191  0.73973710  0.24902162  1
  O  O250  1  0.91223773  0.72442743  0.57639336  1
  O  O251  1  0.90865210  0.73294609  0.90421686  1
  O  O252  1  0.09414087  0.47931541  0.08795957  1
  O  O253  1  0.07456185  0.48760320  0.41661652  1
  O  O254  1  0.09318268  0.48448311  0.76275634  1
  O  O255  1  0.09524033  0.98456397  0.09716036  1
  O  O256  1  0.08821361  0.97466805  0.42516375  1
  O  O257  1  0.09431072  0.97980119  0.75860752  1
  O  O258  1  0.41588210  0.48893944  0.07926052  1
  O  O259  1  0.42793119  0.48825434  0.42679228  1
  O  O260  1  0.42074428  0.47480457  0.75852519  1
  O  O261  1  0.41942185  0.98904999  0.07747970  1
  O  O262  1  0.42802494  0.98746236  0.42516912  1
  O  O263  1  0.41952706  0.97601964  0.75329840  1
  O  O264  1  0.75013983  0.48575723  0.08292749  1
  O  O265  1  0.75507209  0.47870392  0.42519107  1
  O  O266  1  0.76018489  0.48919594  0.75963452  1
  O  O267  1  0.75652863  0.97593141  0.09409989  1
  O  O268  1  0.75405391  0.98887617  0.41809546  1
  O  O269  1  0.76020273  0.98502718  0.76837462  1
  O  O270  1  0.25318499  0.27762660  0.07166686  1
  O  O271  1  0.25031288  0.26006716  0.40729817  1
  O  O272  1  0.25627223  0.27360197  0.74384634  1
  O  O273  1  0.25909625  0.76447049  0.06778029  1
  O  O274  1  0.24765288  0.76477041  0.41548023  1
  O  O275  1  0.26089768  0.76964954  0.73701525  1
  O  O276  1  0.59039918  0.26658169  0.07170657  1
  O  O277  1  0.59384243  0.26149431  0.40657396  1
  O  O278  1  0.58073408  0.26308878  0.75041806  1
  O  O279  1  0.59591721  0.76354085  0.07290761  1
  O  O280  1  0.59524441  0.76169934  0.40489668  1
  O  O281  1  0.58373526  0.75940413  0.75170323  1
  O  O282  1  0.93015403  0.26256556  0.07633752  1
  O  O283  1  0.91594359  0.27104961  0.42168671  1
  O  O284  1  0.93146124  0.26551359  0.74373344  1
  O  O285  1  0.92003664  0.75956482  0.08001509  1
  O  O286  1  0.92811661  0.76546698  0.40829496  1
  O  O287  1  0.93356274  0.76105671  0.73961528  1
  O  O288  1  0.25650871  0.47998838  0.06666392  1
  O  O289  1  0.25264544  0.48849311  0.40768592  1
  O  O290  1  0.25965504  0.48084851  0.74053660  1
  O  O291  1  0.25479908  0.97858070  0.07126205  1
  O  O292  1  0.24793108  0.98509773  0.41483730  1
  O  O293  1  0.25800314  0.97369396  0.74057862  1
  O  O294  1  0.59012172  0.48341118  0.06828318  1
  O  O295  1  0.59549491  0.48953762  0.40326140  1
  O  O296  1  0.58078595  0.49091941  0.75077999  1
  O  O297  1  0.59470790  0.98607046  0.07400988  1
  O  O298  1  0.59392565  0.98857795  0.40818706  1
  O  O299  1  0.58396038  0.98728690  0.75149930  1
  O  O300  1  0.93021024  0.48884412  0.07328261  1
  O  O301  1  0.91575972  0.48118524  0.42060911  1
  O  O302  1  0.93264931  0.48415211  0.74209947  1
  O  O303  1  0.91849966  0.98693226  0.08370758  1
  O  O304  1  0.92946347  0.98407482  0.41016723  1
  O  O305  1  0.93169431  0.98862542  0.74304536  1
  O  O306  1  0.09301162  0.27494663  0.08610527  1
  O  O307  1  0.07554376  0.26274935  0.41265602  1
  O  O308  1  0.09137818  0.27134498  0.76055938  1
  O  O309  1  0.09723878  0.76377570  0.09697703  1
  O  O310  1  0.08769619  0.77145010  0.42720937  1
  O  O311  1  0.09641244  0.76541173  0.76093942  1
  O  O312  1  0.41617962  0.26295473  0.07818383  1
  O  O313  1  0.42634972  0.26123105  0.42253729  1
  O  O314  1  0.41784081  0.27373424  0.75082771  1
  O  O315  1  0.41994638  0.75731189  0.08044979  1
  O  O316  1  0.42931695  0.76325301  0.42982536  1
  O  O317  1  0.42325621  0.77540272  0.75944080  1
  O  O318  1  0.75107854  0.26409650  0.08322857  1
  O  O319  1  0.75450764  0.27313487  0.42406218  1
  O  O320  1  0.75661554  0.26226206  0.75810799  1
  O  O321  1  0.75667956  0.77423082  0.09511637  1
  O  O322  1  0.75551206  0.76031866  0.41940345  1
  O  O323  1  0.76373108  0.76223360  0.76969967  1
  O  O324  1  0.23569309  0.00792846  0.23920202  1
  O  O325  1  0.23573326  0.01273612  0.57371010  1
  O  O326  1  0.23878985  0.01117790  0.90132101  1
  O  O327  1  0.23853526  0.51246825  0.23301449  1
  O  O328  1  0.24093183  0.52202062  0.57658387  1
  O  O329  1  0.24196207  0.52429216  0.90473494  1
  O  O330  1  0.58140759  0.02196292  0.24682288  1
  O  O331  1  0.57519532  0.01422373  0.56911789  1
  O  O332  1  0.57838532  0.01112884  0.91301148  1
  O  O333  1  0.57712344  0.52434200  0.24384050  1
  O  O334  1  0.57015750  0.51651355  0.56776618  1
  O  O335  1  0.57275882  0.52312632  0.91054641  1
  O  O336  1  0.91585165  0.01228314  0.25102563  1
  O  O337  1  0.91571939  0.02328401  0.57626956  1
  O  O338  1  0.91431669  0.01229532  0.90878289  1
  O  O339  1  0.91932789  0.51110223  0.25748166  1
  O  O340  1  0.91094979  0.52661880  0.57963188  1
  O  O341  1  0.90987521  0.52088335  0.90786589  1
  O  O342  1  0.08011070  0.22342635  0.25081077  1
  O  O343  1  0.07795223  0.23147593  0.58906830  1
  O  O344  1  0.07596620  0.22989810  0.92574315  1
  O  O345  1  0.07363299  0.72960370  0.25982009  1
  O  O346  1  0.07628292  0.72421269  0.59468957  1
  O  O347  1  0.07553019  0.72397495  0.92512308  1
  O  O348  1  0.41517283  0.24301147  0.25179665  1
  O  O349  1  0.41515206  0.24314747  0.58327251  1
  O  O350  1  0.41550628  0.24821598  0.91214362  1
  O  O351  1  0.41770572  0.73609439  0.24924719  1
  O  O352  1  0.40278203  0.73744830  0.59508806  1
  O  O353  1  0.40866149  0.72310378  0.91959442  1
  O  O354  1  0.74313985  0.23550931  0.26421964  1
  O  O355  1  0.75198284  0.24427858  0.58032281  1
  O  O356  1  0.74116195  0.24213256  0.92545526  1
  O  O357  1  0.73980845  0.73465633  0.26093741  1
  O  O358  1  0.74937150  0.73642327  0.58475219  1
  O  O359  1  0.73676924  0.73380751  0.93081415  1
