# generated using pymatgen
data_Ba17Sr5La8Pr42Mn72O216
_symmetry_space_group_name_H-M   'P 1'
_cell_length_a   16.66604704
_cell_length_b   15.70764669
_cell_length_c   16.81403326
_cell_angle_alpha   90.01480965
_cell_angle_beta   89.95713661
_cell_angle_gamma   90.00887481
_symmetry_Int_Tables_number   1
_chemical_formula_structural   Ba17Sr5La8Pr42Mn72O216
_chemical_formula_sum   'Ba17 Sr5 La8 Pr42 Mn72 O216'
_cell_volume   4401.64981814
_cell_formula_units_Z   1
loop_
 _symmetry_equiv_pos_site_id
 _symmetry_equiv_pos_as_xyz
  1  'x, y, z'
loop_
 _atom_site_type_symbol
 _atom_site_label
 _atom_site_symmetry_multiplicity
 _atom_site_fract_x
 _atom_site_fract_y
 _atom_site_fract_z
 _atom_site_occupancy
  Ba  Ba0  1  0.83511794  0.37364226  0.16850377  1
  Ba  Ba1  1  0.66736923  0.37281766  0.66640062  1
  Ba  Ba2  1  0.33454428  0.37631995  0.00046462  1
  Ba  Ba3  1  -0.00062680  0.62595253  0.33479159  1
  Ba  Ba4  1  0.83438712  0.12502256  0.16748767  1
  Ba  Ba5  1  0.66647384  0.37492379  0.33465089  1
  Ba  Ba6  1  0.83275368  0.62529774  0.83451405  1
  Ba  Ba7  1  0.33167586  0.62521973  0.66477585  1
  Ba  Ba8  1  -0.00060116  0.87407422  0.33429028  1
  Ba  Ba9  1  0.66752080  0.12330325  1.00279361  1
  Ba  Ba10  1  0.00063321  0.62502147  0.99636035  1
  Ba  Ba11  1  0.33287012  0.87604817  0.33306741  1
  Ba  Ba12  1  0.49801652  0.62535961  0.50218438  1
  Ba  Ba13  1  0.16720151  0.62592050  0.83123233  1
  Ba  Ba14  1  0.66734239  0.62550083  0.99916758  1
  Ba  Ba15  1  0.49935624  0.12618433  0.16783469  1
  Ba  Ba16  1  0.33241449  0.12336671  0.32925041  1
  Sr  Sr17  1  0.50040772  0.37285774  0.16569272  1
  Sr  Sr18  1  0.16942565  0.12647358  0.16871316  1
  Sr  Sr19  1  0.33427071  0.62281902  0.99447027  1
  Sr  Sr20  1  -0.00226502  0.62472320  0.66258380  1
  Sr  Sr21  1  0.83209631  0.62540302  0.50360493  1
  La  La22  1  0.49752586  0.37766657  0.49638885  1
  La  La23  1  0.16479006  0.87293938  0.83283378  1
  La  La24  1  0.66545808  0.12597421  0.32589129  1
  La  La25  1  0.83256568  0.12570386  0.83848195  1
  La  La26  1  0.33255004  0.87483091  0.66730831  1
  La  La27  1  0.50158534  0.12779422  0.83757913  1
  La  La28  1  0.16939557  0.62440099  0.16446943  1
  La  La29  1  0.83306316  0.12474538  0.49930289  1
  Pr  Pr30  1  0.16225929  0.63084278  0.50668253  1
  Pr  Pr31  1  0.66670773  0.87792774  0.33582498  1
  Pr  Pr32  1  0.33873751  0.12782122  1.00080597  1
  Pr  Pr33  1  0.33475000  0.37688289  0.67087941  1
  Pr  Pr34  1  0.16801519  0.37989906  0.83085909  1
  Pr  Pr35  1  0.33473374  0.37007278  0.33045452  1
  Pr  Pr36  1  0.33035206  0.87125122  0.00419075  1
  Pr  Pr37  1  0.00137372  0.12799848  0.99888442  1
  Pr  Pr38  1  0.33289169  0.62522030  0.33301678  1
  Pr  Pr39  1  0.49628501  0.62066393  0.16902944  1
  Pr  Pr40  1  0.50063004  0.12529174  0.49807700  1
  Pr  Pr41  1  0.33701039  0.12659916  0.66264355  1
  Pr  Pr42  1  0.66997798  0.87398253  0.00380433  1
  Pr  Pr43  1  0.83143361  0.62450361  0.17097997  1
  Pr  Pr44  1  0.16807170  0.12029816  0.49868816  1
  Pr  Pr45  1  0.83783612  0.87507431  0.16644271  1
  Pr  Pr46  1  0.00133551  0.37867282  -0.00009138  1
  Pr  Pr47  1  0.66719650  0.12253920  0.66642680  1
  Pr  Pr48  1  0.16663003  0.37429081  0.16339149  1
  Pr  Pr49  1  0.49852052  0.87216577  0.49661956  1
  Pr  Pr50  1  0.16542527  0.87655109  0.16631198  1
  Pr  Pr51  1  -0.00125161  0.37325518  0.33493235  1
  Pr  Pr52  1  0.66682700  0.87209752  0.66786443  1
  Pr  Pr53  1  0.66561640  0.62314272  0.33035714  1
  Pr  Pr54  1  0.00193561  0.12466271  0.66337561  1
  Pr  Pr55  1  0.66714081  0.62565000  0.66315056  1
  Pr  Pr56  1  0.50327685  0.37593894  0.83447154  1
  Pr  Pr57  1  0.16949968  0.12604613  0.83788617  1
  Pr  Pr58  1  0.16626416  0.37730457  0.49711923  1
  Pr  Pr59  1  -0.00353432  0.87286046  0.66659957  1
  Pr  Pr60  1  0.49951406  0.62225023  0.83551979  1
  Pr  Pr61  1  0.83246119  0.87326851  0.83507081  1
  Pr  Pr62  1  0.49728251  0.87732081  0.16363902  1
  Pr  Pr63  1  0.50228872  0.87564977  0.83277549  1
  Pr  Pr64  1  0.83470390  0.37944911  0.49472712  1
  Pr  Pr65  1  0.00275949  0.12444112  0.32569090  1
  Pr  Pr66  1  0.83327079  0.87215845  0.49769598  1
  Pr  Pr67  1  0.83554821  0.37654950  0.83533956  1
  Pr  Pr68  1  0.00025835  0.87256907  0.00236714  1
  Pr  Pr69  1  0.16543391  0.87195121  0.49629177  1
  Pr  Pr70  1  -0.00198969  0.37778039  0.66744293  1
  Pr  Pr71  1  0.66656960  0.37640834  0.00641882  1
  Mn  Mn72  1  0.00248253  -0.00003544  0.16551393  1
  Mn  Mn73  1  -0.00018882  0.00270048  0.50014267  1
  Mn  Mn74  1  0.00137904  0.00065952  0.83205408  1
  Mn  Mn75  1  0.00129286  0.50091355  0.16637549  1
  Mn  Mn76  1  -0.00015617  0.49865694  0.50136919  1
  Mn  Mn77  1  0.00015263  0.49824941  0.83178820  1
  Mn  Mn78  1  0.33168899  -0.00222791  0.16472761  1
  Mn  Mn79  1  0.33322238  0.00254115  0.50227872  1
  Mn  Mn80  1  0.33315748  0.00038712  0.83368695  1
  Mn  Mn81  1  0.33292960  0.50217271  0.16647888  1
  Mn  Mn82  1  0.32935509  0.49665150  0.49862295  1
  Mn  Mn83  1  0.33453003  0.49924847  0.83317402  1
  Mn  Mn84  1  0.66675995  -0.00323393  0.16939451  1
  Mn  Mn85  1  0.66608406  0.00107173  0.50041544  1
  Mn  Mn86  1  0.66689400  -0.00182365  0.83226844  1
  Mn  Mn87  1  0.66611351  0.50050072  0.16599148  1
  Mn  Mn88  1  0.66697865  0.50095649  0.50136314  1
  Mn  Mn89  1  0.66632670  0.49804373  0.83396652  1
  Mn  Mn90  1  0.00299388  0.25045566  0.16590086  1
  Mn  Mn91  1  0.00090375  0.24793363  0.49963171  1
  Mn  Mn92  1  0.00189219  0.24853820  0.83046685  1
  Mn  Mn93  1  0.00106261  0.74982546  0.16567048  1
  Mn  Mn94  1  -0.00187296  0.75072230  0.50190082  1
  Mn  Mn95  1  -0.00035339  0.75283446  0.83277993  1
  Mn  Mn96  1  0.33229414  0.25109895  0.16612093  1
  Mn  Mn97  1  0.33121904  0.24920893  0.50129637  1
  Mn  Mn98  1  0.33279351  0.24929344  0.83103493  1
  Mn  Mn99  1  0.33312319  0.74852907  0.16545772  1
  Mn  Mn100  1  0.33231721  0.75126471  0.49983370  1
  Mn  Mn101  1  0.33535257  0.75242020  0.83540748  1
  Mn  Mn102  1  0.66667275  0.25097652  0.16752024  1
  Mn  Mn103  1  0.66677679  0.24704371  0.50115636  1
  Mn  Mn104  1  0.66748558  0.24996351  0.83411861  1
  Mn  Mn105  1  0.66540239  0.75042385  0.16823213  1
  Mn  Mn106  1  0.66668237  0.75143888  0.50055046  1
  Mn  Mn107  1  0.66516750  0.75186096  0.83354985  1
  Mn  Mn108  1  0.16691964  0.24797420  -0.00003413  1
  Mn  Mn109  1  0.16540038  0.25234501  0.33248840  1
  Mn  Mn110  1  0.16622674  0.24805985  0.66601834  1
  Mn  Mn111  1  0.16792194  0.75154322  -0.00126912  1
  Mn  Mn112  1  0.16757045  0.74753879  0.33350364  1
  Mn  Mn113  1  0.16459041  0.75366552  0.66527686  1
  Mn  Mn114  1  0.50123015  0.24977423  -0.00013500  1
  Mn  Mn115  1  0.49884017  0.25207765  0.33461466  1
  Mn  Mn116  1  0.50038053  0.24786352  0.66651506  1
  Mn  Mn117  1  0.49968962  0.75073553  -0.00103421  1
  Mn  Mn118  1  0.50044489  0.74884294  0.33213660  1
  Mn  Mn119  1  0.50028056  0.75360550  0.66739822  1
  Mn  Mn120  1  0.83539279  0.24910421  -0.00106677  1
  Mn  Mn121  1  0.83480924  0.25001682  0.33670341  1
  Mn  Mn122  1  0.83465057  0.24748009  0.66720922  1
  Mn  Mn123  1  0.83406015  0.75267150  0.00156314  1
  Mn  Mn124  1  0.83036252  0.74976966  0.33433881  1
  Mn  Mn125  1  0.83266734  0.75149598  0.66625555  1
  Mn  Mn126  1  0.16773754  0.00254563  -0.00097861  1
  Mn  Mn127  1  0.16566136  -0.00068246  0.33285551  1
  Mn  Mn128  1  0.16592024  0.00171852  0.66801996  1
  Mn  Mn129  1  0.16747953  0.49869772  -0.00168689  1
  Mn  Mn130  1  0.16738298  0.49981759  0.33283375  1
  Mn  Mn131  1  0.16468435  0.49823235  0.66324981  1
  Mn  Mn132  1  0.49894288  -0.00139744  -0.00244132  1
  Mn  Mn133  1  0.50086025  -0.00277882  0.33389634  1
  Mn  Mn134  1  0.50034241  0.00039349  0.66670574  1
  Mn  Mn135  1  0.50070930  0.50101312  0.00100051  1
  Mn  Mn136  1  0.49819835  0.50047889  0.33376491  1
  Mn  Mn137  1  0.50014005  0.49864395  0.66686742  1
  Mn  Mn138  1  0.83583456  0.00039471  -0.00038446  1
  Mn  Mn139  1  0.83354829  -0.00107109  0.33516014  1
  Mn  Mn140  1  0.83360984  0.00066524  0.66781578  1
  Mn  Mn141  1  0.83454774  0.49884293  0.00085033  1
  Mn  Mn142  1  0.83347383  0.50199207  0.33512627  1
  Mn  Mn143  1  0.83276490  0.49869402  0.66588234  1
  O  O144  1  0.15835295  0.12424480  0.02119366  1
  O  O145  1  0.15934208  0.12945273  0.35518589  1
  O  O146  1  0.15938828  0.12461221  0.69604896  1
  O  O147  1  0.16855133  0.62775222  0.01842432  1
  O  O148  1  0.17402385  0.62090318  0.36170227  1
  O  O149  1  0.15990266  0.62816864  0.67182504  1
  O  O150  1  0.49320718  0.12222358  0.01045397  1
  O  O151  1  0.50498476  0.12380575  0.35328063  1
  O  O152  1  0.49587647  0.12242284  0.69464313  1
  O  O153  1  0.49820240  0.62966579  0.02346200  1
  O  O154  1  0.49845858  0.62610010  0.34687901  1
  O  O155  1  0.50437322  0.63078097  0.69076064  1
  O  O156  1  0.83924998  0.12322311  0.01052475  1
  O  O157  1  0.83765113  0.12404808  0.35466230  1
  O  O158  1  0.83584448  0.12261586  0.69578250  1
  O  O159  1  0.83397235  0.63079097  0.02369482  1
  O  O160  1  0.82518633  0.62771938  0.35166107  1
  O  O161  1  0.82803554  0.62944026  0.67900194  1
  O  O162  1  0.16092846  0.37777793  0.30693926  1
  O  O163  1  0.17050591  0.36762444  0.64022843  1
  O  O164  1  0.16313952  0.36795242  0.97455747  1
  O  O165  1  0.16624289  0.87088990  0.31288499  1
  O  O166  1  0.16927746  0.88173878  0.63998153  1
  O  O167  1  0.17251586  0.88124259  0.97513859  1
  O  O168  1  0.49344530  0.37846785  0.31861018  1
  O  O169  1  0.49693125  0.36719450  0.64010553  1
  O  O170  1  0.50871721  0.37355191  0.97895909  1
  O  O171  1  0.50686716  0.86997487  0.30978574  1
  O  O172  1  0.50625147  0.88042880  0.63908628  1
  O  O173  1  0.49835461  0.87513230  0.97515678  1
  O  O174  1  0.83964647  0.37496759  0.32736343  1
  O  O175  1  0.83970823  0.36679336  0.63869392  1
  O  O176  1  0.84105104  0.36842887  0.98002717  1
  O  O177  1  0.82699139  0.87328787  0.31208594  1
  O  O178  1  0.83174373  0.87961835  0.64031926  1
  O  O179  1  0.83615591  0.87931662  0.97981302  1
  O  O180  1  0.00861330  0.37715584  0.19067431  1
  O  O181  1  -0.00033774  0.36900268  0.52487068  1
  O  O182  1  -0.00093389  0.36840282  0.85510552  1
  O  O183  1  0.00375398  0.87564097  0.17895644  1
  O  O184  1  -0.00056732  0.88142105  0.52229759  1
  O  O185  1  0.00128063  0.88233946  0.85838871  1
  O  O186  1  0.32687903  0.38187744  0.18658840  1
  O  O187  1  0.32703388  0.36919013  0.52733456  1
  O  O188  1  0.32790818  0.37283221  0.84276847  1
  O  O189  1  0.33222817  0.87115696  0.17731784  1
  O  O190  1  0.33101445  0.88242759  0.52209543  1
  O  O191  1  0.33369210  0.88083698  0.86087550  1
  O  O192  1  0.66381285  0.37713697  0.17521897  1
  O  O193  1  0.66863645  0.37348370  0.51098799  1
  O  O194  1  0.65809507  0.37286865  0.85666107  1
  O  O195  1  0.66234202  0.87187366  0.19272690  1
  O  O196  1  0.66642926  0.87908650  0.52657802  1
  O  O197  1  0.66059875  0.87682522  0.85816082  1
  O  O198  1  0.00463010  0.12257209  0.14380546  1
  O  O199  1  0.00177868  0.12631219  0.46993373  1
  O  O200  1  0.00453674  0.12448047  0.80414629  1
  O  O201  1  -0.00208626  0.62610768  0.15311550  1
  O  O202  1  0.00859613  0.62298017  0.49399726  1
  O  O203  1  0.00001776  0.62400956  0.81492340  1
  O  O204  1  0.32959899  0.11977207  0.14568595  1
  O  O205  1  0.33411091  0.12630268  0.48455083  1
  O  O206  1  0.33285793  0.12336732  0.80469208  1
  O  O207  1  0.33349967  0.62712958  0.14393875  1
  O  O208  1  0.32526888  0.62006702  0.47826753  1
  O  O209  1  0.34327904  0.62344245  0.82029321  1
  O  O210  1  0.66711562  0.12129567  0.16161769  1
  O  O211  1  0.66479903  0.12102126  0.47098788  1
  O  O212  1  0.66986534  0.12191944  0.81081095  1
  O  O213  1  0.66997513  0.62790454  0.15375469  1
  O  O214  1  0.66899041  0.62903341  0.47722065  1
  O  O215  1  0.66245867  0.62677859  0.80805123  1
  O  O216  1  0.08185388  0.01702858  0.24987244  1
  O  O217  1  0.08362836  0.02579647  0.58102598  1
  O  O218  1  0.08804588  0.02190497  0.91067516  1
  O  O219  1  0.09124036  0.51863603  0.24382188  1
  O  O220  1  0.08032821  0.50506414  0.58430823  1
  O  O221  1  0.08416299  0.50046913  0.91304128  1
  O  O222  1  0.41973479  0.00114666  0.24510941  1
  O  O223  1  0.41595200  0.02150063  0.58681889  1
  O  O224  1  0.41345642  0.02323388  0.91278461  1
  O  O225  1  0.41279732  0.52222584  0.25164086  1
  O  O226  1  0.41225812  0.50146253  0.58374834  1
  O  O227  1  0.42181167  0.51023369  0.91321832  1
  O  O228  1  0.74825819  0.00877775  0.25747244  1
  O  O229  1  0.74821257  0.02574387  0.58195527  1
  O  O230  1  0.75574449  0.00862154  0.90903875  1
  O  O231  1  0.74680589  0.51987304  0.25233460  1
  O  O232  1  0.74551385  0.51704073  0.58786257  1
  O  O233  1  0.74756868  0.49824431  0.91885480  1
  O  O234  1  0.24750665  0.24616328  0.25104767  1
  O  O235  1  0.24834210  0.22185078  0.58625392  1
  O  O236  1  0.25128332  0.22427113  0.91885213  1
  O  O237  1  0.25199931  0.72557874  0.25296415  1
  O  O238  1  0.24319247  0.74195669  0.57850793  1
  O  O239  1  0.25495403  0.74399997  0.92203966  1
  O  O240  1  0.58578849  0.23951698  0.25861900  1
  O  O241  1  0.58483662  0.22124182  0.58830569  1
  O  O242  1  0.58026233  0.23326713  0.91329550  1
  O  O243  1  0.58164918  0.72626436  0.24839506  1
  O  O244  1  0.58849483  0.73772680  0.58996816  1
  O  O245  1  0.57655937  0.73560934  0.90797272  1
  O  O246  1  0.92414741  0.23837735  0.25866734  1
  O  O247  1  0.91835873  0.22136565  0.58320136  1
  O  O248  1  0.92021648  0.22684111  0.91130026  1
  O  O249  1  0.90581715  0.73965638  0.24319294  1
  O  O250  1  0.91622775  0.74470757  0.58656860  1
  O  O251  1  0.91548960  0.74971303  0.91638628  1
  O  O252  1  0.08407939  0.47902859  0.08235616  1
  O  O253  1  0.08408660  0.47705717  0.41698881  1
  O  O254  1  0.08372067  0.47469516  0.74844171  1
  O  O255  1  0.08484317  0.97708095  0.07821525  1
  O  O256  1  0.08563532  0.98584113  0.42295531  1
  O  O257  1  0.07975432  0.97575713  0.74574517  1
  O  O258  1  0.42188994  0.49177569  0.08985189  1
  O  O259  1  0.41050021  0.47857986  0.41692288  1
  O  O260  1  0.41790266  0.47700922  0.75035776  1
  O  O261  1  0.41422717  0.97815807  0.07871216  1
  O  O262  1  0.42456458  0.98684169  0.42543932  1
  O  O263  1  0.41540522  0.97503395  0.75086161  1
  O  O264  1  0.75020294  0.48763650  0.08357086  1
  O  O265  1  0.75583751  0.48947431  0.42493109  1
  O  O266  1  0.75473353  0.48068569  0.75698072  1
  O  O267  1  0.74880122  0.97563089  0.08654912  1
  O  O268  1  0.74856269  0.97803665  0.42036223  1
  O  O269  1  0.74687711  0.97552816  0.74901831  1
  O  O270  1  0.24450088  0.26262133  0.08556061  1
  O  O271  1  0.24465140  0.27221362  0.41692107  1
  O  O272  1  0.24661693  0.26730316  0.74883414  1
  O  O273  1  0.24493228  0.77070481  0.08680529  1
  O  O274  1  0.24598785  0.76462775  0.41984368  1
  O  O275  1  0.24920323  0.77250461  0.74846874  1
  O  O276  1  0.58430769  0.26401084  0.07951343  1
  O  O277  1  0.57179435  0.26062523  0.42666932  1
  O  O278  1  0.57653203  0.26057906  0.75499893  1
  O  O279  1  0.58468040  0.77486491  0.08061246  1
  O  O280  1  0.58516238  0.77254646  0.41804822  1
  O  O281  1  0.58308143  0.77668035  0.74841976  1
  O  O282  1  0.92606209  0.26048557  0.07457725  1
  O  O283  1  0.91837579  0.27018793  0.42142147  1
  O  O284  1  0.91969282  0.27061399  0.74702153  1
  O  O285  1  0.91683783  0.77374975  0.08253245  1
  O  O286  1  0.91062972  0.76315919  0.42312160  1
  O  O287  1  0.91466330  0.77630112  0.74979396  1
  O  O288  1  0.24319251  0.48835718  0.09124711  1
  O  O289  1  0.25066805  0.46951907  0.41172756  1
  O  O290  1  0.24968063  0.48147605  0.74379671  1
  O  O291  1  0.24971410  0.97813621  0.08025099  1
  O  O292  1  0.24396058  0.99035029  0.42635749  1
  O  O293  1  0.24848255  0.97919769  0.75549621  1
  O  O294  1  0.58662542  0.48569832  0.07971832  1
  O  O295  1  0.57947543  0.48933653  0.42184553  1
  O  O296  1  0.57808190  0.48389001  0.75613971  1
  O  O297  1  0.58271493  0.97624597  0.08400148  1
  O  O298  1  0.58408180  0.97519339  0.42031968  1
  O  O299  1  0.58523559  0.97927264  0.74642001  1
  O  O300  1  0.92369888  0.48418823  0.07951756  1
  O  O301  1  0.92217837  0.48123649  0.41681200  1
  O  O302  1  0.91830167  0.47593249  0.74758201  1
  O  O303  1  0.91867497  0.97912343  0.08470247  1
  O  O304  1  0.90815898  0.98556656  0.42763376  1
  O  O305  1  0.91640626  0.97596255  0.75464220  1
  O  O306  1  0.08417331  0.27289039  0.08031654  1
  O  O307  1  0.08156936  0.27486893  0.41562179  1
  O  O308  1  0.08368166  0.27513327  0.74717961  1
  O  O309  1  0.08485926  0.77197606  0.07907834  1
  O  O310  1  0.08750253  0.76126226  0.42251550  1
  O  O311  1  0.08176457  0.77641496  0.74637521  1
  O  O312  1  0.41558317  0.25692430  0.08024986  1
  O  O313  1  0.41294706  0.27139891  0.41743131  1
  O  O314  1  0.41478533  0.26962833  0.74434173  1
  O  O315  1  0.41859079  0.77259387  0.08155615  1
  O  O316  1  0.41969966  0.76431864  0.41959952  1
  O  O317  1  0.41887178  0.77778118  0.75031390  1
  O  O318  1  0.74855419  0.26319021  0.07662641  1
  O  O319  1  0.75913382  0.25785888  0.42715536  1
  O  O320  1  0.75726136  0.26403484  0.75540632  1
  O  O321  1  0.75299231  0.77569347  0.08922830  1
  O  O322  1  0.74800863  0.77557144  0.41818599  1
  O  O323  1  0.74912182  0.77490205  0.75112820  1
  O  O324  1  0.24508657  0.00556366  0.24379926  1
  O  O325  1  0.25121962  0.02556520  0.58999827  1
  O  O326  1  0.25240373  0.02821334  0.91883001  1
  O  O327  1  0.25261522  0.52461608  0.25295335  1
  O  O328  1  0.23864183  0.51171799  0.57069533  1
  O  O329  1  0.25112819  0.50690247  0.91355690  1
  O  O330  1  0.58880286  0.00895022  0.25773386  1
  O  O331  1  0.58347814  0.02782299  0.58132865  1
  O  O332  1  0.57796497  0.01263530  0.90805951  1
  O  O333  1  0.58169022  0.52061062  0.24772038  1
  O  O334  1  0.58667564  0.51632235  0.58952688  1
  O  O335  1  0.57868306  0.51594662  0.91101386  1
  O  O336  1  0.92087407  0.01235993  0.25503942  1
  O  O337  1  0.92129865  0.02352497  0.58646690  1
  O  O338  1  0.92557905  0.02360421  0.91557604  1
  O  O339  1  0.91187100  0.51522095  0.24521533  1
  O  O340  1  0.91364170  0.50706418  0.58037843  1
  O  O341  1  0.91603539  0.50108431  0.91275667  1
  O  O342  1  0.08270335  0.23244480  0.25191483  1
  O  O343  1  0.08458767  0.22391261  0.58100399  1
  O  O344  1  0.08421569  0.22600341  0.91372650  1
  O  O345  1  0.09171226  0.73560659  0.24342390  1
  O  O346  1  0.08266474  0.74667187  0.58319131  1
  O  O347  1  0.08672288  0.75055179  0.91430780  1
  O  O348  1  0.41499297  0.24763623  0.25235144  1
  O  O349  1  0.42089615  0.22552623  0.58297571  1
  O  O350  1  0.41766190  0.23341357  0.91259061  1
  O  O351  1  0.41711429  0.72891999  0.24644916  1
  O  O352  1  0.41562216  0.75043015  0.58617295  1
  O  O353  1  0.42091420  0.73488857  0.91512427  1
  O  O354  1  0.74988349  0.23785115  0.25869919  1
  O  O355  1  0.75028742  0.22133300  0.58952778  1
  O  O356  1  0.75672401  0.23914207  0.91184612  1
  O  O357  1  0.74467584  0.73033077  0.25461473  1
  O  O358  1  0.74649861  0.73851536  0.58639791  1
  O  O359  1  0.74775398  0.75117274  0.92063096  1
