# generated using pymatgen
data_Ba17Sr5La8Pr42Mn72O216
_symmetry_space_group_name_H-M   'P 1'
_cell_length_a   16.67094446
_cell_length_b   15.70329528
_cell_length_c   16.82064887
_cell_angle_alpha   90.00896445
_cell_angle_beta   90.02038686
_cell_angle_gamma   90.04669991
_symmetry_Int_Tables_number   1
_chemical_formula_structural   Ba17Sr5La8Pr42Mn72O216
_chemical_formula_sum   'Ba17 Sr5 La8 Pr42 Mn72 O216'
_cell_volume   4403.45507210
_cell_formula_units_Z   1
loop_
 _symmetry_equiv_pos_site_id
 _symmetry_equiv_pos_as_xyz
  1  'x, y, z'
loop_
 _atom_site_type_symbol
 _atom_site_label
 _atom_site_symmetry_multiplicity
 _atom_site_fract_x
 _atom_site_fract_y
 _atom_site_fract_z
 _atom_site_occupancy
  Ba  Ba0  1  0.00272316  0.37346103  -0.00263197  1
  Ba  Ba1  1  0.00053126  0.12525913  0.99723834  1
  Ba  Ba2  1  0.66788153  0.87702289  0.00238057  1
  Ba  Ba3  1  0.66465667  0.12479462  1.00014603  1
  Ba  Ba4  1  0.50089341  0.37480044  0.16723419  1
  Ba  Ba5  1  0.66270385  0.62548039  0.66614180  1
  Ba  Ba6  1  0.83312667  0.87422641  0.16515922  1
  Ba  Ba7  1  0.16873637  0.87569541  0.16802376  1
  Ba  Ba8  1  -0.00124626  0.62294714  0.33354541  1
  Ba  Ba9  1  0.83693070  0.37397824  0.82954595  1
  Ba  Ba10  1  0.33405738  0.87451154  0.00556629  1
  Ba  Ba11  1  0.16683878  0.37303650  0.50042918  1
  Ba  Ba12  1  0.83417264  0.87652050  0.49861029  1
  Ba  Ba13  1  0.83222199  0.62453599  0.16873678  1
  Ba  Ba14  1  0.33163723  0.62382396  0.99963616  1
  Ba  Ba15  1  0.66698521  0.37705291  0.66775604  1
  Ba  Ba16  1  0.50281325  0.37388717  0.49955027  1
  Sr  Sr17  1  0.16947068  0.37529225  0.16386540  1
  Sr  Sr18  1  0.00536041  0.37560827  0.67107762  1
  Sr  Sr19  1  0.50074144  0.87512633  0.16461954  1
  Sr  Sr20  1  0.33885220  0.87537011  0.33372851  1
  Sr  Sr21  1  0.33487756  0.37579245  0.00187478  1
  La  La22  1  0.66285913  0.62794155  1.00105706  1
  La  La23  1  0.00651024  0.87245266  0.66602175  1
  La  La24  1  0.00173671  0.86950552  0.33375052  1
  La  La25  1  0.50615147  0.87395129  0.49514038  1
  La  La26  1  0.66131878  0.12374135  0.33054481  1
  La  La27  1  0.49681540  0.12575632  0.83800814  1
  La  La28  1  0.16003563  0.62562592  0.50214319  1
  La  La29  1  0.82808332  0.62175016  0.83664205  1
  Pr  Pr30  1  0.32468064  0.12513585  0.66497160  1
  Pr  Pr31  1  0.67500163  0.87466316  0.67129686  1
  Pr  Pr32  1  0.33657380  0.37259583  0.67087159  1
  Pr  Pr33  1  0.50327935  0.37630046  0.83146601  1
  Pr  Pr34  1  0.66014729  0.12718730  0.66584867  1
  Pr  Pr35  1  0.49151022  0.12470085  0.50302669  1
  Pr  Pr36  1  0.66157076  0.62673600  0.33175280  1
  Pr  Pr37  1  0.33847972  0.87778959  0.67054026  1
  Pr  Pr38  1  0.83016046  0.12632881  0.16523958  1
  Pr  Pr39  1  -0.00818189  0.62156501  0.66089729  1
  Pr  Pr40  1  0.50645509  0.87261551  0.83530816  1
  Pr  Pr41  1  0.33167203  0.12733011  1.00358946  1
  Pr  Pr42  1  0.17512282  0.87699537  0.83551804  1
  Pr  Pr43  1  0.32619126  0.62479851  0.66602084  1
  Pr  Pr44  1  0.17089256  0.87515413  0.49222989  1
  Pr  Pr45  1  0.17000537  0.37321226  0.83018945  1
  Pr  Pr46  1  0.67280391  0.37526018  0.00204013  1
  Pr  Pr47  1  0.00231377  0.87437165  0.00463838  1
  Pr  Pr48  1  0.83912392  0.37558660  0.16393587  1
  Pr  Pr49  1  -0.00238165  0.62601307  1.00159912  1
  Pr  Pr50  1  0.67266835  0.87515696  0.33165373  1
  Pr  Pr51  1  0.32832596  0.62094907  0.32966392  1
  Pr  Pr52  1  0.82657298  0.62684435  0.50157669  1
  Pr  Pr53  1  0.49789393  0.62345188  0.83661102  1
  Pr  Pr54  1  0.16650221  0.12608449  0.16477704  1
  Pr  Pr55  1  0.83707579  0.37657855  0.50151285  1
  Pr  Pr56  1  0.32917711  0.12871557  0.33222231  1
  Pr  Pr57  1  -0.00664159  0.12828506  0.66338154  1
  Pr  Pr58  1  0.34200318  0.37486682  0.33730102  1
  Pr  Pr59  1  0.16018057  0.12314564  0.50195550  1
  Pr  Pr60  1  0.82658820  0.12905893  0.83668097  1
  Pr  Pr61  1  0.67540675  0.37482265  0.33963511  1
  Pr  Pr62  1  -0.00365634  0.12474258  0.32879559  1
  Pr  Pr63  1  0.82571821  0.12327226  0.50178594  1
  Pr  Pr64  1  0.16538963  0.12624249  0.83699245  1
  Pr  Pr65  1  0.49569010  0.12059271  0.16583465  1
  Pr  Pr66  1  0.49434237  0.62798408  0.16541989  1
  Pr  Pr67  1  0.16551264  0.62338929  0.16555780  1
  Pr  Pr68  1  0.48767302  0.62401468  0.50352893  1
  Pr  Pr69  1  0.00390992  0.37765535  0.33369563  1
  Pr  Pr70  1  0.15892191  0.62512070  0.83688955  1
  Pr  Pr71  1  0.84026160  0.88015598  0.83153256  1
  Mn  Mn72  1  -0.00057034  0.00182474  0.16592863  1
  Mn  Mn73  1  0.00031701  0.00166612  0.49871095  1
  Mn  Mn74  1  0.00264134  -0.00182961  0.83034089  1
  Mn  Mn75  1  0.00258066  0.49775524  0.16617269  1
  Mn  Mn76  1  -0.00102312  0.49787393  0.50068413  1
  Mn  Mn77  1  0.00198237  0.50201627  0.83028274  1
  Mn  Mn78  1  0.33355315  0.00121978  0.16926359  1
  Mn  Mn79  1  0.33228022  -0.00053132  0.50087082  1
  Mn  Mn80  1  0.33495859  0.00056793  0.83377921  1
  Mn  Mn81  1  0.33261992  0.49895676  0.16686321  1
  Mn  Mn82  1  0.33110964  0.50010114  0.49975402  1
  Mn  Mn83  1  0.33290096  0.49936330  0.83213040  1
  Mn  Mn84  1  0.66539270  0.00261118  0.16729565  1
  Mn  Mn85  1  0.66437148  0.00142195  0.50070802  1
  Mn  Mn86  1  0.66621655  -0.00158386  0.83100521  1
  Mn  Mn87  1  0.66544870  0.49824670  0.16887229  1
  Mn  Mn88  1  0.66662762  0.50009561  0.49848259  1
  Mn  Mn89  1  0.66488042  0.50216524  0.83588872  1
  Mn  Mn90  1  0.00148907  0.24833911  0.16706728  1
  Mn  Mn91  1  -0.00247873  0.25015474  0.49734131  1
  Mn  Mn92  1  0.00255027  0.24892926  0.82871523  1
  Mn  Mn93  1  0.00120371  0.74991157  0.16704957  1
  Mn  Mn94  1  0.00010534  0.74960439  0.50170199  1
  Mn  Mn95  1  0.00079556  0.75121480  0.83290903  1
  Mn  Mn96  1  0.33277210  0.25081264  0.16670781  1
  Mn  Mn97  1  0.33181244  0.24868169  0.50008727  1
  Mn  Mn98  1  0.33382352  0.24961463  0.83506470  1
  Mn  Mn99  1  0.33349416  0.74883919  0.16919986  1
  Mn  Mn100  1  0.33152221  0.75099506  0.50012962  1
  Mn  Mn101  1  0.33442588  0.75180751  0.83135080  1
  Mn  Mn102  1  0.66569990  0.25078356  0.16868712  1
  Mn  Mn103  1  0.66645912  0.24803007  0.49908262  1
  Mn  Mn104  1  0.66476750  0.24971498  0.83264222  1
  Mn  Mn105  1  0.66424120  0.74839530  0.16643298  1
  Mn  Mn106  1  0.66485985  0.75036447  0.49931731  1
  Mn  Mn107  1  0.66736734  0.75073966  0.83318007  1
  Mn  Mn108  1  0.16910646  0.25138114  -0.00028212  1
  Mn  Mn109  1  0.16636942  0.24991834  0.33163345  1
  Mn  Mn110  1  0.16609861  0.24796887  0.66667879  1
  Mn  Mn111  1  0.16510125  0.74844155  -0.00020481  1
  Mn  Mn112  1  0.16886710  0.74940777  0.33434765  1
  Mn  Mn113  1  0.16749403  0.75195816  0.66753234  1
  Mn  Mn114  1  0.49981925  0.25165244  0.00009548  1
  Mn  Mn115  1  0.50060611  0.24792067  0.33356349  1
  Mn  Mn116  1  0.49801208  0.24793574  0.66901967  1
  Mn  Mn117  1  0.49946279  0.75015559  0.00090286  1
  Mn  Mn118  1  0.50008010  0.75112396  0.33399149  1
  Mn  Mn119  1  0.49712691  0.75175420  0.66505463  1
  Mn  Mn120  1  0.83340375  0.25054126  0.00066513  1
  Mn  Mn121  1  0.83446102  0.24939029  0.33442619  1
  Mn  Mn122  1  0.83370159  0.24710930  0.66553550  1
  Mn  Mn123  1  0.83398779  0.74809648  -0.00226302  1
  Mn  Mn124  1  0.83210067  0.75045216  0.33473840  1
  Mn  Mn125  1  0.83460534  0.75160552  0.66788337  1
  Mn  Mn126  1  0.16737264  0.00128277  -0.00045316  1
  Mn  Mn127  1  0.16735973  0.00207399  0.33478340  1
  Mn  Mn128  1  0.16576266  -0.00116685  0.66626050  1
  Mn  Mn129  1  0.16641745  0.49930766  -0.00082371  1
  Mn  Mn130  1  0.16755645  0.49767146  0.33224645  1
  Mn  Mn131  1  0.16779609  0.50087363  0.66837057  1
  Mn  Mn132  1  0.49804884  0.00147610  0.00141689  1
  Mn  Mn133  1  0.49965010  -0.00118016  0.33457827  1
  Mn  Mn134  1  0.49903475  -0.00046267  0.66680844  1
  Mn  Mn135  1  0.50107247  0.49873455  -0.00000304  1
  Mn  Mn136  1  0.50131861  0.50222834  0.33438565  1
  Mn  Mn137  1  0.49620620  0.50137352  0.66791410  1
  Mn  Mn138  1  0.83498564  0.00073763  -0.00237586  1
  Mn  Mn139  1  0.83426700  0.00188586  0.33299482  1
  Mn  Mn140  1  0.83454984  0.00043206  0.66687870  1
  Mn  Mn141  1  0.83375420  0.49977391  0.00136275  1
  Mn  Mn142  1  0.83231659  0.49785795  0.33375938  1
  Mn  Mn143  1  0.83357887  0.50085274  0.66659692  1
  O  O144  1  0.17237716  0.12750071  0.01798932  1
  O  O145  1  0.17268258  0.12590813  0.36020431  1
  O  O146  1  0.17052649  0.12077376  0.69409466  1
  O  O147  1  0.15988095  0.62405001  0.01899730  1
  O  O148  1  0.17579885  0.62329623  0.35909149  1
  O  O149  1  0.17368239  0.62766128  0.69364383  1
  O  O150  1  0.49553849  0.12744319  0.01953196  1
  O  O151  1  0.50356609  0.12166996  0.36073539  1
  O  O152  1  0.50295080  0.12154844  0.69466437  1
  O  O153  1  0.50700001  0.62290169  0.01873617  1
  O  O154  1  0.50803757  0.62871966  0.36218531  1
  O  O155  1  0.48945609  0.62970081  0.69232847  1
  O  O156  1  0.83409379  0.12871467  0.01801187  1
  O  O157  1  0.84435175  0.12985868  0.36102472  1
  O  O158  1  0.84183105  0.12032168  0.69209908  1
  O  O159  1  0.83749341  0.62259064  0.01060280  1
  O  O160  1  0.82744954  0.62362277  0.35662085  1
  O  O161  1  0.84140698  0.63172208  0.68993574  1
  O  O162  1  0.15880817  0.37171895  0.31341152  1
  O  O163  1  0.17224779  0.37443732  0.65654785  1
  O  O164  1  0.17131943  0.37517162  0.97507306  1
  O  O165  1  0.15742076  0.87795150  0.32502586  1
  O  O166  1  0.16725731  0.87746578  0.63659654  1
  O  O167  1  0.16071264  0.87332367  0.97940964  1
  O  O168  1  0.49252247  0.37471858  0.32399667  1
  O  O169  1  0.49200408  0.37250436  0.65517107  1
  O  O170  1  0.50092218  0.37535861  0.97560817  1
  O  O171  1  0.49883761  0.87535623  0.31387725  1
  O  O172  1  0.49129864  0.87696398  0.63731885  1
  O  O173  1  0.49828652  0.87684012  0.98143314  1
  O  O174  1  0.82314796  0.36834556  0.30747326  1
  O  O175  1  0.83542617  0.36950596  0.64635092  1
  O  O176  1  0.82720693  0.37546805  0.98826460  1
  O  O177  1  0.82647891  0.87737350  0.32284991  1
  O  O178  1  0.82975283  0.87711160  0.65332262  1
  O  O179  1  0.84174208  0.87210482  0.97514955  1
  O  O180  1  -0.00092548  0.37023938  0.18919917  1
  O  O181  1  -0.00680234  0.37233246  0.52186878  1
  O  O182  1  0.00842271  0.37719304  0.83915938  1
  O  O183  1  0.00141341  0.88000856  0.18919790  1
  O  O184  1  0.00863450  0.87644689  0.52142139  1
  O  O185  1  -0.00779530  0.87326573  0.86138757  1
  O  O186  1  0.33037745  0.37400646  0.19393665  1
  O  O187  1  0.33359651  0.37037835  0.52551860  1
  O  O188  1  0.32642612  0.37323317  0.85164701  1
  O  O189  1  0.33673991  0.87536994  0.18456157  1
  O  O190  1  0.32783240  0.87536453  0.52775390  1
  O  O191  1  0.32795901  0.87770784  0.84861928  1
  O  O192  1  0.66950344  0.37300846  0.19658480  1
  O  O193  1  0.67212525  0.37252650  0.51168707  1
  O  O194  1  0.65733389  0.37918870  0.85423553  1
  O  O195  1  0.66213001  0.87810322  0.18854995  1
  O  O196  1  0.65966836  0.87987119  0.52795418  1
  O  O197  1  0.66270793  0.87476566  0.84449555  1
  O  O198  1  -0.00432966  0.12479535  0.15417531  1
  O  O199  1  -0.00057739  0.12682950  0.47365024  1
  O  O200  1  0.01268364  0.11936205  0.80616249  1
  O  O201  1  0.00672754  0.62399053  0.14832759  1
  O  O202  1  0.00334262  0.62380663  0.49179145  1
  O  O203  1  0.00906766  0.63098630  0.80335789  1
  O  O204  1  0.33493445  0.12831320  0.14818617  1
  O  O205  1  0.33387966  0.12344123  0.47749157  1
  O  O206  1  0.33611345  0.12227551  0.80631932  1
  O  O207  1  0.33585289  0.62249227  0.15905233  1
  O  O208  1  0.33425271  0.63008565  0.47476528  1
  O  O209  1  0.33990187  0.62751009  0.80881441  1
  O  O210  1  0.66704035  0.12806809  0.15681761  1
  O  O211  1  0.66527717  0.12446284  0.47670674  1
  O  O212  1  0.66538556  0.11918476  0.81093135  1
  O  O213  1  0.66136347  0.62035166  0.14613695  1
  O  O214  1  0.67353378  0.62286504  0.47683747  1
  O  O215  1  0.66514638  0.62793902  0.82317064  1
  O  O216  1  0.08283108  0.02400610  0.25492388  1
  O  O217  1  0.07811499  0.02475940  0.58963757  1
  O  O218  1  0.08945359  0.01027704  0.90757832  1
  O  O219  1  0.08689760  0.51308495  0.24844704  1
  O  O220  1  0.07962927  0.51755002  0.59391817  1
  O  O221  1  0.07627257  0.52384982  0.91947132  1
  O  O222  1  0.41385569  0.02460749  0.25730472  1
  O  O223  1  0.40899801  0.02338812  0.59244673  1
  O  O224  1  0.41159817  0.02320477  0.92038661  1
  O  O225  1  0.41303548  0.51747582  0.25856130  1
  O  O226  1  0.40668074  0.52167961  0.58923478  1
  O  O227  1  0.41973101  0.51221352  0.90975405  1
  O  O228  1  0.74758963  0.02133950  0.25524915  1
  O  O229  1  0.74351677  0.02333393  0.58982924  1
  O  O230  1  0.75379635  0.01184552  0.91099837  1
  O  O231  1  0.73711338  0.51395378  0.26344509  1
  O  O232  1  0.75042545  0.51504815  0.57961644  1
  O  O233  1  0.74208788  0.51542154  0.92491997  1
  O  O234  1  0.24602965  0.22616113  0.24613816  1
  O  O235  1  0.24401663  0.22447638  0.58208632  1
  O  O236  1  0.25125897  0.22582579  0.91343866  1
  O  O237  1  0.25063780  0.72906613  0.25322714  1
  O  O238  1  0.24376315  0.72734206  0.57654548  1
  O  O239  1  0.23917165  0.73809431  0.90560194  1
  O  O240  1  0.57687889  0.22808163  0.24640927  1
  O  O241  1  0.57745981  0.22635394  0.58220706  1
  O  O242  1  0.57337391  0.23703852  0.90836417  1
  O  O243  1  0.57742077  0.72762749  0.24821985  1
  O  O244  1  0.56838471  0.73398436  0.57166144  1
  O  O245  1  0.57916538  0.73619709  0.91115493  1
  O  O246  1  0.91381364  0.23102039  0.25316914  1
  O  O247  1  0.90948523  0.22501478  0.57508216  1
  O  O248  1  0.91534545  0.23419066  0.90397607  1
  O  O249  1  0.91737213  0.74650656  0.25279173  1
  O  O250  1  0.91431127  0.73240972  0.58331949  1
  O  O251  1  0.91572963  0.72483913  0.90807467  1
  O  O252  1  0.08868730  0.48885107  0.08618342  1
  O  O253  1  0.08288792  0.48642023  0.41562942  1
  O  O254  1  0.09911196  0.48908666  0.76169404  1
  O  O255  1  0.08186679  0.98891580  0.08046573  1
  O  O256  1  0.09207804  0.98853823  0.42651846  1
  O  O257  1  0.08837939  0.96933217  0.75051300  1
  O  O258  1  0.42137516  0.49259802  0.08554952  1
  O  O259  1  0.42030821  0.49358052  0.41983488  1
  O  O260  1  0.41617912  0.47744034  0.75326477  1
  O  O261  1  0.41920756  0.99613537  0.09167342  1
  O  O262  1  0.42530937  0.98462530  0.42710821  1
  O  O263  1  0.42427090  0.97697338  0.75615233  1
  O  O264  1  0.75275175  0.47780577  0.09431298  1
  O  O265  1  0.75869475  0.47777315  0.42187644  1
  O  O266  1  0.75360254  0.49748954  0.75624760  1
  O  O267  1  0.75310768  0.99812142  0.08918414  1
  O  O268  1  0.75160047  0.99482655  0.41602407  1
  O  O269  1  0.75472663  0.98173683  0.75264517  1
  O  O270  1  0.25425183  0.26196125  0.08008297  1
  O  O271  1  0.25659156  0.26573162  0.40463609  1
  O  O272  1  0.25553544  0.26459336  0.74716932  1
  O  O273  1  0.24645377  0.75123675  0.08600525  1
  O  O274  1  0.25292827  0.77173705  0.41676235  1
  O  O275  1  0.25635414  0.77281226  0.74038822  1
  O  O276  1  0.58954286  0.26777225  0.07369227  1
  O  O277  1  0.59376214  0.26115369  0.40527839  1
  O  O278  1  0.58069925  0.26095189  0.74954080  1
  O  O279  1  0.58292091  0.75662075  0.08389720  1
  O  O280  1  0.58919249  0.77411721  0.40788816  1
  O  O281  1  0.58442767  0.77296443  0.74074144  1
  O  O282  1  0.91329588  0.26282300  0.09099002  1
  O  O283  1  0.91695097  0.27880432  0.41058710  1
  O  O284  1  0.92610881  0.25474134  0.73864097  1
  O  O285  1  0.92330196  0.76052225  0.07228413  1
  O  O286  1  0.92095330  0.76260026  0.41414791  1
  O  O287  1  0.92344798  0.77506935  0.74700899  1
  O  O288  1  0.25268888  0.48792214  0.08098020  1
  O  O289  1  0.25998530  0.48145083  0.40595734  1
  O  O290  1  0.26053435  0.48382564  0.73946462  1
  O  O291  1  0.25098510  0.99934865  0.08400152  1
  O  O292  1  0.25325196  0.98221242  0.41660203  1
  O  O293  1  0.25468982  0.98030320  0.74405970  1
  O  O294  1  0.59570164  0.48181882  0.07427629  1
  O  O295  1  0.59683983  0.48744461  0.40326220  1
  O  O296  1  0.57665464  0.49152043  0.75625124  1
  O  O297  1  0.58020732  0.99518108  0.08680833  1
  O  O298  1  0.58812751  0.97780727  0.41095125  1
  O  O299  1  0.58859810  0.97660914  0.73869635  1
  O  O300  1  0.91902071  0.48664541  0.08459472  1
  O  O301  1  0.91692146  0.47560707  0.41193177  1
  O  O302  1  0.92898456  0.49466429  0.73966645  1
  O  O303  1  0.92196174  0.98391319  0.07317075  1
  O  O304  1  0.92960374  0.98483158  0.40309716  1
  O  O305  1  0.92601639  0.97754140  0.74268549  1
  O  O306  1  0.08968054  0.25674421  0.08825708  1
  O  O307  1  0.07827414  0.26168474  0.41163379  1
  O  O308  1  0.09156779  0.26254474  0.75141952  1
  O  O309  1  0.07966112  0.76330623  0.07749781  1
  O  O310  1  0.08945449  0.76318112  0.42310707  1
  O  O311  1  0.09073558  0.77792810  0.75931130  1
  O  O312  1  0.41720466  0.25912600  0.08310410  1
  O  O313  1  0.41763567  0.25711794  0.41591446  1
  O  O314  1  0.41844950  0.26877543  0.75596643  1
  O  O315  1  0.42084532  0.75423310  0.09063875  1
  O  O316  1  0.42481160  0.76742166  0.42743350  1
  O  O317  1  0.42143486  0.77815863  0.75018548  1
  O  O318  1  0.75116115  0.26946375  0.09198435  1
  O  O319  1  0.75989573  0.26602756  0.42032882  1
  O  O320  1  0.75133776  0.24977426  0.74867508  1
  O  O321  1  0.74869239  0.75277381  0.08127625  1
  O  O322  1  0.74752917  0.76335405  0.41583592  1
  O  O323  1  0.75535861  0.76969049  0.75384803  1
  O  O324  1  0.24857078  0.02380208  0.25081455  1
  O  O325  1  0.24287498  0.02397829  0.58061820  1
  O  O326  1  0.24894288  0.02042531  0.91171116  1
  O  O327  1  0.24605681  0.51968787  0.24744917  1
  O  O328  1  0.24253047  0.52424667  0.57793558  1
  O  O329  1  0.23993330  0.51549991  0.90208619  1
  O  O330  1  0.57899842  0.02156195  0.25003690  1
  O  O331  1  0.57372605  0.02488721  0.57943138  1
  O  O332  1  0.57341888  0.00981845  0.90395779  1
  O  O333  1  0.57508547  0.52323142  0.24395869  1
  O  O334  1  0.57302720  0.51736114  0.57424187  1
  O  O335  1  0.58029257  0.52192782  0.91517067  1
  O  O336  1  0.91032642  0.02278468  0.24544274  1
  O  O337  1  0.91203287  0.02207066  0.57709171  1
  O  O338  1  0.91212185  0.01726684  0.89978150  1
  O  O339  1  0.91286682  0.49878462  0.25018614  1
  O  O340  1  0.90842717  0.51956419  0.57527492  1
  O  O341  1  0.91557964  0.51986847  0.90720595  1
  O  O342  1  0.08273381  0.22462533  0.25150886  1
  O  O343  1  0.07949390  0.22612372  0.58434752  1
  O  O344  1  0.09059946  0.23878951  0.90902104  1
  O  O345  1  0.09010615  0.73445588  0.24889937  1
  O  O346  1  0.07869616  0.73173225  0.59521737  1
  O  O347  1  0.07647890  0.72828891  0.91888515  1
  O  O348  1  0.41365902  0.22847912  0.25467021  1
  O  O349  1  0.41230989  0.22450795  0.59161667  1
  O  O350  1  0.41254403  0.22914080  0.91909371  1
  O  O351  1  0.41530108  0.72668543  0.25945548  1
  O  O352  1  0.40596820  0.72842810  0.58932507  1
  O  O353  1  0.42070691  0.73841058  0.91067388  1
  O  O354  1  0.75122682  0.22404139  0.25882084  1
  O  O355  1  0.74679574  0.22246479  0.58564724  1
  O  O356  1  0.74857263  0.23856107  0.91422577  1
  O  O357  1  0.73986918  0.73871822  0.25749304  1
  O  O358  1  0.75031886  0.73724795  0.58322013  1
  O  O359  1  0.75066701  0.73149319  0.91770016  1
