# generated using pymatgen
data_Ba17Sr5La8Pr42Mn72O216
_symmetry_space_group_name_H-M   'P 1'
_cell_length_a   16.67823719
_cell_length_b   15.70540865
_cell_length_c   16.82863493
_cell_angle_alpha   90.00717413
_cell_angle_beta   89.98787043
_cell_angle_gamma   90.04455813
_symmetry_Int_Tables_number   1
_chemical_formula_structural   Ba17Sr5La8Pr42Mn72O216
_chemical_formula_sum   'Ba17 Sr5 La8 Pr42 Mn72 O216'
_cell_volume   4408.06643887
_cell_formula_units_Z   1
loop_
 _symmetry_equiv_pos_site_id
 _symmetry_equiv_pos_as_xyz
  1  'x, y, z'
loop_
 _atom_site_type_symbol
 _atom_site_label
 _atom_site_symmetry_multiplicity
 _atom_site_fract_x
 _atom_site_fract_y
 _atom_site_fract_z
 _atom_site_occupancy
  Ba  Ba0  1  0.16585745  0.12575844  0.83534250  1
  Ba  Ba1  1  0.33307762  0.62541054  0.99805836  1
  Ba  Ba2  1  0.33296741  0.12471718  0.33123137  1
  Ba  Ba3  1  0.67116335  0.12487303  0.33180014  1
  Ba  Ba4  1  -0.00122883  0.87314043  0.67008038  1
  Ba  Ba5  1  0.49903162  0.62612516  0.49863016  1
  Ba  Ba6  1  0.49746377  0.87389295  0.49823573  1
  Ba  Ba7  1  0.83598306  0.87351133  0.50079448  1
  Ba  Ba8  1  -0.00169519  0.87629174  0.00025294  1
  Ba  Ba9  1  0.16462077  0.87501133  0.16699034  1
  Ba  Ba10  1  0.16714566  0.62565114  0.16880592  1
  Ba  Ba11  1  0.50110892  0.37501335  0.16563637  1
  Ba  Ba12  1  0.33422584  0.37500920  0.33054622  1
  Ba  Ba13  1  0.66882681  0.12564997  0.99809399  1
  Ba  Ba14  1  0.33270735  0.12575365  0.66523668  1
  Ba  Ba15  1  0.66755056  0.37611985  0.33221607  1
  Ba  Ba16  1  0.83431508  0.12592328  0.50145499  1
  Sr  Sr17  1  0.33568835  0.62531117  0.32896966  1
  Sr  Sr18  1  0.16528005  0.87505421  0.83250191  1
  Sr  Sr19  1  0.00311874  0.12395177  1.00245357  1
  Sr  Sr20  1  0.83207337  0.62440116  0.83628375  1
  Sr  Sr21  1  0.16482631  0.12247574  0.16666450  1
  La  La22  1  0.49994351  0.62628559  0.83335544  1
  La  La23  1  0.16844190  0.12697131  0.50424955  1
  La  La24  1  0.50376910  0.12554235  0.16733893  1
  La  La25  1  0.83458411  0.62428774  0.16619364  1
  La  La26  1  0.66482221  0.87332336  -0.00158281  1
  La  La27  1  0.16119723  0.62770838  0.83864448  1
  La  La28  1  0.83790022  0.12450480  0.83592318  1
  La  La29  1  0.00004906  0.12325111  0.33383534  1
  Pr  Pr30  1  0.17130651  0.37241904  0.49862434  1
  Pr  Pr31  1  0.00325432  0.37392060  0.00605259  1
  Pr  Pr32  1  0.83353852  0.37182983  0.16515546  1
  Pr  Pr33  1  0.16472706  0.62189345  0.50139476  1
  Pr  Pr34  1  0.32628534  0.87643218  -0.00119097  1
  Pr  Pr35  1  0.16821403  0.87735968  0.49860999  1
  Pr  Pr36  1  0.83271557  0.62153503  0.50293113  1
  Pr  Pr37  1  0.33095966  0.87545515  0.66729744  1
  Pr  Pr38  1  -0.00307474  0.37323780  0.67433038  1
  Pr  Pr39  1  0.66744251  0.12437115  0.66077490  1
  Pr  Pr40  1  0.49845123  0.37435743  0.83475612  1
  Pr  Pr41  1  0.00549158  0.12202892  0.66606120  1
  Pr  Pr42  1  0.66374582  0.87556447  0.33658509  1
  Pr  Pr43  1  0.33435751  0.12471962  0.99547598  1
  Pr  Pr44  1  0.00172828  0.62768421  1.00009173  1
  Pr  Pr45  1  0.33724257  0.37421700  0.66300767  1
  Pr  Pr46  1  0.50550232  0.12898871  0.49920228  1
  Pr  Pr47  1  0.00318300  0.37732638  0.33891433  1
  Pr  Pr48  1  -0.00635244  0.62587956  0.66893684  1
  Pr  Pr49  1  0.50021708  0.12339821  0.83511825  1
  Pr  Pr50  1  0.83043041  0.87483288  0.82691544  1
  Pr  Pr51  1  0.67098667  0.62585412  0.66458925  1
  Pr  Pr52  1  0.66711086  0.37730033  0.00594217  1
  Pr  Pr53  1  0.66684362  0.62196915  0.99741063  1
  Pr  Pr54  1  0.17456913  0.37420715  0.16752757  1
  Pr  Pr55  1  -0.00091426  0.62690576  0.33361406  1
  Pr  Pr56  1  0.33033410  0.37389983  0.00521970  1
  Pr  Pr57  1  0.66826152  0.62992239  0.33165420  1
  Pr  Pr58  1  0.00529022  0.87448624  0.33747174  1
  Pr  Pr59  1  0.66090653  0.37837915  0.66480870  1
  Pr  Pr60  1  0.82881255  0.37567807  0.83467197  1
  Pr  Pr61  1  0.66281812  0.87385268  0.66741254  1
  Pr  Pr62  1  0.83838151  0.12444474  0.17010022  1
  Pr  Pr63  1  0.49598207  0.87595462  0.82782764  1
  Pr  Pr64  1  0.49492423  0.87753981  0.16442421  1
  Pr  Pr65  1  0.50167710  0.62479353  0.17171872  1
  Pr  Pr66  1  0.83464299  0.37589363  0.49715436  1
  Pr  Pr67  1  0.32691575  0.87426627  0.33234235  1
  Pr  Pr68  1  0.32852561  0.62660488  0.66086960  1
  Pr  Pr69  1  0.17094140  0.37525454  0.83460974  1
  Pr  Pr70  1  0.49749966  0.37378425  0.48960246  1
  Pr  Pr71  1  0.83110081  0.87665284  0.16444746  1
  Mn  Mn72  1  -0.00091139  0.00114503  0.16807402  1
  Mn  Mn73  1  0.00160057  0.00041386  0.50122599  1
  Mn  Mn74  1  -0.00124118  0.00039941  0.83536701  1
  Mn  Mn75  1  -0.00036122  0.49780009  0.17004967  1
  Mn  Mn76  1  0.00099861  0.49952649  0.50471762  1
  Mn  Mn77  1  -0.00289592  0.49797372  0.83782848  1
  Mn  Mn78  1  0.33370060  0.00036210  0.16362608  1
  Mn  Mn79  1  0.33320381  -0.00036659  0.49867723  1
  Mn  Mn80  1  0.33315358  -0.00021941  0.83283080  1
  Mn  Mn81  1  0.33515083  0.50103191  0.16538994  1
  Mn  Mn82  1  0.33205043  0.50181363  0.49904199  1
  Mn  Mn83  1  0.33345793  0.49809875  0.82943433  1
  Mn  Mn84  1  0.66854019  -0.00217239  0.16501797  1
  Mn  Mn85  1  0.66699044  -0.00145023  0.49952473  1
  Mn  Mn86  1  0.66626352  0.00049143  0.83109207  1
  Mn  Mn87  1  0.66937192  0.50254084  0.16557353  1
  Mn  Mn88  1  0.66652102  0.50152974  0.50027609  1
  Mn  Mn89  1  0.66438571  0.49894170  0.83382457  1
  Mn  Mn90  1  0.00120153  0.25144288  0.17010142  1
  Mn  Mn91  1  0.00086933  0.25289668  0.50415356  1
  Mn  Mn92  1  -0.00240482  0.25277420  0.83757114  1
  Mn  Mn93  1  -0.00312940  0.74847374  0.16826517  1
  Mn  Mn94  1  0.00224175  0.74682901  0.50162687  1
  Mn  Mn95  1  -0.00330904  0.74824081  0.83481820  1
  Mn  Mn96  1  0.33330399  0.24789085  0.16308307  1
  Mn  Mn97  1  0.33428893  0.24920866  0.49928554  1
  Mn  Mn98  1  0.33478400  0.25180803  0.83346898  1
  Mn  Mn99  1  0.33589257  0.75140049  0.16513090  1
  Mn  Mn100  1  0.32999882  0.74920810  0.49853533  1
  Mn  Mn101  1  0.33295291  0.74961659  0.82907776  1
  Mn  Mn102  1  0.66948028  0.24998601  0.16388915  1
  Mn  Mn103  1  0.66741070  0.25142086  0.50170160  1
  Mn  Mn104  1  0.66614893  0.25287802  0.83042865  1
  Mn  Mn105  1  0.66774114  0.75116377  0.16528517  1
  Mn  Mn106  1  0.66807279  0.74956554  0.49918458  1
  Mn  Mn107  1  0.66488741  0.74775941  0.83457096  1
  Mn  Mn108  1  0.16685535  0.25006512  0.00154014  1
  Mn  Mn109  1  0.16504535  0.24989419  0.33338157  1
  Mn  Mn110  1  0.16517747  0.25418933  0.66762048  1
  Mn  Mn111  1  0.16551105  0.75055259  -0.00029990  1
  Mn  Mn112  1  0.16750108  0.74866442  0.33657839  1
  Mn  Mn113  1  0.16511833  0.74670791  0.66797553  1
  Mn  Mn114  1  0.50129797  0.24906011  -0.00301814  1
  Mn  Mn115  1  0.50123180  0.24818242  0.33173939  1
  Mn  Mn116  1  0.50124811  0.25210571  0.66604883  1
  Mn  Mn117  1  0.50049567  0.75137654  -0.00093403  1
  Mn  Mn118  1  0.50060723  0.75075203  0.32971617  1
  Mn  Mn119  1  0.49841486  0.74940043  0.66843685  1
  Mn  Mn120  1  0.83574255  0.25015779  -0.00036252  1
  Mn  Mn121  1  0.83635505  0.25210221  0.33338181  1
  Mn  Mn122  1  0.83136181  0.25353689  0.66929726  1
  Mn  Mn123  1  0.83132673  0.74930737  -0.00121997  1
  Mn  Mn124  1  0.83606388  0.74953498  0.33158337  1
  Mn  Mn125  1  0.83077578  0.74712199  0.66797540  1
  Mn  Mn126  1  0.16627638  0.00083404  0.00016461  1
  Mn  Mn127  1  0.16621990  0.00084086  0.33453111  1
  Mn  Mn128  1  0.16592770  -0.00082955  0.66685379  1
  Mn  Mn129  1  0.16551402  0.49953789  0.00036153  1
  Mn  Mn130  1  0.16626159  0.49908192  0.33497787  1
  Mn  Mn131  1  0.16499125  0.49820415  0.66943091  1
  Mn  Mn132  1  0.50012043  -0.00271303  -0.00251184  1
  Mn  Mn133  1  0.50079509  -0.00071287  0.33075695  1
  Mn  Mn134  1  0.50003338  0.00086722  0.66541445  1
  Mn  Mn135  1  0.50049313  0.50228760  -0.00192222  1
  Mn  Mn136  1  0.50109705  0.50178396  0.33301441  1
  Mn  Mn137  1  0.49813905  0.49958242  0.66670219  1
  Mn  Mn138  1  0.83319244  0.00004547  -0.00114643  1
  Mn  Mn139  1  0.83666588  -0.00158082  0.33109991  1
  Mn  Mn140  1  0.83081803  0.00063273  0.66935018  1
  Mn  Mn141  1  0.83476113  0.50007788  0.00033305  1
  Mn  Mn142  1  0.83523469  0.50105772  0.33452020  1
  Mn  Mn143  1  0.83229659  0.49861301  0.66794079  1
  O  O144  1  0.17196608  0.12815714  0.01501965  1
  O  O145  1  0.15984882  0.12662395  0.35887611  1
  O  O146  1  0.16271090  0.13002604  0.67782958  1
  O  O147  1  0.15875243  0.62328680  0.00870642  1
  O  O148  1  0.16408482  0.62306427  0.35632636  1
  O  O149  1  0.17679127  0.61825698  0.69683273  1
  O  O150  1  0.49332045  0.11889178  0.02202637  1
  O  O151  1  0.50165246  0.12158708  0.35239922  1
  O  O152  1  0.50719029  0.12780224  0.69322788  1
  O  O153  1  0.50426833  0.62915684  0.02606812  1
  O  O154  1  0.50271873  0.62761114  0.33941687  1
  O  O155  1  0.49073866  0.62290562  0.69132976  1
  O  O156  1  0.83391510  0.12881184  0.02546392  1
  O  O157  1  0.83917645  0.12619570  0.34413781  1
  O  O158  1  0.82074246  0.13183457  0.69155691  1
  O  O159  1  0.82626198  0.62423247  0.02355874  1
  O  O160  1  0.83426423  0.62432237  0.36027281  1
  O  O161  1  0.82796242  0.62073610  0.68724120  1
  O  O162  1  0.15706314  0.37437625  0.31190241  1
  O  O163  1  0.15273161  0.37844427  0.64108243  1
  O  O164  1  0.16991647  0.37638506  0.97967637  1
  O  O165  1  0.15996851  0.87366364  0.32519029  1
  O  O166  1  0.16894691  0.87061595  0.64383717  1
  O  O167  1  0.17350961  0.87322117  0.98521604  1
  O  O168  1  0.50174404  0.37534725  0.32789187  1
  O  O169  1  0.50211086  0.37762456  0.63566426  1
  O  O170  1  0.50784892  0.37832443  0.97789882  1
  O  O171  1  0.50933690  0.87448232  0.30949987  1
  O  O172  1  0.50457107  0.87399800  0.65394548  1
  O  O173  1  0.50762978  0.87388424  0.96997410  1
  O  O174  1  0.84276484  0.37931457  0.31039368  1
  O  O175  1  0.84009937  0.37798339  0.64035538  1
  O  O176  1  0.83738849  0.37621002  0.97712944  1
  O  O177  1  0.84489410  0.87149616  0.30794827  1
  O  O178  1  0.82886030  0.86935020  0.65975555  1
  O  O179  1  0.82836630  0.87054292  0.97198277  1
  O  O180  1  -0.00654137  0.37586765  0.19653776  1
  O  O181  1  -0.00367266  0.37773944  0.53206673  1
  O  O182  1  -0.01323354  0.37661163  0.86218434  1
  O  O183  1  -0.01021385  0.87307251  0.19186737  1
  O  O184  1  0.00902190  0.86989667  0.51321618  1
  O  O185  1  -0.01415634  0.87214202  0.84201647  1
  O  O186  1  0.32950221  0.37372432  0.17183676  1
  O  O187  1  0.33851858  0.37595176  0.51808195  1
  O  O188  1  0.33599587  0.37610900  0.86019261  1
  O  O189  1  0.34113854  0.87632693  0.18765787  1
  O  O190  1  0.32650426  0.87333755  0.52311450  1
  O  O191  1  0.33998928  0.87586737  0.85407589  1
  O  O192  1  0.67304370  0.37735422  0.17469435  1
  O  O193  1  0.66173436  0.37717212  0.52066601  1
  O  O194  1  0.66189999  0.37681545  0.86237721  1
  O  O195  1  0.67443025  0.87126347  0.19351680  1
  O  O196  1  0.66638405  0.87128874  0.52237090  1
  O  O197  1  0.66702029  0.87021062  0.85535847  1
  O  O198  1  -0.00583079  0.13019196  0.15055468  1
  O  O199  1  0.00591547  0.13090078  0.48004236  1
  O  O200  1  -0.00604972  0.13250078  0.80983761  1
  O  O201  1  -0.00537251  0.61957621  0.14362926  1
  O  O202  1  0.00000821  0.62116549  0.47614944  1
  O  O203  1  0.00531465  0.61917831  0.81318863  1
  O  O204  1  0.33694641  0.12363120  0.14034535  1
  O  O205  1  0.32615260  0.12474684  0.48980456  1
  O  O206  1  0.33990682  0.12627887  0.82062888  1
  O  O207  1  0.34429032  0.62771620  0.15650955  1
  O  O208  1  0.32237243  0.62546446  0.48065873  1
  O  O209  1  0.33602642  0.62037820  0.80371241  1
  O  O210  1  0.67185240  0.12388801  0.15421803  1
  O  O211  1  0.66332115  0.12561716  0.49166629  1
  O  O212  1  0.66555381  0.13098995  0.80456646  1
  O  O213  1  0.66832675  0.62877832  0.13960106  1
  O  O214  1  0.67591600  0.62612362  0.47700057  1
  O  O215  1  0.66179689  0.62168612  0.80651649  1
  O  O216  1  0.07861582  0.01374678  0.25832092  1
  O  O217  1  0.08338641  0.02007383  0.58354902  1
  O  O218  1  0.08299055  0.00674581  0.91646688  1
  O  O219  1  0.07354662  0.51404439  0.26210584  1
  O  O220  1  0.07943161  0.52771862  0.59295699  1
  O  O221  1  0.07424000  0.51194492  0.92474562  1
  O  O222  1  0.42621747  0.01386380  0.23628229  1
  O  O223  1  0.42183463  0.01520425  0.57658135  1
  O  O224  1  0.41991683  0.01853943  0.91413684  1
  O  O225  1  0.42210389  0.51333982  0.24486534  1
  O  O226  1  0.40662779  0.51447023  0.59102536  1
  O  O227  1  0.42314068  0.51416218  0.90716876  1
  O  O228  1  0.76258032  0.00817041  0.23844160  1
  O  O229  1  0.74557869  0.00992519  0.58998816  1
  O  O230  1  0.75700440  0.01358971  0.90619399  1
  O  O231  1  0.74961488  0.52408369  0.25186178  1
  O  O232  1  0.74961662  0.51773027  0.58429798  1
  O  O233  1  0.74413918  0.51323496  0.91992750  1
  O  O234  1  0.24516363  0.24140163  0.24302394  1
  O  O235  1  0.24926968  0.24975412  0.58166042  1
  O  O236  1  0.25831151  0.24102077  0.92317284  1
  O  O237  1  0.25735868  0.74453770  0.25653927  1
  O  O238  1  0.24098018  0.72556145  0.58083631  1
  O  O239  1  0.24728187  0.73663554  0.90329304  1
  O  O240  1  0.58360020  0.23708508  0.24420942  1
  O  O241  1  0.58596858  0.23086298  0.58891186  1
  O  O242  1  0.57911263  0.23308758  0.90613166  1
  O  O243  1  0.59104346  0.72927766  0.24954110  1
  O  O244  1  0.58897934  0.73322796  0.59804849  1
  O  O245  1  0.58820396  0.72617086  0.92258071  1
  O  O246  1  0.91948721  0.23230183  0.25106680  1
  O  O247  1  0.92387494  0.23459448  0.59707553  1
  O  O248  1  0.91708857  0.22949654  0.91904301  1
  O  O249  1  0.91623746  0.72167813  0.25043847  1
  O  O250  1  0.91662248  0.72601232  0.58266334  1
  O  O251  1  0.91779617  0.72671492  0.92419107  1
  O  O252  1  0.08374908  0.47401667  0.09232622  1
  O  O253  1  0.08478688  0.47745190  0.42784051  1
  O  O254  1  0.08454487  0.47500353  0.75979066  1
  O  O255  1  0.08029401  0.99634722  0.08772163  1
  O  O256  1  0.08750597  0.98410688  0.42143208  1
  O  O257  1  0.07975201  0.99437014  0.74883852  1
  O  O258  1  0.41521121  0.48574469  0.07316995  1
  O  O259  1  0.41873430  0.49005013  0.42282563  1
  O  O260  1  0.41672617  0.47054125  0.74839640  1
  O  O261  1  0.41630595  0.97340200  0.07403323  1
  O  O262  1  0.41144952  0.98210130  0.40412445  1
  O  O263  1  0.41644901  0.98084591  0.74748104  1
  O  O264  1  0.75684828  0.48092164  0.08552418  1
  O  O265  1  0.76044539  0.48472448  0.42390803  1
  O  O266  1  0.74565022  0.47513032  0.75034033  1
  O  O267  1  0.74541155  0.97561232  0.07623656  1
  O  O268  1  0.74949252  0.98127187  0.40674855  1
  O  O269  1  0.74371269  0.97745068  0.74787520  1
  O  O270  1  0.24810797  0.26989199  0.08263675  1
  O  O271  1  0.24373580  0.26365832  0.42086444  1
  O  O272  1  0.24833435  0.27575712  0.75081910  1
  O  O273  1  0.25533079  0.76230195  0.07946205  1
  O  O274  1  0.24923843  0.77367135  0.41778801  1
  O  O275  1  0.25638331  0.76719240  0.73981180  1
  O  O276  1  0.58808152  0.26088209  0.07584161  1
  O  O277  1  0.57921954  0.25920074  0.42724485  1
  O  O278  1  0.58218040  0.28004204  0.74831397  1
  O  O279  1  0.58155932  0.77510756  0.08885070  1
  O  O280  1  0.58779022  0.76099928  0.41055855  1
  O  O281  1  0.57604364  0.76579819  0.76067420  1
  O  O282  1  0.91884624  0.27422718  0.08704950  1
  O  O283  1  0.91973442  0.27476135  0.42241906  1
  O  O284  1  0.90920786  0.27479784  0.75660371  1
  O  O285  1  0.90384547  0.76132872  0.09061221  1
  O  O286  1  0.92797240  0.76099573  0.40922042  1
  O  O287  1  0.90754036  0.75293862  0.75647326  1
  O  O288  1  0.25059399  0.48385367  0.07984721  1
  O  O289  1  0.24452430  0.48216761  0.42275579  1
  O  O290  1  0.25237559  0.46750672  0.74291842  1
  O  O291  1  0.25570312  0.98756242  0.07880304  1
  O  O292  1  0.24999059  0.97906970  0.41613622  1
  O  O293  1  0.25136108  0.98029473  0.74648870  1
  O  O294  1  0.59276291  0.49128110  0.07397907  1
  O  O295  1  0.58291389  0.49126554  0.42156779  1
  O  O296  1  0.57890687  0.47670754  0.75371535  1
  O  O297  1  0.58078000  0.97801652  0.08212842  1
  O  O298  1  0.58587530  0.98538587  0.41333361  1
  O  O299  1  0.58263206  0.97961684  0.74925008  1
  O  O300  1  0.91999816  0.47746059  0.08525372  1
  O  O301  1  0.92140064  0.47909168  0.41906156  1
  O  O302  1  0.91731480  0.48019790  0.75076751  1
  O  O303  1  0.90590224  0.98649230  0.09273343  1
  O  O304  1  0.92549773  0.98724125  0.41124099  1
  O  O305  1  0.90388684  0.99446361  0.76033735  1
  O  O306  1  0.08455351  0.27449719  0.09006810  1
  O  O307  1  0.08206117  0.27628413  0.42289414  1
  O  O308  1  0.07852544  0.27545617  0.75431830  1
  O  O309  1  0.07453892  0.75464091  0.08616242  1
  O  O310  1  0.09140044  0.75937120  0.42819716  1
  O  O311  1  0.08663028  0.75382360  0.75419388  1
  O  O312  1  0.40962378  0.26195946  0.07005592  1
  O  O313  1  0.41934889  0.25767875  0.42037289  1
  O  O314  1  0.41697743  0.27527138  0.74594998  1
  O  O315  1  0.41619476  0.77720618  0.07443578  1
  O  O316  1  0.41050257  0.76422686  0.40251551  1
  O  O317  1  0.41453784  0.77307606  0.74677903  1
  O  O318  1  0.75201017  0.27316407  0.07739570  1
  O  O319  1  0.75550955  0.26811671  0.42200940  1
  O  O320  1  0.74589130  0.28344517  0.74737682  1
  O  O321  1  0.74471957  0.77307961  0.07912927  1
  O  O322  1  0.74867153  0.76659319  0.40324031  1
  O  O323  1  0.73884245  0.76552248  0.74587977  1
  O  O324  1  0.24910707  0.00672598  0.25131788  1
  O  O325  1  0.24267703  0.00914931  0.57842413  1
  O  O326  1  0.25838928  0.01074437  0.92010964  1
  O  O327  1  0.24923261  0.50571682  0.24823430  1
  O  O328  1  0.24519392  0.51555205  0.58203014  1
  O  O329  1  0.24236495  0.51129365  0.90145709  1
  O  O330  1  0.58461720  0.00999929  0.24446140  1
  O  O331  1  0.58210651  0.02061957  0.58623571  1
  O  O332  1  0.58039908  0.01600349  0.90935874  1
  O  O333  1  0.58771079  0.52192423  0.24618153  1
  O  O334  1  0.58846938  0.51920480  0.59524705  1
  O  O335  1  0.58229296  0.52577979  0.91501965  1
  O  O336  1  0.91981367  0.02132884  0.25126159  1
  O  O337  1  0.92066378  0.01685385  0.59342811  1
  O  O338  1  0.91728587  0.02028940  0.92117110  1
  O  O339  1  0.91509920  0.52460448  0.25096731  1
  O  O340  1  0.91597072  0.52426634  0.58319390  1
  O  O341  1  0.91523895  0.52343530  0.92030304  1
  O  O342  1  0.07871740  0.23162429  0.25628476  1
  O  O343  1  0.08360826  0.23184223  0.58445620  1
  O  O344  1  0.08127565  0.24764478  0.92214947  1
  O  O345  1  0.07634374  0.73720745  0.26334307  1
  O  O346  1  0.07991567  0.71865030  0.59058818  1
  O  O347  1  0.07903382  0.73367851  0.91719538  1
  O  O348  1  0.42079580  0.23406264  0.23876423  1
  O  O349  1  0.42579864  0.23657790  0.57782333  1
  O  O350  1  0.42231484  0.23210459  0.91092134  1
  O  O351  1  0.43057803  0.74264570  0.23556296  1
  O  O352  1  0.40694107  0.73712916  0.58717575  1
  O  O353  1  0.42315292  0.73519016  0.90508316  1
  O  O354  1  0.75981257  0.24299805  0.23837926  1
  O  O355  1  0.74653175  0.24408869  0.58931624  1
  O  O356  1  0.75606341  0.24064376  0.90504054  1
  O  O357  1  0.75377762  0.72686549  0.24445989  1
  O  O358  1  0.75342457  0.72644543  0.58125152  1
  O  O359  1  0.74803230  0.72827111  0.91544757  1
