# generated using pymatgen
data_Ba17Sr5La8Pr42Mn72O216
_symmetry_space_group_name_H-M   'P 1'
_cell_length_a   16.67228014
_cell_length_b   15.70472983
_cell_length_c   16.81759782
_cell_angle_alpha   90.00864108
_cell_angle_beta   90.02616265
_cell_angle_gamma   89.98554076
_symmetry_Int_Tables_number   1
_chemical_formula_structural   Ba17Sr5La8Pr42Mn72O216
_chemical_formula_sum   'Ba17 Sr5 La8 Pr42 Mn72 O216'
_cell_volume   4403.41245997
_cell_formula_units_Z   1
loop_
 _symmetry_equiv_pos_site_id
 _symmetry_equiv_pos_as_xyz
  1  'x, y, z'
loop_
 _atom_site_type_symbol
 _atom_site_label
 _atom_site_symmetry_multiplicity
 _atom_site_fract_x
 _atom_site_fract_y
 _atom_site_fract_z
 _atom_site_occupancy
  Ba  Ba0  1  0.50126807  0.12483416  0.50314760  1
  Ba  Ba1  1  0.16635843  0.37410630  0.16492647  1
  Ba  Ba2  1  0.33414135  0.62742869  0.99865149  1
  Ba  Ba3  1  0.49912124  0.12454087  0.83527679  1
  Ba  Ba4  1  0.33172857  0.37488398  0.33350347  1
  Ba  Ba5  1  -0.00163462  0.62623249  0.33202451  1
  Ba  Ba6  1  0.50314152  0.87480711  0.16883528  1
  Ba  Ba7  1  0.49700391  0.37671704  0.49934628  1
  Ba  Ba8  1  0.33122605  0.62559694  0.66631905  1
  Ba  Ba9  1  0.50421801  0.12281407  0.16795402  1
  Ba  Ba10  1  0.33087094  0.37597314  0.66494559  1
  Ba  Ba11  1  0.33466959  0.12557483  0.66743959  1
  Ba  Ba12  1  0.83599788  0.12593350  0.83749128  1
  Ba  Ba13  1  0.82943421  0.87437987  0.49982553  1
  Ba  Ba14  1  0.66824916  0.62433471  0.66540142  1
  Ba  Ba15  1  0.66914177  0.12451337  0.99985031  1
  Ba  Ba16  1  0.16583552  0.87545851  0.49477832  1
  Sr  Sr17  1  0.83528258  0.12363652  0.50467178  1
  Sr  Sr18  1  0.66492829  0.87437688  0.33499405  1
  Sr  Sr19  1  0.16363502  0.87438340  0.16291175  1
  Sr  Sr20  1  0.83442115  0.62694131  0.50155863  1
  Sr  Sr21  1  0.83624132  0.62340228  0.17211809  1
  La  La22  1  0.16300621  0.37817868  0.82976852  1
  La  La23  1  0.33642674  0.12487337  0.33426667  1
  La  La24  1  -0.00399854  0.87661606  0.00134041  1
  La  La25  1  0.33357085  0.87820805  0.66571327  1
  La  La26  1  -0.00735847  0.87385500  0.66794561  1
  La  La27  1  0.00678077  0.62370696  1.00179830  1
  La  La28  1  0.33492227  0.37393495  0.00414137  1
  La  La29  1  0.00511893  0.12102864  0.33504821  1
  Pr  Pr30  1  0.00190512  0.62540977  0.66048403  1
  Pr  Pr31  1  0.66295737  0.37325928  0.33586615  1
  Pr  Pr32  1  0.83853768  0.62447785  0.83790467  1
  Pr  Pr33  1  0.49984073  0.62815945  0.17006112  1
  Pr  Pr34  1  0.82267135  0.37423153  0.83313377  1
  Pr  Pr35  1  0.66346527  0.37089687  0.00182481  1
  Pr  Pr36  1  0.17103174  0.62444670  0.83184767  1
  Pr  Pr37  1  0.83190978  0.87099671  0.16878488  1
  Pr  Pr38  1  0.16438869  0.87083521  0.82606597  1
  Pr  Pr39  1  0.00815221  0.12653972  0.99740865  1
  Pr  Pr40  1  0.16493678  0.37557251  0.49464001  1
  Pr  Pr41  1  0.83858335  0.12603184  0.17114733  1
  Pr  Pr42  1  0.50053899  0.62415341  0.50105715  1
  Pr  Pr43  1  0.50008102  0.37516776  0.16600331  1
  Pr  Pr44  1  0.66835869  0.62605656  0.33200620  1
  Pr  Pr45  1  -0.00558940  0.37626684  0.33795902  1
  Pr  Pr46  1  0.67053728  0.62910411  0.99643949  1
  Pr  Pr47  1  0.33437057  0.87755090  0.00412473  1
  Pr  Pr48  1  0.33062119  0.62665202  0.32976634  1
  Pr  Pr49  1  0.17334112  0.12562832  0.16584586  1
  Pr  Pr50  1  0.82415766  0.87625411  0.83084347  1
  Pr  Pr51  1  0.16931319  0.62447632  0.16835652  1
  Pr  Pr52  1  0.49944111  0.87095906  0.49702144  1
  Pr  Pr53  1  0.16818895  0.62354699  0.49828901  1
  Pr  Pr54  1  0.00528399  0.12407059  0.66274418  1
  Pr  Pr55  1  0.33549731  0.12310011  0.99673138  1
  Pr  Pr56  1  0.17331777  0.12615749  0.50141429  1
  Pr  Pr57  1  0.49678225  0.37649490  0.83106242  1
  Pr  Pr58  1  -0.00607205  0.37355637  0.00345404  1
  Pr  Pr59  1  0.17149478  0.12496109  0.83199774  1
  Pr  Pr60  1  0.67156342  0.12217555  0.33199033  1
  Pr  Pr61  1  0.83181549  0.37916209  0.16885425  1
  Pr  Pr62  1  0.33716632  0.87750452  0.33488354  1
  Pr  Pr63  1  -0.00700930  0.87262793  0.33584314  1
  Pr  Pr64  1  0.65932594  0.37431581  0.66801908  1
  Pr  Pr65  1  0.50132286  0.87287821  0.83479082  1
  Pr  Pr66  1  0.66669798  0.88008917  0.00365689  1
  Pr  Pr67  1  0.49992491  0.62159393  0.83703391  1
  Pr  Pr68  1  -0.00887995  0.37544456  0.66850830  1
  Pr  Pr69  1  0.66336995  0.87503886  0.66547049  1
  Pr  Pr70  1  0.67119193  0.12493711  0.66357091  1
  Pr  Pr71  1  0.82385816  0.37639716  0.50082048  1
  Mn  Mn72  1  0.00033696  0.00098150  0.16612780  1
  Mn  Mn73  1  -0.00069316  0.00060324  0.49928888  1
  Mn  Mn74  1  0.00070497  -0.00031079  0.83463090  1
  Mn  Mn75  1  -0.00002742  0.49876816  0.16689146  1
  Mn  Mn76  1  -0.00185992  0.49925249  0.50156769  1
  Mn  Mn77  1  -0.00142428  0.50081029  0.83291055  1
  Mn  Mn78  1  0.33238716  -0.00098393  0.16683590  1
  Mn  Mn79  1  0.33362966  -0.00184451  0.50022584  1
  Mn  Mn80  1  0.33158799  -0.00319982  0.83537362  1
  Mn  Mn81  1  0.33495627  0.50143880  0.16550754  1
  Mn  Mn82  1  0.33084918  0.50199900  0.49717559  1
  Mn  Mn83  1  0.33243238  0.50039473  0.83497727  1
  Mn  Mn84  1  0.67194379  -0.00092093  0.16843898  1
  Mn  Mn85  1  0.66709691  -0.00020111  0.50005404  1
  Mn  Mn86  1  0.66584366  -0.00217652  0.83350065  1
  Mn  Mn87  1  0.66690963  0.50057575  0.16565964  1
  Mn  Mn88  1  0.66667682  0.50060766  0.49912257  1
  Mn  Mn89  1  0.66755813  0.50168275  0.83497255  1
  Mn  Mn90  1  -0.00020546  0.24884715  0.16808703  1
  Mn  Mn91  1  -0.00142400  0.25011956  0.50100175  1
  Mn  Mn92  1  0.00063995  0.25169779  0.83347912  1
  Mn  Mn93  1  0.00040406  0.75177946  0.16531790  1
  Mn  Mn94  1  -0.00114456  0.74981502  0.49912824  1
  Mn  Mn95  1  -0.00074142  0.74801847  0.83434876  1
  Mn  Mn96  1  0.33569275  0.24934159  0.16607415  1
  Mn  Mn97  1  0.33159026  0.25064036  0.49956856  1
  Mn  Mn98  1  0.33113594  0.25096847  0.83628803  1
  Mn  Mn99  1  0.33220133  0.75187689  0.16552701  1
  Mn  Mn100  1  0.33220356  0.74932700  0.49748685  1
  Mn  Mn101  1  0.33285217  0.75203083  0.83260218  1
  Mn  Mn102  1  0.67017473  0.25116968  0.16928607  1
  Mn  Mn103  1  0.66803995  0.24944254  0.50038310  1
  Mn  Mn104  1  0.66573304  0.25093282  0.83397997  1
  Mn  Mn105  1  0.66964378  0.74847364  0.16487484  1
  Mn  Mn106  1  0.66630256  0.74869298  0.49912397  1
  Mn  Mn107  1  0.66703705  0.74825490  0.83348482  1
  Mn  Mn108  1  0.16706102  0.24957350  -0.00319975  1
  Mn  Mn109  1  0.16374072  0.24812819  0.33268526  1
  Mn  Mn110  1  0.16293220  0.25182969  0.66494467  1
  Mn  Mn111  1  0.16485064  0.75191457  -0.00292068  1
  Mn  Mn112  1  0.16699953  0.75242970  0.32857594  1
  Mn  Mn113  1  0.16403033  0.75039472  0.66315354  1
  Mn  Mn114  1  0.50013817  0.25156717  0.00038004  1
  Mn  Mn115  1  0.50175622  0.24813803  0.33353548  1
  Mn  Mn116  1  0.50086806  0.25082921  0.66878926  1
  Mn  Mn117  1  0.50270631  0.74913695  0.00002457  1
  Mn  Mn118  1  0.50104939  0.74904385  0.33459538  1
  Mn  Mn119  1  0.49929347  0.75022906  0.66602662  1
  Mn  Mn120  1  0.83573926  0.25251936  0.00309807  1
  Mn  Mn121  1  0.83447160  0.24929093  0.33684038  1
  Mn  Mn122  1  0.83327509  0.25041127  0.66758430  1
  Mn  Mn123  1  0.83583381  0.74834987  0.00066229  1
  Mn  Mn124  1  0.83117580  0.74843508  0.33301789  1
  Mn  Mn125  1  0.83285447  0.74985526  0.66928673  1
  Mn  Mn126  1  0.16519711  -0.00168647  -0.00265558  1
  Mn  Mn127  1  0.16725595  -0.00076979  0.32852901  1
  Mn  Mn128  1  0.16411910  -0.00169035  0.66480787  1
  Mn  Mn129  1  0.16669520  0.50004336  -0.00283455  1
  Mn  Mn130  1  0.16399787  0.50023527  0.33195765  1
  Mn  Mn131  1  0.16214938  0.49957053  0.66374538  1
  Mn  Mn132  1  0.50018206  -0.00135741  0.00054549  1
  Mn  Mn133  1  0.50265005  -0.00093009  0.33645201  1
  Mn  Mn134  1  0.50206211  -0.00279762  0.66748103  1
  Mn  Mn135  1  0.50365384  0.50038889  0.00153262  1
  Mn  Mn136  1  0.50082765  0.50300560  0.33146992  1
  Mn  Mn137  1  0.49882421  0.50232209  0.66773564  1
  Mn  Mn138  1  0.83657409  -0.00119163  0.00224027  1
  Mn  Mn139  1  0.83386606  0.00182259  0.33501537  1
  Mn  Mn140  1  0.83325045  0.00029193  0.66874950  1
  Mn  Mn141  1  0.83451831  0.50132317  0.00206613  1
  Mn  Mn142  1  0.83113123  0.49888478  0.33471504  1
  Mn  Mn143  1  0.83292594  0.49933016  0.66835511  1
  O  O144  1  0.16235904  0.12367629  0.02276242  1
  O  O145  1  0.16293226  0.12340272  0.35682307  1
  O  O146  1  0.15768537  0.12450247  0.68850059  1
  O  O147  1  0.16114917  0.62984635  0.02437283  1
  O  O148  1  0.17095182  0.62716492  0.35280753  1
  O  O149  1  0.15669842  0.62547352  0.68865238  1
  O  O150  1  0.49039530  0.12642950  0.00976718  1
  O  O151  1  0.50831181  0.12133351  0.34455916  1
  O  O152  1  0.50872646  0.12317295  0.67945761  1
  O  O153  1  0.50814590  0.62406934  0.02597310  1
  O  O154  1  0.50923130  0.62660619  0.35618804  1
  O  O155  1  0.49885445  0.62919129  0.69359425  1
  O  O156  1  0.83942021  0.13002951  0.02576629  1
  O  O157  1  0.83011016  0.12765547  0.35582174  1
  O  O158  1  0.82879971  0.12636519  0.68175660  1
  O  O159  1  0.82830262  0.62427965  0.02368282  1
  O  O160  1  0.82690802  0.61978357  0.35124487  1
  O  O161  1  0.83988187  0.62389742  0.69399119  1
  O  O162  1  0.15670961  0.37261443  0.32189013  1
  O  O163  1  0.15551845  0.37664997  0.64031015  1
  O  O164  1  0.17009533  0.37104241  0.97436520  1
  O  O165  1  0.17300841  0.87740647  0.31023661  1
  O  O166  1  0.16290146  0.87393604  0.65249392  1
  O  O167  1  0.15961658  0.87570255  0.96959973  1
  O  O168  1  0.50538539  0.37882458  0.30996122  1
  O  O169  1  0.50747946  0.37749017  0.65853855  1
  O  O170  1  0.50411858  0.37832588  0.97721408  1
  O  O171  1  0.49382496  0.87321746  0.32378406  1
  O  O172  1  0.50624797  0.87179611  0.64202285  1
  O  O173  1  0.50398157  0.87116790  0.98103148  1
  O  O174  1  0.83271210  0.37251307  0.31195565  1
  O  O175  1  0.83782051  0.37446775  0.64480942  1
  O  O176  1  0.84301307  0.37841452  0.97603672  1
  O  O177  1  0.83771316  0.87865782  0.31326568  1
  O  O178  1  0.83560407  0.87518425  0.65747867  1
  O  O179  1  0.84056058  0.86782166  0.97336327  1
  O  O180  1  -0.00101782  0.36986896  0.19281606  1
  O  O181  1  0.01016148  0.37369610  0.52522638  1
  O  O182  1  0.00924688  0.37732114  0.86126247  1
  O  O183  1  0.00226063  0.87994738  0.19206991  1
  O  O184  1  0.00064269  0.87502425  0.52178886  1
  O  O185  1  0.00943141  0.86918978  0.85957257  1
  O  O186  1  0.34054699  0.37736556  0.17746952  1
  O  O187  1  0.32451087  0.37679746  0.50596402  1
  O  O188  1  0.32847258  0.37524337  0.85726850  1
  O  O189  1  0.32934693  0.87503889  0.19083435  1
  O  O190  1  0.33778126  0.87200455  0.51936427  1
  O  O191  1  0.32304979  0.87354514  0.85923574  1
  O  O192  1  0.66874766  0.37750280  0.19303887  1
  O  O193  1  0.67205029  0.37602784  0.52285251  1
  O  O194  1  0.66851153  0.38160219  0.85782679  1
  O  O195  1  0.67832122  0.87393158  0.18444201  1
  O  O196  1  0.66015791  0.87310717  0.52108824  1
  O  O197  1  0.66868143  0.86866639  0.85896702  1
  O  O198  1  -0.00879759  0.12564661  0.13957590  1
  O  O199  1  -0.00622169  0.12735523  0.47889600  1
  O  O200  1  0.00286405  0.13030658  0.80664654  1
  O  O201  1  0.00016793  0.62637041  0.14531981  1
  O  O202  1  -0.00477239  0.62305220  0.48944832  1
  O  O203  1  -0.00911007  0.62450206  0.80425318  1
  O  O204  1  0.32865299  0.12288753  0.14121380  1
  O  O205  1  0.32559603  0.12309725  0.48287782  1
  O  O206  1  0.32900677  0.12271939  0.82328858  1
  O  O207  1  0.33404227  0.62620140  0.15303239  1
  O  O208  1  0.32507687  0.62721897  0.47578167  1
  O  O209  1  0.33661154  0.62870093  0.82261216  1
  O  O210  1  0.67729205  0.12575025  0.15635016  1
  O  O211  1  0.66928366  0.12660236  0.47901642  1
  O  O212  1  0.66704368  0.12209658  0.80987712  1
  O  O213  1  0.66430154  0.62198559  0.13836577  1
  O  O214  1  0.66070296  0.62345487  0.47774749  1
  O  O215  1  0.67059623  0.62503482  0.82019732  1
  O  O216  1  0.08833491  0.02557907  0.23875597  1
  O  O217  1  0.08457634  0.02354350  0.57624957  1
  O  O218  1  0.08846041  0.02469947  0.90907996  1
  O  O219  1  0.08986831  0.51712507  0.24031199  1
  O  O220  1  0.08594476  0.52347096  0.57732052  1
  O  O221  1  0.08644950  0.52506088  0.90417315  1
  O  O222  1  0.41213472  0.01208786  0.25929365  1
  O  O223  1  0.41752751  0.00051471  0.58792530  1
  O  O224  1  0.40940646  0.00317315  0.92159534  1
  O  O225  1  0.41988339  0.52417418  0.24746865  1
  O  O226  1  0.41768873  0.51742925  0.57636603  1
  O  O227  1  0.42799073  0.51223350  0.91530179  1
  O  O228  1  0.76088529  0.01976177  0.24540634  1
  O  O229  1  0.75142155  0.01516166  0.58279498  1
  O  O230  1  0.75415046  0.00169548  0.91441136  1
  O  O231  1  0.74407597  0.51693171  0.25118386  1
  O  O232  1  0.75912952  0.51026690  0.57850679  1
  O  O233  1  0.75726775  0.51861125  0.91294744  1
  O  O234  1  0.25157961  0.22840052  0.25120854  1
  O  O235  1  0.24519576  0.23793858  0.58235656  1
  O  O236  1  0.24960243  0.22495024  0.91899706  1
  O  O237  1  0.24889730  0.72769719  0.24633813  1
  O  O238  1  0.24448377  0.73455081  0.57371981  1
  O  O239  1  0.24170513  0.73671848  0.90819290  1
  O  O240  1  0.59608778  0.23958337  0.25716925  1
  O  O241  1  0.59744617  0.23969799  0.59409061  1
  O  O242  1  0.58428255  0.24661198  0.92025929  1
  O  O243  1  0.58414237  0.72902126  0.24809259  1
  O  O244  1  0.57832145  0.73312801  0.57871654  1
  O  O245  1  0.58577270  0.72666226  0.91562727  1
  O  O246  1  0.92217112  0.22876114  0.26046629  1
  O  O247  1  0.92725984  0.23689376  0.59685020  1
  O  O248  1  0.93054171  0.23867498  0.93027856  1
  O  O249  1  0.91542071  0.74612546  0.24748567  1
  O  O250  1  0.92145578  0.73764924  0.59662140  1
  O  O251  1  0.92111670  0.72334171  0.92204548  1
  O  O252  1  0.07649600  0.48535956  0.06912421  1
  O  O253  1  0.07563614  0.48195495  0.41403891  1
  O  O254  1  0.07178380  0.48147623  0.74203968  1
  O  O255  1  0.07446234  0.98573470  0.07260506  1
  O  O256  1  0.07730732  0.98590092  0.40039033  1
  O  O257  1  0.07725887  0.97961202  0.74447345  1
  O  O258  1  0.42257776  0.48157413  0.08355957  1
  O  O259  1  0.41426953  0.50229819  0.41152251  1
  O  O260  1  0.41775088  0.48701216  0.75702274  1
  O  O261  1  0.41076032  0.98345791  0.08141028  1
  O  O262  1  0.41644547  0.98230714  0.41969875  1
  O  O263  1  0.41636633  0.97405685  0.75326884  1
  O  O264  1  0.74828374  0.47484448  0.08189129  1
  O  O265  1  0.74787804  0.47700435  0.41502881  1
  O  O266  1  0.74588106  0.47675687  0.74694786  1
  O  O267  1  0.75272705  0.97752550  0.08094211  1
  O  O268  1  0.74180548  0.99128768  0.40842405  1
  O  O269  1  0.74351455  0.97819442  0.74608167  1
  O  O270  1  0.25481306  0.26037625  0.07696623  1
  O  O271  1  0.23626296  0.25850067  0.42288335  1
  O  O272  1  0.23819712  0.26375377  0.75844706  1
  O  O273  1  0.24776592  0.77204078  0.07545486  1
  O  O274  1  0.25817626  0.76492969  0.40411283  1
  O  O275  1  0.24665431  0.76768468  0.74624190  1
  O  O276  1  0.58351679  0.27112264  0.08715877  1
  O  O277  1  0.58671412  0.26556498  0.41679152  1
  O  O278  1  0.58157740  0.27289245  0.75479352  1
  O  O279  1  0.59255050  0.76435746  0.07603667  1
  O  O280  1  0.57925768  0.76602025  0.41904950  1
  O  O281  1  0.58172903  0.77194226  0.75274864  1
  O  O282  1  0.91042951  0.27537762  0.09355231  1
  O  O283  1  0.91127013  0.27646451  0.42556564  1
  O  O284  1  0.91067048  0.27614466  0.76103104  1
  O  O285  1  0.91560348  0.77235031  0.08508071  1
  O  O286  1  0.91720782  0.76377326  0.41491769  1
  O  O287  1  0.91186109  0.77201470  0.76213712  1
  O  O288  1  0.25490650  0.48837450  0.08079958  1
  O  O289  1  0.23783485  0.49015001  0.42160332  1
  O  O290  1  0.23626159  0.48861659  0.75292545  1
  O  O291  1  0.24663543  0.98022737  0.07768088  1
  O  O292  1  0.25688354  0.98847740  0.40663510  1
  O  O293  1  0.24667388  0.98026371  0.75306253  1
  O  O294  1  0.58442133  0.47221539  0.08448687  1
  O  O295  1  0.58906040  0.48600360  0.40639318  1
  O  O296  1  0.58138577  0.48482565  0.75890182  1
  O  O297  1  0.58997649  0.98734568  0.08218294  1
  O  O298  1  0.57816969  0.98075043  0.42572011  1
  O  O299  1  0.58159996  0.97186591  0.75238420  1
  O  O300  1  0.91461230  0.47825154  0.08723080  1
  O  O301  1  0.91232250  0.47496599  0.42513766  1
  O  O302  1  0.90863824  0.47527017  0.76162764  1
  O  O303  1  0.91130418  0.97618526  0.09417662  1
  O  O304  1  0.91854874  0.98604874  0.41423476  1
  O  O305  1  0.91211087  0.97855337  0.76189786  1
  O  O306  1  0.07528274  0.26289586  0.06944636  1
  O  O307  1  0.07191898  0.26445434  0.41006655  1
  O  O308  1  0.07422866  0.27303242  0.74269478  1
  O  O309  1  0.07651027  0.76878207  0.07302089  1
  O  O310  1  0.08027667  0.76618853  0.40493831  1
  O  O311  1  0.07737884  0.76751036  0.74799923  1
  O  O312  1  0.42161789  0.27271159  0.08459010  1
  O  O313  1  0.41107740  0.24983396  0.41317065  1
  O  O314  1  0.41722529  0.26554219  0.76024473  1
  O  O315  1  0.41443978  0.76565050  0.07913363  1
  O  O316  1  0.41675590  0.76441504  0.41763179  1
  O  O317  1  0.41390939  0.77868739  0.74730570  1
  O  O318  1  0.74908425  0.27648216  0.08321609  1
  O  O319  1  0.74661108  0.27223610  0.41315310  1
  O  O320  1  0.74452716  0.27242717  0.74376928  1
  O  O321  1  0.75271049  0.77184481  0.07857037  1
  O  O322  1  0.74245359  0.75616745  0.41054551  1
  O  O323  1  0.74683218  0.77080478  0.74994348  1
  O  O324  1  0.24979462  0.02533704  0.24732728  1
  O  O325  1  0.24698792  0.01169145  0.57995870  1
  O  O326  1  0.24893837  0.02034102  0.91908855  1
  O  O327  1  0.25252272  0.51951756  0.25109431  1
  O  O328  1  0.24353865  0.51421438  0.57863803  1
  O  O329  1  0.24570669  0.51560707  0.91257447  1
  O  O330  1  0.59592490  0.00860649  0.25919223  1
  O  O331  1  0.59559963  0.01156778  0.59443788  1
  O  O332  1  0.58451904  0.00139151  0.91538146  1
  O  O333  1  0.58128664  0.52452902  0.24374526  1
  O  O334  1  0.58092093  0.51449656  0.57845688  1
  O  O335  1  0.59002067  0.52319452  0.92287580  1
  O  O336  1  0.92300479  0.02285478  0.25390913  1
  O  O337  1  0.92379776  0.01327207  0.59785470  1
  O  O338  1  0.92871032  0.01381172  0.93135446  1
  O  O339  1  0.91389091  0.50344419  0.25277014  1
  O  O340  1  0.92590912  0.51048240  0.59685849  1
  O  O341  1  0.92296001  0.52322531  0.92221996  1
  O  O342  1  0.08764222  0.22290185  0.24260871  1
  O  O343  1  0.08570655  0.22474263  0.57549795  1
  O  O344  1  0.09061302  0.22814384  0.90663388  1
  O  O345  1  0.09063523  0.73524789  0.23750651  1
  O  O346  1  0.08384989  0.72846396  0.57988433  1
  O  O347  1  0.08402420  0.72144368  0.91042866  1
  O  O348  1  0.41676245  0.23537554  0.25042619  1
  O  O349  1  0.41921416  0.24587991  0.58636059  1
  O  O350  1  0.40754332  0.24426954  0.92704003  1
  O  O351  1  0.41809213  0.72912250  0.25453358  1
  O  O352  1  0.41895994  0.73453139  0.57685418  1
  O  O353  1  0.42764892  0.74001310  0.90894564  1
  O  O354  1  0.75935466  0.23238446  0.24779270  1
  O  O355  1  0.75653738  0.23725975  0.57839090  1
  O  O356  1  0.75492449  0.24906933  0.91576043  1
  O  O357  1  0.74878282  0.72974813  0.24746651  1
  O  O358  1  0.75093165  0.73984785  0.58163319  1
  O  O359  1  0.75615713  0.72911071  0.91524711  1
