# generated using pymatgen
data_Ba17Sr5La8Pr42Mn72O216
_symmetry_space_group_name_H-M   'P 1'
_cell_length_a   16.67314028
_cell_length_b   15.70023788
_cell_length_c   16.82089628
_cell_angle_alpha   90.00983247
_cell_angle_beta   89.98549464
_cell_angle_gamma   89.95717595
_symmetry_Int_Tables_number   1
_chemical_formula_structural   Ba17Sr5La8Pr42Mn72O216
_chemical_formula_sum   'Ba17 Sr5 La8 Pr42 Mn72 O216'
_cell_volume   4403.24274353
_cell_formula_units_Z   1
loop_
 _symmetry_equiv_pos_site_id
 _symmetry_equiv_pos_as_xyz
  1  'x, y, z'
loop_
 _atom_site_type_symbol
 _atom_site_label
 _atom_site_symmetry_multiplicity
 _atom_site_fract_x
 _atom_site_fract_y
 _atom_site_fract_z
 _atom_site_occupancy
  Ba  Ba0  1  0.50050146  0.37297800  0.16384286  1
  Ba  Ba1  1  0.83199257  0.37547137  0.83236862  1
  Ba  Ba2  1  0.83037952  0.62578392  0.16706887  1
  Ba  Ba3  1  0.16638860  0.62571576  0.17053194  1
  Ba  Ba4  1  0.00092738  0.12527963  0.33513537  1
  Ba  Ba5  1  -0.00117119  0.87198916  0.66881532  1
  Ba  Ba6  1  0.66594332  0.62588010  0.33086358  1
  Ba  Ba7  1  0.33103812  0.62405492  1.00006153  1
  Ba  Ba8  1  0.16720926  0.12405608  0.83685095  1
  Ba  Ba9  1  0.50082066  0.62475091  0.49839239  1
  Ba  Ba10  1  0.50126545  0.12602610  0.16562637  1
  Ba  Ba11  1  0.00019338  0.37824100  0.66928348  1
  Ba  Ba12  1  0.83604927  0.37397971  0.16466391  1
  Ba  Ba13  1  0.83423586  0.87666275  0.16471571  1
  Ba  Ba14  1  0.49770279  0.87474340  0.83107864  1
  Ba  Ba15  1  0.33542232  0.12428134  0.33398315  1
  Ba  Ba16  1  0.66767919  0.12495906  0.66353674  1
  Sr  Sr17  1  0.66730613  0.37428506  0.00241423  1
  Sr  Sr18  1  0.83254094  0.87624162  0.49670232  1
  Sr  Sr19  1  0.83480294  0.12541665  0.16680144  1
  Sr  Sr20  1  -0.00445168  0.62451414  0.66918389  1
  Sr  Sr21  1  0.00007040  0.37723288  0.33685617  1
  La  La22  1  0.66278817  0.37673182  0.66780525  1
  La  La23  1  0.67316804  0.12875354  0.99675767  1
  La  La24  1  0.66681428  0.87528274  0.33062252  1
  La  La25  1  0.82968225  0.87431618  0.82746506  1
  La  La26  1  0.66901770  0.37433632  0.32783434  1
  La  La27  1  0.16347986  0.62423477  0.50319960  1
  La  La28  1  0.00010045  0.12691780  0.66617315  1
  La  La29  1  0.66763957  0.62582342  0.66130025  1
  Pr  Pr30  1  0.33541671  0.37496496  0.33364731  1
  Pr  Pr31  1  0.16727509  0.12526451  0.17208822  1
  Pr  Pr32  1  0.67171572  0.12360063  0.32833359  1
  Pr  Pr33  1  0.33339025  0.87541126  0.33434806  1
  Pr  Pr34  1  0.00396804  0.37460059  0.00555111  1
  Pr  Pr35  1  -0.00082687  0.87058439  0.33890935  1
  Pr  Pr36  1  0.50487142  0.12775739  0.50015536  1
  Pr  Pr37  1  0.83937315  0.12586910  0.83122113  1
  Pr  Pr38  1  0.33221134  0.87279089  0.66846014  1
  Pr  Pr39  1  0.50539469  0.12486150  0.83614637  1
  Pr  Pr40  1  -0.00523204  0.12426941  1.00163702  1
  Pr  Pr41  1  0.84306058  0.12375676  0.50109161  1
  Pr  Pr42  1  0.33129400  0.37316682  0.00428895  1
  Pr  Pr43  1  0.66276189  0.87734119  0.00051949  1
  Pr  Pr44  1  0.33089812  0.87678263  0.00266589  1
  Pr  Pr45  1  0.16320962  0.87666490  0.50100038  1
  Pr  Pr46  1  0.83321163  0.62498981  0.49999384  1
  Pr  Pr47  1  -0.00783344  0.62549214  0.33132085  1
  Pr  Pr48  1  0.16650728  0.87793200  0.17112264  1
  Pr  Pr49  1  0.17100145  0.87137319  0.83280572  1
  Pr  Pr50  1  0.15542965  0.62483408  0.84094368  1
  Pr  Pr51  1  0.50097754  0.37390449  0.49412586  1
  Pr  Pr52  1  0.16686405  0.37195480  0.17104799  1
  Pr  Pr53  1  0.83298775  0.37269058  0.49384713  1
  Pr  Pr54  1  0.16707138  0.12663458  0.50900603  1
  Pr  Pr55  1  0.50075404  0.62625084  0.83440981  1
  Pr  Pr56  1  0.33406603  0.62430055  0.32605720  1
  Pr  Pr57  1  -0.00757256  0.62561857  1.00221115  1
  Pr  Pr58  1  0.00583363  0.87548555  0.00270480  1
  Pr  Pr59  1  0.50036458  0.87625918  0.49778739  1
  Pr  Pr60  1  0.16882898  0.37827851  0.83336344  1
  Pr  Pr61  1  0.66371439  0.87300421  0.66637126  1
  Pr  Pr62  1  0.49743484  0.37590321  0.83379468  1
  Pr  Pr63  1  0.66846682  0.62214022  0.99961593  1
  Pr  Pr64  1  0.33570858  0.12198388  0.66263538  1
  Pr  Pr65  1  0.33361899  0.37706823  0.66701442  1
  Pr  Pr66  1  0.16782797  0.37447372  0.49870907  1
  Pr  Pr67  1  0.49766997  0.87563486  0.16292395  1
  Pr  Pr68  1  0.33958283  0.12605313  0.99799120  1
  Pr  Pr69  1  0.33278493  0.62743379  0.66570960  1
  Pr  Pr70  1  0.83470420  0.62352324  0.83251522  1
  Pr  Pr71  1  0.49991741  0.62271794  0.17132845  1
  Mn  Mn72  1  0.00190297  -0.00064124  0.16802691  1
  Mn  Mn73  1  0.00113532  -0.00132634  0.50171638  1
  Mn  Mn74  1  -0.00037349  -0.00130640  0.83534680  1
  Mn  Mn75  1  0.00230725  0.49970979  0.16959746  1
  Mn  Mn76  1  0.00002991  0.50143698  0.50194194  1
  Mn  Mn77  1  -0.00091162  0.50033417  0.83660844  1
  Mn  Mn78  1  0.33260664  -0.00049608  0.16655496  1
  Mn  Mn79  1  0.33378208  -0.00105147  0.50095283  1
  Mn  Mn80  1  0.33362753  0.00077928  0.83232443  1
  Mn  Mn81  1  0.33264057  0.49860049  0.16649321  1
  Mn  Mn82  1  0.33296505  0.50125757  0.50019678  1
  Mn  Mn83  1  0.33270440  0.49966119  0.83309289  1
  Mn  Mn84  1  0.66684721  0.00062306  0.16463697  1
  Mn  Mn85  1  0.66713136  -0.00033525  0.49665728  1
  Mn  Mn86  1  0.66708828  -0.00015439  0.83120460  1
  Mn  Mn87  1  0.66575483  0.49869896  0.16348466  1
  Mn  Mn88  1  0.66812771  0.49908533  0.50023990  1
  Mn  Mn89  1  0.66394378  0.50037690  0.83136065  1
  Mn  Mn90  1  0.00219195  0.24954734  0.16827391  1
  Mn  Mn91  1  0.00177030  0.25120860  0.50249408  1
  Mn  Mn92  1  0.00152084  0.24938691  0.83555630  1
  Mn  Mn93  1  0.00113897  0.75146035  0.16892458  1
  Mn  Mn94  1  0.00016864  0.74816202  0.50239932  1
  Mn  Mn95  1  -0.00222509  0.75038804  0.83631131  1
  Mn  Mn96  1  0.33174005  0.24997758  0.16661242  1
  Mn  Mn97  1  0.33375656  0.24999505  0.50174043  1
  Mn  Mn98  1  0.33437836  0.25110562  0.83264156  1
  Mn  Mn99  1  0.33318836  0.75136373  0.16748332  1
  Mn  Mn100  1  0.33274959  0.75022794  0.49907126  1
  Mn  Mn101  1  0.33197648  0.74798591  0.83330946  1
  Mn  Mn102  1  0.66907933  0.24788858  0.16377050  1
  Mn  Mn103  1  0.66798449  0.25068186  0.49722051  1
  Mn  Mn104  1  0.66599064  0.25149309  0.83132497  1
  Mn  Mn105  1  0.66355370  0.75320968  0.16322118  1
  Mn  Mn106  1  0.66770420  0.75185124  0.49891262  1
  Mn  Mn107  1  0.66571179  0.74836246  0.83131758  1
  Mn  Mn108  1  0.16723830  0.24907085  0.00289554  1
  Mn  Mn109  1  0.16788085  0.24992069  0.33626076  1
  Mn  Mn110  1  0.16845401  0.25192105  0.67015140  1
  Mn  Mn111  1  0.16452649  0.75071830  0.00206921  1
  Mn  Mn112  1  0.16772653  0.75061545  0.33848672  1
  Mn  Mn113  1  0.16705370  0.74744609  0.66905016  1
  Mn  Mn114  1  0.50131848  0.24991627  -0.00318794  1
  Mn  Mn115  1  0.50199969  0.25006680  0.33358185  1
  Mn  Mn116  1  0.49788640  0.25154010  0.66598464  1
  Mn  Mn117  1  0.49907424  0.74983997  -0.00006565  1
  Mn  Mn118  1  0.49871202  0.75234010  0.33114601  1
  Mn  Mn119  1  0.49863840  0.74937084  0.66506631  1
  Mn  Mn120  1  0.83556156  0.24915881  -0.00148619  1
  Mn  Mn121  1  0.83419086  0.24923245  0.33237518  1
  Mn  Mn122  1  0.83296336  0.25013965  0.66437147  1
  Mn  Mn123  1  0.83197785  0.75087198  -0.00460896  1
  Mn  Mn124  1  0.83294085  0.75250696  0.33414067  1
  Mn  Mn125  1  0.83154583  0.74993250  0.66491426  1
  Mn  Mn126  1  0.16776733  -0.00007986  0.00335515  1
  Mn  Mn127  1  0.16703322  -0.00033694  0.33603776  1
  Mn  Mn128  1  0.16778705  -0.00219073  0.66979793  1
  Mn  Mn129  1  0.16430162  0.49952922  0.00198131  1
  Mn  Mn130  1  0.16738904  0.49946227  0.33780227  1
  Mn  Mn131  1  0.16785239  0.50236417  0.66917237  1
  Mn  Mn132  1  0.49952778  -0.00015285  -0.00193498  1
  Mn  Mn133  1  0.50156925  -0.00114291  0.33252339  1
  Mn  Mn134  1  0.49885126  0.00124816  0.66367004  1
  Mn  Mn135  1  0.50020123  0.50164715  -0.00111488  1
  Mn  Mn136  1  0.49970880  0.49859881  0.33265521  1
  Mn  Mn137  1  0.49811716  0.49868801  0.66684870  1
  Mn  Mn138  1  0.83367754  -0.00024599  -0.00455976  1
  Mn  Mn139  1  0.83424571  0.00021503  0.33265446  1
  Mn  Mn140  1  0.83234703  -0.00148537  0.66467669  1
  Mn  Mn141  1  0.83363414  0.50029367  -0.00164631  1
  Mn  Mn142  1  0.83348417  0.49781982  0.33365270  1
  Mn  Mn143  1  0.83203670  0.50130777  0.66451888  1
  O  O144  1  0.17178439  0.12335054  0.02869522  1
  O  O145  1  0.16951634  0.12302585  0.36255052  1
  O  O146  1  0.17180084  0.12460662  0.67898282  1
  O  O147  1  0.15834244  0.62620542  0.01361810  1
  O  O148  1  0.17893048  0.62625995  0.36015988  1
  O  O149  1  0.17783750  0.62507311  0.69676739  1
  O  O150  1  0.49619273  0.12282601  0.00813254  1
  O  O151  1  0.50786601  0.12321096  0.35717742  1
  O  O152  1  0.49275810  0.12819105  0.69226122  1
  O  O153  1  0.50412544  0.62905102  0.02621794  1
  O  O154  1  0.49281577  0.62604403  0.34234899  1
  O  O155  1  0.49893847  0.62008358  0.69001646  1
  O  O156  1  0.83471289  0.12255953  0.01654784  1
  O  O157  1  0.82383038  0.12460423  0.35731824  1
  O  O158  1  0.83621050  0.12336897  0.68602080  1
  O  O159  1  0.83274257  0.62741116  0.01120511  1
  O  O160  1  0.83656366  0.62522395  0.35365172  1
  O  O161  1  0.82302387  0.62654963  0.68791515  1
  O  O162  1  0.16777947  0.37499070  0.31566358  1
  O  O163  1  0.17256685  0.37876226  0.64300376  1
  O  O164  1  0.16541784  0.37367101  0.97581562  1
  O  O165  1  0.16292259  0.87499516  0.31460805  1
  O  O166  1  0.17286014  0.87091422  0.64510757  1
  O  O167  1  0.16654907  0.87555889  0.97540470  1
  O  O168  1  0.49582351  0.37495073  0.32296521  1
  O  O169  1  0.49606175  0.37520375  0.63795152  1
  O  O170  1  0.49490309  0.37399886  0.97731669  1
  O  O171  1  0.49848094  0.87552287  0.30825143  1
  O  O172  1  0.49572312  0.87832617  0.64205883  1
  O  O173  1  0.49510363  0.87572968  0.98565341  1
  O  O174  1  0.83578090  0.37231765  0.32498086  1
  O  O175  1  0.82919765  0.37570663  0.64100556  1
  O  O176  1  0.84279248  0.37482869  0.98864816  1
  O  O177  1  0.84201045  0.87751140  0.32455130  1
  O  O178  1  0.82682566  0.87368937  0.64705987  1
  O  O179  1  0.83074370  0.87482093  0.97119336  1
  O  O180  1  0.00663468  0.37560673  0.18556301  1
  O  O181  1  -0.00273643  0.37653357  0.51281078  1
  O  O182  1  0.00485319  0.37530747  0.85920762  1
  O  O183  1  0.00766480  0.87498194  0.19369014  1
  O  O184  1  0.00341275  0.87332975  0.51308985  1
  O  O185  1  -0.00801113  0.87462798  0.85849910  1
  O  O186  1  0.32695253  0.37425887  0.18766192  1
  O  O187  1  0.33804236  0.37361939  0.52523709  1
  O  O188  1  0.33315200  0.37578311  0.86158832  1
  O  O189  1  0.33563652  0.87502384  0.18873592  1
  O  O190  1  0.34108984  0.87528499  0.52711468  1
  O  O191  1  0.32777672  0.87050326  0.85834795  1
  O  O192  1  0.66744491  0.37003351  0.18039763  1
  O  O193  1  0.67100490  0.37473751  0.52469382  1
  O  O194  1  0.65824432  0.37701750  0.85256789  1
  O  O195  1  0.65831959  0.87785358  0.18394918  1
  O  O196  1  0.66442834  0.87691292  0.52316604  1
  O  O197  1  0.67297158  0.87133850  0.85708060  1
  O  O198  1  0.01232392  0.12267343  0.14435952  1
  O  O199  1  0.00565728  0.12435909  0.49313556  1
  O  O200  1  -0.00195638  0.12186805  0.81063488  1
  O  O201  1  0.00244866  0.62737024  0.14732642  1
  O  O202  1  0.00579088  0.62455263  0.47518438  1
  O  O203  1  0.00657646  0.62637713  0.81985191  1
  O  O204  1  0.32286522  0.12405463  0.14273151  1
  O  O205  1  0.32195729  0.12394046  0.48833772  1
  O  O206  1  0.33628853  0.13058801  0.80598486  1
  O  O207  1  0.33819476  0.62586247  0.15805746  1
  O  O208  1  0.32746825  0.62903912  0.46964988  1
  O  O209  1  0.33482057  0.62311779  0.80961171  1
  O  O210  1  0.66940368  0.12241408  0.14384538  1
  O  O211  1  0.65706642  0.12480944  0.47243500  1
  O  O212  1  0.66003298  0.12669267  0.81966583  1
  O  O213  1  0.65731513  0.63018699  0.14602862  1
  O  O214  1  0.67190961  0.62479947  0.48727837  1
  O  O215  1  0.66065199  0.62488822  0.80445346  1
  O  O216  1  0.09198240  0.01461932  0.24582102  1
  O  O217  1  0.09061905  0.01314869  0.58075171  1
  O  O218  1  0.07809016  0.01297861  0.92838357  1
  O  O219  1  0.08012602  0.51736099  0.26379417  1
  O  O220  1  0.08447179  0.52038677  0.58933647  1
  O  O221  1  0.07365654  0.51635481  0.92847390  1
  O  O222  1  0.42060728  0.00620310  0.24516036  1
  O  O223  1  0.42078170  0.02611098  0.57645747  1
  O  O224  1  0.42055055  0.02115182  0.90779240  1
  O  O225  1  0.41522564  0.51424007  0.25056752  1
  O  O226  1  0.40922240  0.51805737  0.58956447  1
  O  O227  1  0.42329805  0.51625815  0.90748249  1
  O  O228  1  0.75176666  0.01455244  0.24689148  1
  O  O229  1  0.75755247  0.01709200  0.56877920  1
  O  O230  1  0.75692648  0.02067069  0.90755084  1
  O  O231  1  0.74706059  0.50170218  0.25316511  1
  O  O232  1  0.75367802  0.52039640  0.57829984  1
  O  O233  1  0.74834342  0.52134448  0.90961586  1
  O  O234  1  0.24521939  0.23586017  0.24662592  1
  O  O235  1  0.24982160  0.23538711  0.58377266  1
  O  O236  1  0.25916579  0.23531369  0.92609469  1
  O  O237  1  0.25440694  0.74223473  0.25781972  1
  O  O238  1  0.24963684  0.72850044  0.58132942  1
  O  O239  1  0.23809724  0.73550408  0.90830246  1
  O  O240  1  0.59171949  0.23760099  0.25623890  1
  O  O241  1  0.57875108  0.23832652  0.57673943  1
  O  O242  1  0.58362505  0.23224686  0.91429324  1
  O  O243  1  0.57198437  0.74045426  0.23915577  1
  O  O244  1  0.58637910  0.74109370  0.58515398  1
  O  O245  1  0.58590835  0.72804883  0.91555940  1
  O  O246  1  0.91702261  0.23663647  0.24614634  1
  O  O247  1  0.91945331  0.22945708  0.58593372  1
  O  O248  1  0.91656102  0.22590332  0.91415602  1
  O  O249  1  0.91853026  0.73781379  0.25356704  1
  O  O250  1  0.91338105  0.72875146  0.57913064  1
  O  O251  1  0.91255842  0.72727404  0.91201806  1
  O  O252  1  0.08930632  0.47625105  0.08949464  1
  O  O253  1  0.09183353  0.48493719  0.42781857  1
  O  O254  1  0.09221916  0.48868666  0.76491759  1
  O  O255  1  0.08670379  0.97462403  0.08651048  1
  O  O256  1  0.08183124  0.97782467  0.41624908  1
  O  O257  1  0.08534012  0.98096228  0.75827205  1
  O  O258  1  0.41229731  0.48525401  0.07577094  1
  O  O259  1  0.41547633  0.48009329  0.41757293  1
  O  O260  1  0.41583855  0.47542136  0.74826630  1
  O  O261  1  0.40865778  0.98551319  0.07497738  1
  O  O262  1  0.41554767  0.97864793  0.41527105  1
  O  O263  1  0.40660447  0.98648936  0.73566159  1
  O  O264  1  0.74796297  0.49502784  0.07509308  1
  O  O265  1  0.75062502  0.47805310  0.41833700  1
  O  O266  1  0.73784577  0.48659130  0.74009809  1
  O  O267  1  0.74171861  0.98539221  0.06774789  1
  O  O268  1  0.73987391  0.98373137  0.40662596  1
  O  O269  1  0.74508727  0.97882713  0.74276587  1
  O  O270  1  0.24754899  0.27465689  0.08535967  1
  O  O271  1  0.25482091  0.27557883  0.41774078  1
  O  O272  1  0.25136384  0.27642810  0.75289301  1
  O  O273  1  0.25164314  0.77253096  0.08209048  1
  O  O274  1  0.25128433  0.78060236  0.41988461  1
  O  O275  1  0.25280857  0.77159495  0.74758944  1
  O  O276  1  0.58538607  0.25577867  0.07577210  1
  O  O277  1  0.58465828  0.27408839  0.41911331  1
  O  O278  1  0.57689657  0.27242230  0.74949279  1
  O  O279  1  0.58197378  0.77561761  0.07977037  1
  O  O280  1  0.58248934  0.77245620  0.41328630  1
  O  O281  1  0.58594244  0.76503568  0.74559685  1
  O  O282  1  0.92890109  0.25691914  0.07449636  1
  O  O283  1  0.91083232  0.25795150  0.42396722  1
  O  O284  1  0.91689412  0.25440830  0.74996551  1
  O  O285  1  0.92359219  0.76545418  0.07154204  1
  O  O286  1  0.92449549  0.75994539  0.41401397  1
  O  O287  1  0.90928648  0.75835014  0.75405772  1
  O  O288  1  0.24964544  0.47866042  0.08164661  1
  O  O289  1  0.25210149  0.47344414  0.41937951  1
  O  O290  1  0.25450791  0.47594792  0.74744546  1
  O  O291  1  0.24726278  0.97278713  0.08747977  1
  O  O292  1  0.24921597  0.97371452  0.42173561  1
  O  O293  1  0.24834157  0.97646256  0.75572815  1
  O  O294  1  0.58466725  0.49104161  0.07594715  1
  O  O295  1  0.58396015  0.47927545  0.41863041  1
  O  O296  1  0.57538259  0.47757788  0.75357569  1
  O  O297  1  0.57697966  0.98054193  0.08567306  1
  O  O298  1  0.57920178  0.97447359  0.41865864  1
  O  O299  1  0.58248116  0.98489174  0.74384180  1
  O  O300  1  0.92808611  0.49165572  0.07480380  1
  O  O301  1  0.91408111  0.48963033  0.41999581  1
  O  O302  1  0.91439509  0.49828544  0.75088404  1
  O  O303  1  0.92456988  0.98595218  0.07420202  1
  O  O304  1  0.91446281  0.99193927  0.42177698  1
  O  O305  1  0.90766700  0.98624891  0.75744025  1
  O  O306  1  0.08867919  0.27210729  0.08793002  1
  O  O307  1  0.09060127  0.26503060  0.42619684  1
  O  O308  1  0.08967234  0.26626118  0.75950987  1
  O  O309  1  0.08870838  0.77571023  0.08960154  1
  O  O310  1  0.09003324  0.76802300  0.42551408  1
  O  O311  1  0.09018558  0.76342831  0.76498081  1
  O  O312  1  0.40725101  0.25896723  0.07157116  1
  O  O313  1  0.42002906  0.26403335  0.42349983  1
  O  O314  1  0.41354621  0.27891712  0.74828301  1
  O  O315  1  0.41533658  0.77160010  0.08574711  1
  O  O316  1  0.41624070  0.77492714  0.41559863  1
  O  O317  1  0.41056180  0.76109500  0.74405985  1
  O  O318  1  0.74980074  0.25571803  0.07610490  1
  O  O319  1  0.74488491  0.27162487  0.41192241  1
  O  O320  1  0.74262049  0.26567546  0.74015977  1
  O  O321  1  0.74199980  0.76480729  0.07069527  1
  O  O322  1  0.74974936  0.76784074  0.41663046  1
  O  O323  1  0.74519544  0.77052003  0.74623733  1
  O  O324  1  0.24888375  0.00947227  0.24899512  1
  O  O325  1  0.25631125  0.01227540  0.58842137  1
  O  O326  1  0.25896260  0.01360898  0.92906916  1
  O  O327  1  0.25418912  0.50987581  0.25922283  1
  O  O328  1  0.24948953  0.52317912  0.58126046  1
  O  O329  1  0.23781834  0.51270410  0.90879690  1
  O  O330  1  0.59179549  0.01361388  0.25970752  1
  O  O331  1  0.57891395  0.01473429  0.57644694  1
  O  O332  1  0.58918437  0.01307373  0.92139271  1
  O  O333  1  0.57773425  0.51058435  0.24503896  1
  O  O334  1  0.58944021  0.51040301  0.59105445  1
  O  O335  1  0.58329866  0.52600446  0.91504078  1
  O  O336  1  0.91893034  0.01209959  0.24721675  1
  O  O337  1  0.92187932  0.01917709  0.58868479  1
  O  O338  1  0.91723800  0.02365430  0.91558448  1
  O  O339  1  0.91986826  0.51416649  0.25425442  1
  O  O340  1  0.91491356  0.52275603  0.57931355  1
  O  O341  1  0.91349431  0.52238738  0.91328575  1
  O  O342  1  0.08904977  0.23572245  0.24748924  1
  O  O343  1  0.08537505  0.23401424  0.58872383  1
  O  O344  1  0.07779719  0.23219068  0.93005811  1
  O  O345  1  0.07860524  0.73447672  0.26718420  1
  O  O346  1  0.08414602  0.72959111  0.58787710  1
  O  O347  1  0.07293625  0.73750350  0.92840740  1
  O  O348  1  0.41343844  0.24372915  0.25003436  1
  O  O349  1  0.41488870  0.22583710  0.58458772  1
  O  O350  1  0.42183258  0.22988661  0.90740952  1
  O  O351  1  0.41404424  0.73479921  0.25141437  1
  O  O352  1  0.40984327  0.73212077  0.58526501  1
  O  O353  1  0.41952120  0.73144537  0.91189086  1
  O  O354  1  0.74987615  0.23279740  0.25116915  1
  O  O355  1  0.75935987  0.23240587  0.56774005  1
  O  O356  1  0.75332293  0.23112936  0.91150731  1
  O  O357  1  0.74331563  0.75018021  0.24932479  1
  O  O358  1  0.75052661  0.73142482  0.58293810  1
  O  O359  1  0.74951759  0.72522117  0.90868028  1
