# generated using pymatgen
data_Ba17Sr5La8Pr42Mn72O216
_symmetry_space_group_name_H-M   'P 1'
_cell_length_a   16.67515344
_cell_length_b   15.70742819
_cell_length_c   16.82805216
_cell_angle_alpha   90.00388926
_cell_angle_beta   89.96996979
_cell_angle_gamma   89.98539936
_symmetry_Int_Tables_number   1
_chemical_formula_structural   Ba17Sr5La8Pr42Mn72O216
_chemical_formula_sum   'Ba17 Sr5 La8 Pr42 Mn72 O216'
_cell_volume   4407.66619166
_cell_formula_units_Z   1
loop_
 _symmetry_equiv_pos_site_id
 _symmetry_equiv_pos_as_xyz
  1  'x, y, z'
loop_
 _atom_site_type_symbol
 _atom_site_label
 _atom_site_symmetry_multiplicity
 _atom_site_fract_x
 _atom_site_fract_y
 _atom_site_fract_z
 _atom_site_occupancy
  Ba  Ba0  1  0.16714838  0.62574413  0.16812924  1
  Ba  Ba1  1  0.83212439  0.37632161  0.49890279  1
  Ba  Ba2  1  0.49902893  0.87280693  0.49691816  1
  Ba  Ba3  1  0.00014100  0.62424735  0.66802695  1
  Ba  Ba4  1  0.83244091  0.12547488  0.16698405  1
  Ba  Ba5  1  0.50028418  0.37559081  0.16506810  1
  Ba  Ba6  1  0.66446659  0.12656227  0.66447234  1
  Ba  Ba7  1  0.16837462  0.37449658  0.83308765  1
  Ba  Ba8  1  0.00001715  0.87471061  0.66851999  1
  Ba  Ba9  1  0.66500825  0.12372896  0.32968916  1
  Ba  Ba10  1  0.00227019  0.87474854  0.00205683  1
  Ba  Ba11  1  0.83411180  0.37605517  0.16699447  1
  Ba  Ba12  1  0.00058416  0.12595797  0.66724208  1
  Ba  Ba13  1  0.16912782  0.87422972  0.16967919  1
  Ba  Ba14  1  0.33571979  0.87474879  0.66770133  1
  Ba  Ba15  1  0.66607731  0.12415061  0.99773972  1
  Ba  Ba16  1  0.16512546  0.87544121  0.50063217  1
  Sr  Sr17  1  0.33115131  0.87387881  0.34004412  1
  Sr  Sr18  1  0.49986337  0.12700294  0.16860029  1
  Sr  Sr19  1  0.50570878  0.37558033  0.83291554  1
  Sr  Sr20  1  -0.00415897  0.37661752  0.33198084  1
  Sr  Sr21  1  0.66666085  0.37448874  0.66543421  1
  La  La22  1  0.66430490  0.62186280  0.99533342  1
  La  La23  1  0.33475168  0.12624971  1.00296336  1
  La  La24  1  0.00447116  0.62455664  0.99946891  1
  La  La25  1  0.00042822  0.12637224  0.99886059  1
  La  La26  1  0.49480990  0.12443338  0.50091372  1
  La  La27  1  0.66669355  0.37331231  0.00113480  1
  La  La28  1  -0.00077917  0.37563238  0.00400577  1
  La  La29  1  0.33305179  0.37616631  0.33613763  1
  Pr  Pr30  1  0.00290262  0.62153221  0.33499535  1
  Pr  Pr31  1  0.16495874  0.62800796  0.83743791  1
  Pr  Pr32  1  0.49276756  0.62487431  0.83296209  1
  Pr  Pr33  1  0.66937192  0.87421229  0.66593661  1
  Pr  Pr34  1  0.33305600  0.12000613  0.33242575  1
  Pr  Pr35  1  0.50571528  0.37400594  0.49626422  1
  Pr  Pr36  1  0.00058967  0.12836833  0.33327673  1
  Pr  Pr37  1  0.16518574  0.12184164  0.83604379  1
  Pr  Pr38  1  0.83293886  0.62755235  0.83458374  1
  Pr  Pr39  1  0.32829565  0.62305552  0.66779082  1
  Pr  Pr40  1  0.50411679  0.87597045  0.16596158  1
  Pr  Pr41  1  -0.00234826  0.87298690  0.33782215  1
  Pr  Pr42  1  0.33539539  0.37582654  0.00661664  1
  Pr  Pr43  1  0.17118781  0.87405279  0.82772775  1
  Pr  Pr44  1  0.16554783  0.12352800  0.16933819  1
  Pr  Pr45  1  0.83576671  0.62898258  0.17028184  1
  Pr  Pr46  1  0.16067401  0.37431455  0.49996626  1
  Pr  Pr47  1  0.33743391  0.87392833  0.00428122  1
  Pr  Pr48  1  0.48887636  0.62378147  0.50173192  1
  Pr  Pr49  1  0.83120764  0.37270671  0.82961858  1
  Pr  Pr50  1  -0.00644001  0.37556326  0.67047539  1
  Pr  Pr51  1  0.32994098  0.62317983  1.00177940  1
  Pr  Pr52  1  0.67082415  0.36907926  0.33156696  1
  Pr  Pr53  1  0.16647458  0.12313779  0.50265570  1
  Pr  Pr54  1  0.33809847  0.37569584  0.67365868  1
  Pr  Pr55  1  0.66589663  0.62488437  0.32867363  1
  Pr  Pr56  1  0.83632670  0.87861625  0.83025356  1
  Pr  Pr57  1  0.49586214  0.62316092  0.16761321  1
  Pr  Pr58  1  0.33127093  0.12726397  0.66698066  1
  Pr  Pr59  1  0.50994089  0.87522991  0.82596459  1
  Pr  Pr60  1  0.83363117  0.87742187  0.50089852  1
  Pr  Pr61  1  0.83344779  0.87860009  0.16641664  1
  Pr  Pr62  1  0.67271223  0.87464663  -0.00064119  1
  Pr  Pr63  1  0.83289500  0.12391573  0.83741845  1
  Pr  Pr64  1  0.66129821  0.62152615  0.65940634  1
  Pr  Pr65  1  0.16531176  0.62658494  0.50166518  1
  Pr  Pr66  1  0.83110114  0.62327935  0.50455709  1
  Pr  Pr67  1  0.16542143  0.37514782  0.16164088  1
  Pr  Pr68  1  0.66691386  0.87764561  0.33292345  1
  Pr  Pr69  1  0.32986130  0.63063483  0.33369737  1
  Pr  Pr70  1  0.49565200  0.12544230  0.83589370  1
  Pr  Pr71  1  0.83197932  0.12812176  0.50169213  1
  Mn  Mn72  1  0.00127612  0.00114107  0.16900188  1
  Mn  Mn73  1  -0.00179891  0.00062654  0.49878592  1
  Mn  Mn74  1  0.00153809  0.00086849  0.83571372  1
  Mn  Mn75  1  -0.00022077  0.50088812  0.16704528  1
  Mn  Mn76  1  -0.00027929  0.49978445  0.50005999  1
  Mn  Mn77  1  -0.00049167  0.49978740  0.83510191  1
  Mn  Mn78  1  0.33588227  -0.00124736  0.16812082  1
  Mn  Mn79  1  0.33219293  0.00206532  0.49959485  1
  Mn  Mn80  1  0.33478974  0.00066722  0.83689051  1
  Mn  Mn81  1  0.33285115  0.50092292  0.17021794  1
  Mn  Mn82  1  0.33052753  0.49707448  0.50325590  1
  Mn  Mn83  1  0.33550601  0.49884163  0.83473451  1
  Mn  Mn84  1  0.66488990  -0.00226451  0.16512234  1
  Mn  Mn85  1  0.66550218  -0.00071600  0.49780465  1
  Mn  Mn86  1  0.66779377  -0.00072645  0.83079698  1
  Mn  Mn87  1  0.66761802  0.50327697  0.16320383  1
  Mn  Mn88  1  0.66396428  0.50098241  0.49513811  1
  Mn  Mn89  1  0.66737178  0.50207153  0.82922457  1
  Mn  Mn90  1  0.00142038  0.25062174  0.16653618  1
  Mn  Mn91  1  -0.00027918  0.25081172  0.49870987  1
  Mn  Mn92  1  0.00070595  0.25082720  0.83392714  1
  Mn  Mn93  1  -0.00083957  0.74948507  0.16962591  1
  Mn  Mn94  1  -0.00196617  0.74894453  0.50039363  1
  Mn  Mn95  1  0.00024233  0.74899526  0.83579072  1
  Mn  Mn96  1  0.33187348  0.24836911  0.16982656  1
  Mn  Mn97  1  0.33153953  0.25266056  0.50232826  1
  Mn  Mn98  1  0.33618191  0.25085734  0.83448343  1
  Mn  Mn99  1  0.33690863  0.75154890  0.16856649  1
  Mn  Mn100  1  0.33120729  0.74761401  0.50040098  1
  Mn  Mn101  1  0.33482504  0.74914500  0.83709736  1
  Mn  Mn102  1  0.66535029  0.25089908  0.16528051  1
  Mn  Mn103  1  0.66503601  0.25010811  0.49820128  1
  Mn  Mn104  1  0.66614724  0.25140135  0.83056681  1
  Mn  Mn105  1  0.66666873  0.74931761  0.16330843  1
  Mn  Mn106  1  0.66621404  0.74841797  0.49630235  1
  Mn  Mn107  1  0.66789489  0.74772810  0.83055185  1
  Mn  Mn108  1  0.16925199  0.24953754  0.00094319  1
  Mn  Mn109  1  0.16598363  0.25183044  0.33331387  1
  Mn  Mn110  1  0.16812602  0.25134475  0.66571119  1
  Mn  Mn111  1  0.16905865  0.75056575  -0.00008350  1
  Mn  Mn112  1  0.16493601  0.74969884  0.33560453  1
  Mn  Mn113  1  0.16755088  0.74850775  0.66931412  1
  Mn  Mn114  1  0.49970511  0.24950967  -0.00143704  1
  Mn  Mn115  1  0.49763138  0.25206687  0.33329727  1
  Mn  Mn116  1  0.49913114  0.25155342  0.66725541  1
  Mn  Mn117  1  0.50016866  0.75039763  -0.00221968  1
  Mn  Mn118  1  0.50085480  0.74654990  0.33207632  1
  Mn  Mn119  1  0.50066584  0.74821221  0.66611251  1
  Mn  Mn120  1  0.83449120  0.25092081  -0.00301076  1
  Mn  Mn121  1  0.83396992  0.25045725  0.33371117  1
  Mn  Mn122  1  0.83174506  0.25026657  0.66691694  1
  Mn  Mn123  1  0.83325929  0.74881987  0.00221385  1
  Mn  Mn124  1  0.83272604  0.74862875  0.33584355  1
  Mn  Mn125  1  0.83031746  0.74864276  0.66751120  1
  Mn  Mn126  1  0.17013316  0.00094938  0.00114687  1
  Mn  Mn127  1  0.16444274  0.00228314  0.33476979  1
  Mn  Mn128  1  0.16822388  0.00131629  0.66897867  1
  Mn  Mn129  1  0.16822635  0.49876904  -0.00002080  1
  Mn  Mn130  1  0.16602649  0.49618527  0.33446300  1
  Mn  Mn131  1  0.16729333  0.49830121  0.66636926  1
  Mn  Mn132  1  0.49992499  -0.00242294  -0.00186966  1
  Mn  Mn133  1  0.49800007  -0.00088005  0.33127831  1
  Mn  Mn134  1  0.50000842  0.00043576  0.66662907  1
  Mn  Mn135  1  0.49950713  0.50194397  -0.00231430  1
  Mn  Mn136  1  0.49978022  0.50013792  0.33393029  1
  Mn  Mn137  1  0.49961046  0.49981054  0.66601629  1
  Mn  Mn138  1  0.83523951  -0.00139357  -0.00029459  1
  Mn  Mn139  1  0.83464424  -0.00199925  0.33392941  1
  Mn  Mn140  1  0.83218599  0.00141127  0.66595952  1
  Mn  Mn141  1  0.83346902  0.50321203  -0.00152081  1
  Mn  Mn142  1  0.83156105  0.50336880  0.33370856  1
  Mn  Mn143  1  0.83068021  0.50020089  0.66810162  1
  O  O144  1  0.17006345  0.12788240  0.02534574  1
  O  O145  1  0.15961824  0.13085151  0.35955948  1
  O  O146  1  0.17131894  0.12866583  0.69147162  1
  O  O147  1  0.16768533  0.62290129  0.01115637  1
  O  O148  1  0.16345538  0.61880506  0.35639725  1
  O  O149  1  0.17187474  0.62123782  0.69323704  1
  O  O150  1  0.49662016  0.11917094  0.01802333  1
  O  O151  1  0.49341026  0.13108715  0.35611873  1
  O  O152  1  0.49250020  0.12747496  0.69136767  1
  O  O153  1  0.50365114  0.62859434  0.02431923  1
  O  O154  1  0.50788759  0.62210082  0.35923244  1
  O  O155  1  0.50042648  0.62466148  0.68921174  1
  O  O156  1  0.83758048  0.12378511  0.00796800  1
  O  O157  1  0.83627387  0.12077112  0.35578466  1
  O  O158  1  0.82962969  0.12744813  0.69106176  1
  O  O159  1  0.82661133  0.62701121  0.02688589  1
  O  O160  1  0.82078218  0.63010858  0.36197958  1
  O  O161  1  0.82013289  0.62491982  0.68957521  1
  O  O162  1  0.17399175  0.37311011  0.30441973  1
  O  O163  1  0.17746039  0.37497176  0.64346109  1
  O  O164  1  0.17515061  0.37395466  0.98841216  1
  O  O165  1  0.16314261  0.87736671  0.32631105  1
  O  O166  1  0.16983432  0.87459985  0.66236047  1
  O  O167  1  0.17808442  0.87541322  0.97464831  1
  O  O168  1  0.49115171  0.37733262  0.32039906  1
  O  O169  1  0.49327156  0.37808394  0.64032580  1
  O  O170  1  0.49472066  0.37959171  0.98226590  1
  O  O171  1  0.50063187  0.86746424  0.31120796  1
  O  O172  1  0.50592135  0.87038376  0.65472409  1
  O  O173  1  0.49093578  0.87128172  0.96785666  1
  O  O174  1  0.83069669  0.38030502  0.32353944  1
  O  O175  1  0.84200785  0.37563466  0.65575990  1
  O  O176  1  0.83885803  0.37991186  0.97471539  1
  O  O177  1  0.84376230  0.86798883  0.30901483  1
  O  O178  1  0.82931959  0.87244139  0.64551472  1
  O  O179  1  0.83121123  0.87050487  0.97461393  1
  O  O180  1  0.00707170  0.37456825  0.18134732  1
  O  O181  1  0.00274052  0.37622015  0.52521674  1
  O  O182  1  -0.00921230  0.37639391  0.85880430  1
  O  O183  1  -0.00693752  0.87311103  0.19285692  1
  O  O184  1  -0.00858733  0.87377058  0.51170730  1
  O  O185  1  -0.00560137  0.87388447  0.84482991  1
  O  O186  1  0.32636272  0.37272339  0.19048133  1
  O  O187  1  0.32672699  0.37525421  0.53195047  1
  O  O188  1  0.33682629  0.37549445  0.86274829  1
  O  O189  1  0.34343263  0.87346955  0.18894981  1
  O  O190  1  0.33111137  0.87293073  0.50793765  1
  O  O191  1  0.32481723  0.87432482  0.86023340  1
  O  O192  1  0.66599596  0.38361226  0.18550731  1
  O  O193  1  0.65760022  0.37744565  0.51623009  1
  O  O194  1  0.66814316  0.38140513  0.85742987  1
  O  O195  1  0.66188466  0.86994145  0.18849064  1
  O  O196  1  0.66861905  0.87135514  0.52285159  1
  O  O197  1  0.66001405  0.87100452  0.85634426  1
  O  O198  1  0.00572543  0.12809329  0.14367918  1
  O  O199  1  0.00257600  0.12608248  0.47806925  1
  O  O200  1  0.00635760  0.12663560  0.82402940  1
  O  O201  1  -0.00636748  0.62521315  0.14469316  1
  O  O202  1  0.00566633  0.62361206  0.48061530  1
  O  O203  1  0.00955966  0.62332068  0.82440892  1
  O  O204  1  0.32994809  0.12421589  0.14643659  1
  O  O205  1  0.33499330  0.13259282  0.47629017  1
  O  O206  1  0.34334037  0.12734406  0.81056081  1
  O  O207  1  0.33992726  0.62857188  0.14562420  1
  O  O208  1  0.33348029  0.61806153  0.47739997  1
  O  O209  1  0.33847563  0.62279475  0.81098111  1
  O  O210  1  0.66351267  0.11895131  0.15582102  1
  O  O211  1  0.66941803  0.12385041  0.48664384  1
  O  O212  1  0.67607881  0.12233283  0.82191900  1
  O  O213  1  0.67320003  0.62850397  0.13763991  1
  O  O214  1  0.67561153  0.62637867  0.47180055  1
  O  O215  1  0.67755815  0.62644838  0.80329161  1
  O  O216  1  0.08544218  0.02467435  0.24909773  1
  O  O217  1  0.08678678  0.01445059  0.57578396  1
  O  O218  1  0.08698839  0.01957801  0.92067737  1
  O  O219  1  0.07835864  0.51368745  0.25510172  1
  O  O220  1  0.09022945  0.51124007  0.57649475  1
  O  O221  1  0.08377919  0.51302608  0.91813926  1
  O  O222  1  0.41232024  0.01981653  0.25299022  1
  O  O223  1  0.41279960  0.02153991  0.58741029  1
  O  O224  1  0.41032623  0.01978567  0.92428480  1
  O  O225  1  0.41689566  0.52343931  0.25379530  1
  O  O226  1  0.41030399  0.52201325  0.58905435  1
  O  O227  1  0.41581347  0.52602585  0.91876616  1
  O  O228  1  0.75357381  -0.00417654  0.24970814  1
  O  O229  1  0.75347344  0.01001909  0.57688532  1
  O  O230  1  0.75733752  0.00481169  0.90770070  1
  O  O231  1  0.75037474  0.52638083  0.24524737  1
  O  O232  1  0.74373352  0.51942716  0.58046012  1
  O  O233  1  0.75066240  0.52433163  0.91484932  1
  O  O234  1  0.24795840  0.22327588  0.25282310  1
  O  O235  1  0.24904429  0.22417699  0.58066607  1
  O  O236  1  0.25138993  0.22643333  0.91654683  1
  O  O237  1  0.25495929  0.73753793  0.25700359  1
  O  O238  1  0.24970670  0.72520161  0.58574300  1
  O  O239  1  0.24986216  0.72521425  0.91500503  1
  O  O240  1  0.57830094  0.24491928  0.24835962  1
  O  O241  1  0.57108623  0.23821562  0.57243789  1
  O  O242  1  0.57874273  0.23803171  0.90777924  1
  O  O243  1  0.58034757  0.72484238  0.24004770  1
  O  O244  1  0.57999286  0.72256166  0.57248274  1
  O  O245  1  0.57849216  0.72605803  0.90590005  1
  O  O246  1  0.92290331  0.23698693  0.25385476  1
  O  O247  1  0.91329779  0.23434730  0.58125308  1
  O  O248  1  0.91888304  0.23027295  0.91514024  1
  O  O249  1  0.91456050  0.72052086  0.26014878  1
  O  O250  1  0.90755285  0.73271716  0.57729862  1
  O  O251  1  0.91684319  0.72551388  0.92295170  1
  O  O252  1  0.08573636  0.48174639  0.08173338  1
  O  O253  1  0.08511303  0.47789533  0.41644537  1
  O  O254  1  0.07945425  0.47972035  0.74187371  1
  O  O255  1  0.08809131  0.99361491  0.08556261  1
  O  O256  1  0.07060824  0.98955580  0.40663857  1
  O  O257  1  0.08988479  0.98934683  0.76018525  1
  O  O258  1  0.40959125  0.49060360  0.07950521  1
  O  O259  1  0.41521480  0.48079175  0.42667844  1
  O  O260  1  0.41935942  0.48290088  0.75406649  1
  O  O261  1  0.42419258  0.97572079  0.08499468  1
  O  O262  1  0.41432121  0.99521451  0.41664633  1
  O  O263  1  0.42601009  0.98394550  0.76446292  1
  O  O264  1  0.74586781  0.48421898  0.07394873  1
  O  O265  1  0.73969412  0.48612648  0.40627869  1
  O  O266  1  0.75286443  0.47825841  0.75315629  1
  O  O267  1  0.74971245  0.97684845  0.08056511  1
  O  O268  1  0.75059931  0.97444155  0.41459627  1
  O  O269  1  0.74864958  0.97476299  0.74840430  1
  O  O270  1  0.24972868  0.26919051  0.08693369  1
  O  O271  1  0.25050745  0.27436523  0.41840548  1
  O  O272  1  0.26000596  0.26367449  0.74511691  1
  O  O273  1  0.26136841  0.76248857  0.07590394  1
  O  O274  1  0.24719357  0.74811400  0.41973056  1
  O  O275  1  0.25130015  0.75874688  0.75716219  1
  O  O276  1  0.58637435  0.26475164  0.07482500  1
  O  O277  1  0.58286856  0.27119808  0.41249663  1
  O  O278  1  0.58394457  0.26536994  0.74437493  1
  O  O279  1  0.58658275  0.77375306  0.07055554  1
  O  O280  1  0.59395825  0.76219554  0.40242501  1
  O  O281  1  0.59315881  0.76515976  0.74224510  1
  O  O282  1  0.92421127  0.26303294  0.07449304  1
  O  O283  1  0.91837265  0.25533854  0.41629245  1
  O  O284  1  0.91486111  0.26814565  0.75276555  1
  O  O285  1  0.90926250  0.76376890  0.09612378  1
  O  O286  1  0.91235043  0.76542001  0.41654045  1
  O  O287  1  0.91030939  0.75559024  0.75940087  1
  O  O288  1  0.24995569  0.48242063  0.08609386  1
  O  O289  1  0.24845166  0.47518276  0.42190085  1
  O  O290  1  0.25953939  0.48558441  0.74444972  1
  O  O291  1  0.26170946  0.98473564  0.07627960  1
  O  O292  1  0.24689434  1.00110770  0.41683968  1
  O  O293  1  0.25157678  0.99144578  0.75819854  1
  O  O294  1  0.58772110  0.49059962  0.07285073  1
  O  O295  1  0.58336145  0.47815340  0.41244150  1
  O  O296  1  0.58886326  0.48990868  0.74042048  1
  O  O297  1  0.58584237  0.97119095  0.07296267  1
  O  O298  1  0.58796194  0.98379224  0.40690371  1
  O  O299  1  0.58955724  0.98027325  0.74387081  1
  O  O300  1  0.92227720  0.48919818  0.07569124  1
  O  O301  1  0.91754271  0.50102992  0.41509728  1
  O  O302  1  0.91594164  0.48575122  0.75479412  1
  O  O303  1  0.91269237  0.98475157  0.09166383  1
  O  O304  1  0.91100058  0.97931781  0.42011340  1
  O  O305  1  0.90919136  0.99183654  0.75737539  1
  O  O306  1  0.08652916  0.26972777  0.08297991  1
  O  O307  1  0.08392680  0.27390223  0.41350285  1
  O  O308  1  0.07764206  0.27020898  0.74353780  1
  O  O309  1  0.08531159  0.75613685  0.08097192  1
  O  O310  1  0.07443210  0.75869439  0.41214592  1
  O  O311  1  0.09043087  0.76028848  0.75792474  1
  O  O312  1  0.40924458  0.26191753  0.07842831  1
  O  O313  1  0.41682872  0.27433127  0.42580397  1
  O  O314  1  0.41932002  0.27252643  0.75185724  1
  O  O315  1  0.42447744  0.77066366  0.08741280  1
  O  O316  1  0.41518780  0.74975738  0.41541032  1
  O  O317  1  0.42596356  0.76257029  0.76613475  1
  O  O318  1  0.74863275  0.26575647  0.07380988  1
  O  O319  1  0.74496978  0.26197005  0.41324833  1
  O  O320  1  0.75068311  0.27092744  0.75025687  1
  O  O321  1  0.75110959  0.77652423  0.08405781  1
  O  O322  1  0.75321249  0.77859161  0.41586956  1
  O  O323  1  0.75186549  0.77751058  0.75416230  1
  O  O324  1  0.24687959  0.02095355  0.25113779  1
  O  O325  1  0.25111683  0.02388428  0.58447709  1
  O  O326  1  0.24956959  0.02769590  0.91535138  1
  O  O327  1  0.25683729  0.51612962  0.26081194  1
  O  O328  1  0.24827376  0.52621627  0.58272729  1
  O  O329  1  0.25202324  0.52063913  0.91614675  1
  O  O330  1  0.57523619  0.00301024  0.24048520  1
  O  O331  1  0.57639948  0.01467219  0.57374150  1
  O  O332  1  0.57387399  0.01116858  0.90413627  1
  O  O333  1  0.58500833  0.52554197  0.24307015  1
  O  O334  1  0.57713714  0.52390687  0.57320420  1
  O  O335  1  0.58224322  0.52539693  0.90768718  1
  O  O336  1  0.92562783  0.01544214  0.26131250  1
  O  O337  1  0.91143380  0.01717626  0.57764361  1
  O  O338  1  0.92055612  0.01751584  0.91924336  1
  O  O339  1  0.91313488  0.52409236  0.25137635  1
  O  O340  1  0.91030441  0.51688402  0.58229506  1
  O  O341  1  0.91409589  0.52799991  0.91796457  1
  O  O342  1  0.08585022  0.22925699  0.24711957  1
  O  O343  1  0.09004986  0.23864616  0.57348051  1
  O  O344  1  0.08642010  0.23301158  0.91928275  1
  O  O345  1  0.07746294  0.73578208  0.25562744  1
  O  O346  1  0.08678929  0.73511313  0.57950085  1
  O  O347  1  0.08614612  0.73520974  0.91731801  1
  O  O348  1  0.40794889  0.23398163  0.25818228  1
  O  O349  1  0.40984427  0.23018173  0.58893795  1
  O  O350  1  0.41649982  0.22805946  0.91729032  1
  O  O351  1  0.41893332  0.72275995  0.25180756  1
  O  O352  1  0.41193643  0.72663528  0.58614573  1
  O  O353  1  0.41085296  0.72412898  0.92570810  1
  O  O354  1  0.74828452  0.24842301  0.25058082  1
  O  O355  1  0.75181121  0.23821660  0.57811108  1
  O  O356  1  0.75862532  0.24337429  0.90844962  1
  O  O357  1  0.75150317  0.73171912  0.25359684  1
  O  O358  1  0.74276789  0.72889823  0.58465325  1
  O  O359  1  0.74683865  0.72892088  0.91650567  1
