# generated using pymatgen
data_Ba17Sr5La8Pr42Mn72O216
_symmetry_space_group_name_H-M   'P 1'
_cell_length_a   16.67679917
_cell_length_b   15.70548704
_cell_length_c   16.81403936
_cell_angle_alpha   89.99978017
_cell_angle_beta   89.96472392
_cell_angle_gamma   90.00279416
_symmetry_Int_Tables_number   1
_chemical_formula_structural   Ba17Sr5La8Pr42Mn72O216
_chemical_formula_sum   'Ba17 Sr5 La8 Pr42 Mn72 O216'
_cell_volume   4403.88616594
_cell_formula_units_Z   1
loop_
 _symmetry_equiv_pos_site_id
 _symmetry_equiv_pos_as_xyz
  1  'x, y, z'
loop_
 _atom_site_type_symbol
 _atom_site_label
 _atom_site_symmetry_multiplicity
 _atom_site_fract_x
 _atom_site_fract_y
 _atom_site_fract_z
 _atom_site_occupancy
  Ba  Ba0  1  0.49938662  0.12539321  0.83570929  1
  Ba  Ba1  1  -0.00350128  0.87465650  0.66786140  1
  Ba  Ba2  1  -0.00114240  0.37403164  0.33477674  1
  Ba  Ba3  1  -0.00029884  0.37366053  0.00084896  1
  Ba  Ba4  1  0.50126384  0.62563219  0.83577258  1
  Ba  Ba5  1  0.83179312  0.37465681  0.16507710  1
  Ba  Ba6  1  0.16586965  0.37565862  0.49643235  1
  Ba  Ba7  1  0.66607480  0.62454052  0.66584953  1
  Ba  Ba8  1  -0.00109566  0.87575207  0.33541364  1
  Ba  Ba9  1  0.17151785  0.62790705  0.16557009  1
  Ba  Ba10  1  0.83382728  0.62506359  0.50289842  1
  Ba  Ba11  1  0.00173480  0.12469310  1.00032607  1
  Ba  Ba12  1  0.33481008  0.62625049  0.99907219  1
  Ba  Ba13  1  0.33599743  0.37633453  0.33308036  1
  Ba  Ba14  1  0.16482125  0.37525431  0.82891957  1
  Ba  Ba15  1  0.33114308  0.87615996  0.66472790  1
  Ba  Ba16  1  0.16711230  0.87515461  0.16634662  1
  Sr  Sr17  1  0.50062774  0.12725549  0.50601352  1
  Sr  Sr18  1  -0.00355932  0.87540254  0.00363400  1
  Sr  Sr19  1  0.33468511  0.62293284  0.33033753  1
  Sr  Sr20  1  0.49666057  0.87452782  0.16990148  1
  Sr  Sr21  1  0.16583195  0.62472631  0.49475313  1
  La  La22  1  0.49665608  0.87427980  0.49932929  1
  La  La23  1  0.84064572  0.12563259  0.16791461  1
  La  La24  1  0.67078237  0.62517482  0.99607299  1
  La  La25  1  0.65706885  0.87701335  0.00177486  1
  La  La26  1  0.00591968  0.12580457  0.33105558  1
  La  La27  1  0.50285762  0.62652602  0.16987478  1
  La  La28  1  0.33372041  0.12614734  0.33218013  1
  La  La29  1  0.16391673  0.12458843  0.16537907  1
  Pr  Pr30  1  0.82901239  0.37182050  0.83380115  1
  Pr  Pr31  1  0.16516675  0.87470569  0.49149633  1
  Pr  Pr32  1  0.01124099  0.62346284  0.33200134  1
  Pr  Pr33  1  0.50037644  0.37576954  0.49778100  1
  Pr  Pr34  1  0.83999629  0.62713504  0.83500170  1
  Pr  Pr35  1  0.00496600  0.62412409  0.66382804  1
  Pr  Pr36  1  -0.00577509  0.37693849  0.67024986  1
  Pr  Pr37  1  0.50238727  0.12304459  0.17220079  1
  Pr  Pr38  1  0.66023089  0.87528966  0.33303175  1
  Pr  Pr39  1  0.16235238  0.87425946  0.83072332  1
  Pr  Pr40  1  0.82535328  0.87794023  0.83351704  1
  Pr  Pr41  1  0.67174855  0.12541107  0.99692168  1
  Pr  Pr42  1  0.33180862  0.87091034  0.33855824  1
  Pr  Pr43  1  0.84225265  0.12395603  0.50282710  1
  Pr  Pr44  1  0.84444428  0.62450511  0.17078668  1
  Pr  Pr45  1  0.49650413  0.37757676  0.83465760  1
  Pr  Pr46  1  0.67357146  0.62619546  0.33072108  1
  Pr  Pr47  1  0.49896288  0.37581208  0.16866636  1
  Pr  Pr48  1  0.33763040  0.37476425  0.66560607  1
  Pr  Pr49  1  0.49535502  0.62284982  0.50505032  1
  Pr  Pr50  1  0.66035073  0.37312907  0.00305215  1
  Pr  Pr51  1  0.33005540  0.12804853  0.66179955  1
  Pr  Pr52  1  0.33731012  0.37412446  0.00307927  1
  Pr  Pr53  1  0.16809755  0.12607164  0.49630892  1
  Pr  Pr54  1  0.66172976  0.87460047  0.66752952  1
  Pr  Pr55  1  0.16822002  0.62984480  0.83439304  1
  Pr  Pr56  1  0.82755407  0.87560518  0.16202941  1
  Pr  Pr57  1  0.33512734  0.87446936  0.00043547  1
  Pr  Pr58  1  0.66584153  0.37475033  0.33473040  1
  Pr  Pr59  1  0.00856943  0.12427414  0.66845918  1
  Pr  Pr60  1  0.32803532  0.62207033  0.66338151  1
  Pr  Pr61  1  0.17114447  0.37871421  0.15996206  1
  Pr  Pr62  1  0.83821366  0.12306242  0.83513736  1
  Pr  Pr63  1  0.00880516  0.62443328  1.00162898  1
  Pr  Pr64  1  0.82797638  0.37672693  0.49571307  1
  Pr  Pr65  1  0.33044761  0.12337383  0.99831060  1
  Pr  Pr66  1  0.66096394  0.37612441  0.66629797  1
  Pr  Pr67  1  0.82152533  0.87246377  0.49727686  1
  Pr  Pr68  1  0.67011888  0.12362677  0.33103692  1
  Pr  Pr69  1  0.49358374  0.87298361  0.83175996  1
  Pr  Pr70  1  0.67047113  0.12609357  0.66129721  1
  Pr  Pr71  1  0.16719525  0.12042417  0.83298084  1
  Mn  Mn72  1  -0.00137152  -0.00160704  0.16741564  1
  Mn  Mn73  1  -0.00044715  -0.00011131  0.50107114  1
  Mn  Mn74  1  -0.00177299  -0.00190387  0.83424567  1
  Mn  Mn75  1  0.00301537  0.49988105  0.16659363  1
  Mn  Mn76  1  -0.00049185  0.50076601  0.50161494  1
  Mn  Mn77  1  -0.00241464  0.50110845  0.83288127  1
  Mn  Mn78  1  0.33654349  -0.00005375  0.16613940  1
  Mn  Mn79  1  0.33468734  0.00144872  0.49962497  1
  Mn  Mn80  1  0.33173200  0.00085535  0.83273714  1
  Mn  Mn81  1  0.33645108  0.50000961  0.16646782  1
  Mn  Mn82  1  0.33253831  0.50182993  0.49873472  1
  Mn  Mn83  1  0.33228579  0.49823581  0.83152569  1
  Mn  Mn84  1  0.66572062  0.00036372  0.16582982  1
  Mn  Mn85  1  0.66514593  0.00198388  0.49992820  1
  Mn  Mn86  1  0.66533833  0.00122931  0.83209734  1
  Mn  Mn87  1  0.66703879  0.50134179  0.16542178  1
  Mn  Mn88  1  0.66510746  0.49927578  0.49903583  1
  Mn  Mn89  1  0.66951301  0.49811448  0.83442185  1
  Mn  Mn90  1  0.00212707  0.24983982  0.16702396  1
  Mn  Mn91  1  -0.00129906  0.24758416  0.50247143  1
  Mn  Mn92  1  -0.00189903  0.25019016  0.83189767  1
  Mn  Mn93  1  -0.00103786  0.75192616  0.16700436  1
  Mn  Mn94  1  -0.00070741  0.75064062  0.50096162  1
  Mn  Mn95  1  -0.00221775  0.75067187  0.83569057  1
  Mn  Mn96  1  0.33624589  0.24748464  0.16435050  1
  Mn  Mn97  1  0.33512691  0.24925381  0.49916321  1
  Mn  Mn98  1  0.33236638  0.24990643  0.83240030  1
  Mn  Mn99  1  0.33750835  0.75229822  0.16840196  1
  Mn  Mn100  1  0.33179455  0.74792090  0.50038664  1
  Mn  Mn101  1  0.33168244  0.75169419  0.83158529  1
  Mn  Mn102  1  0.66549347  0.24763821  0.16644549  1
  Mn  Mn103  1  0.66731668  0.24820710  0.49930867  1
  Mn  Mn104  1  0.66634575  0.24979786  0.83193821  1
  Mn  Mn105  1  0.66708870  0.75072964  0.16472366  1
  Mn  Mn106  1  0.66275263  0.75097407  0.49895040  1
  Mn  Mn107  1  0.66859811  0.75128185  0.83450333  1
  Mn  Mn108  1  0.17062471  0.24880676  -0.00281287  1
  Mn  Mn109  1  0.16876275  0.24916243  0.33045377  1
  Mn  Mn110  1  0.16575595  0.25052950  0.66362147  1
  Mn  Mn111  1  0.16664500  0.75201798  -0.00241036  1
  Mn  Mn112  1  0.16916795  0.74970883  0.33302895  1
  Mn  Mn113  1  0.16527275  0.74980943  0.66446524  1
  Mn  Mn114  1  0.50039513  0.24809849  0.00357292  1
  Mn  Mn115  1  0.50257500  0.24729291  0.33626798  1
  Mn  Mn116  1  0.50057885  0.24959284  0.66859384  1
  Mn  Mn117  1  0.50068197  0.75256211  0.00279240  1
  Mn  Mn118  1  0.50222746  0.75007508  0.33537730  1
  Mn  Mn119  1  0.49772986  0.75028934  0.66681303  1
  Mn  Mn120  1  0.83085139  0.24897057  -0.00127131  1
  Mn  Mn121  1  0.83126729  0.24829972  0.33601489  1
  Mn  Mn122  1  0.83295026  0.24937916  0.66572381  1
  Mn  Mn123  1  0.83273334  0.74986069  0.00143906  1
  Mn  Mn124  1  0.83285901  0.75087649  0.33216575  1
  Mn  Mn125  1  0.83170455  0.75136915  0.66839644  1
  Mn  Mn126  1  0.16755356  -0.00089537  -0.00153230  1
  Mn  Mn127  1  0.16996356  0.00145602  0.33229834  1
  Mn  Mn128  1  0.16584929  -0.00017923  0.66433876  1
  Mn  Mn129  1  0.16946692  0.49994793  -0.00373252  1
  Mn  Mn130  1  0.16891666  0.49966502  0.33105202  1
  Mn  Mn131  1  0.16506716  0.49961899  0.66312853  1
  Mn  Mn132  1  0.49926847  0.00125018  0.00317614  1
  Mn  Mn133  1  0.50006404  0.00091756  0.33645793  1
  Mn  Mn134  1  0.50018549  0.00140154  0.66813857  1
  Mn  Mn135  1  0.50187491  0.49916816  0.00211524  1
  Mn  Mn136  1  0.50424612  0.50122275  0.33511102  1
  Mn  Mn137  1  0.49763686  0.49926380  0.66706001  1
  Mn  Mn138  1  0.83156320  -0.00107284  -0.00062935  1
  Mn  Mn139  1  0.83081953  -0.00030965  0.33475759  1
  Mn  Mn140  1  0.83147743  0.00117544  0.66665431  1
  Mn  Mn141  1  0.83275994  0.50226477  0.00006864  1
  Mn  Mn142  1  0.83377778  0.50114694  0.33412485  1
  Mn  Mn143  1  0.83227086  0.49777179  0.66820597  1
  O  O144  1  0.17550735  0.12358842  0.02012059  1
  O  O145  1  0.17031247  0.12410109  0.35023541  1
  O  O146  1  0.17130444  0.12609508  0.68945660  1
  O  O147  1  0.16238088  0.62621400  0.00735363  1
  O  O148  1  0.16400446  0.62694257  0.34232136  1
  O  O149  1  0.16776705  0.62315236  0.69026915  1
  O  O150  1  0.49788848  0.12463034  0.02815737  1
  O  O151  1  0.50257713  0.12425723  0.35778128  1
  O  O152  1  0.50346434  0.12697023  0.68053351  1
  O  O153  1  0.50665529  0.62306495  0.02311465  1
  O  O154  1  0.50957852  0.62958120  0.36127183  1
  O  O155  1  0.49282452  0.62240129  0.67871183  1
  O  O156  1  0.82151574  0.12347385  0.02078451  1
  O  O157  1  0.82117170  0.12213448  0.36026101  1
  O  O158  1  0.82118483  0.12623010  0.69364287  1
  O  O159  1  0.82025520  0.62859082  0.02562644  1
  O  O160  1  0.82398153  0.62698152  0.34642578  1
  O  O161  1  0.83380886  0.62222506  0.69092223  1
  O  O162  1  0.16795207  0.37042304  0.30857836  1
  O  O163  1  0.15701209  0.37369515  0.65195894  1
  O  O164  1  0.17768235  0.37309521  0.98762671  1
  O  O165  1  0.17680055  0.87784498  0.32655712  1
  O  O166  1  0.16484863  0.87685429  0.63760846  1
  O  O167  1  0.17268777  0.87625591  0.97462621  1
  O  O168  1  0.50951063  0.36928611  0.31082278  1
  O  O169  1  0.49861909  0.37385473  0.64256935  1
  O  O170  1  0.50527835  0.37155497  0.97885243  1
  O  O171  1  0.50200437  0.87670371  0.31645205  1
  O  O172  1  0.50545575  0.87728640  0.64455821  1
  O  O173  1  0.50314315  0.88054892  0.97589989  1
  O  O174  1  0.82636508  0.37483475  0.32144076  1
  O  O175  1  0.84306448  0.37002361  0.63808975  1
  O  O176  1  0.82724116  0.37309949  0.97915029  1
  O  O177  1  0.82563573  0.87609442  0.30660886  1
  O  O178  1  0.82767674  0.88128513  0.64056541  1
  O  O179  1  0.83608419  0.87403678  0.97756877  1
  O  O180  1  0.00804640  0.37225034  0.17545713  1
  O  O181  1  -0.00359472  0.36892105  0.52589355  1
  O  O182  1  -0.00673046  0.37507042  0.84395931  1
  O  O183  1  -0.01221844  0.87623155  0.17734267  1
  O  O184  1  0.01194113  0.87812215  0.51234965  1
  O  O185  1  0.00564849  0.87403252  0.85270747  1
  O  O186  1  0.33056425  0.37130640  0.17672342  1
  O  O187  1  0.33971294  0.37510966  0.52075117  1
  O  O188  1  0.33568661  0.37232232  0.85747910  1
  O  O189  1  0.33784802  0.88055113  0.19458944  1
  O  O190  1  0.32835232  0.87567991  0.50915239  1
  O  O191  1  0.32974288  0.87849213  0.85458527  1
  O  O192  1  0.66155328  0.37190113  0.19182779  1
  O  O193  1  0.66972155  0.37067792  0.52176569  1
  O  O194  1  0.67120050  0.37387716  0.86011607  1
  O  O195  1  0.67415007  0.87655203  0.19061884  1
  O  O196  1  0.66839093  0.87942483  0.52263213  1
  O  O197  1  0.67420505  0.87792463  0.85833878  1
  O  O198  1  0.00042656  0.12292488  0.15950680  1
  O  O199  1  -0.00957519  0.12152570  0.47638250  1
  O  O200  1  -0.00694503  0.12461146  0.81300476  1
  O  O201  1  -0.00339459  0.62777261  0.14823935  1
  O  O202  1  -0.00310202  0.62999363  0.47697544  1
  O  O203  1  -0.00730572  0.62643132  0.80790636  1
  O  O204  1  0.34614070  0.12393760  0.14056067  1
  O  O205  1  0.33496618  0.12423217  0.47802847  1
  O  O206  1  0.32870328  0.12551060  0.80557317  1
  O  O207  1  0.34623467  0.62366967  0.15679706  1
  O  O208  1  0.34391992  0.62553286  0.48170886  1
  O  O209  1  0.32855368  0.62450138  0.80878239  1
  O  O210  1  0.65762129  0.12352533  0.14010843  1
  O  O211  1  0.66432030  0.12507254  0.47458152  1
  O  O212  1  0.66877364  0.12461208  0.80418975  1
  O  O213  1  0.66013646  0.62841112  0.13992107  1
  O  O214  1  0.65709035  0.62602634  0.47637339  1
  O  O215  1  0.67319020  0.62421637  0.82242256  1
  O  O216  1  0.08708599  0.01581092  0.25178573  1
  O  O217  1  0.08649820  0.02725128  0.58207777  1
  O  O218  1  0.09129276  0.01276281  0.90758528  1
  O  O219  1  0.08288871  0.51264367  0.24944847  1
  O  O220  1  0.08333466  0.52096571  0.58105873  1
  O  O221  1  0.08235800  0.51997410  0.91010264  1
  O  O222  1  0.42058763  0.02380160  0.25174462  1
  O  O223  1  0.41515651  0.01682747  0.58408869  1
  O  O224  1  0.41078367  0.01363890  0.92461738  1
  O  O225  1  0.42826996  0.51062529  0.24792575  1
  O  O226  1  0.40953851  0.51550208  0.58974673  1
  O  O227  1  0.42137839  0.50253953  0.91742364  1
  O  O228  1  0.75240610  0.02365108  0.24291761  1
  O  O229  1  0.75481825  0.02365531  0.57603152  1
  O  O230  1  0.75355651  0.02066306  0.90836129  1
  O  O231  1  0.75264139  0.52143585  0.24146723  1
  O  O232  1  0.75007164  0.50155770  0.58220262  1
  O  O233  1  0.76138068  0.51639099  0.90780237  1
  O  O234  1  0.25157953  0.22575938  0.24046773  1
  O  O235  1  0.24875455  0.22935269  0.57815621  1
  O  O236  1  0.24845505  0.22466133  0.91045614  1
  O  O237  1  0.26133700  0.74427890  0.25684756  1
  O  O238  1  0.25148807  0.72814191  0.58552413  1
  O  O239  1  0.24526668  0.73866754  0.90799711  1
  O  O240  1  0.58687915  0.22392291  0.25352075  1
  O  O241  1  0.59278055  0.23642419  0.58858661  1
  O  O242  1  0.58960113  0.23350315  0.92950998  1
  O  O243  1  0.59516144  0.73362773  0.25785041  1
  O  O244  1  0.57684153  0.73898754  0.57757422  1
  O  O245  1  0.59443035  0.74131165  0.92572930  1
  O  O246  1  0.91603995  0.22845170  0.26135562  1
  O  O247  1  0.92197812  0.22143256  0.59409139  1
  O  O248  1  0.91094499  0.23640677  0.91201628  1
  O  O249  1  0.92172709  0.72770512  0.25833703  1
  O  O250  1  0.92102006  0.73579257  0.59593087  1
  O  O251  1  0.92248701  0.72501368  0.92992135  1
  O  O252  1  0.09000013  0.48884877  0.08299030  1
  O  O253  1  0.08020858  0.49686255  0.41256761  1
  O  O254  1  0.07061497  0.49072798  0.74017581  1
  O  O255  1  0.08471914  0.99083145  0.07827244  1
  O  O256  1  0.09173436  0.99484792  0.42055317  1
  O  O257  1  0.08086644  0.99274957  0.74772230  1
  O  O258  1  0.41886392  0.47668482  0.08317408  1
  O  O259  1  0.42700983  0.48822839  0.42723965  1
  O  O260  1  0.41686144  0.47460140  0.75115744  1
  O  O261  1  0.41620807  0.97719282  0.08327601  1
  O  O262  1  0.41552364  0.97953036  0.41524546  1
  O  O263  1  0.41798505  0.98433187  0.75751075  1
  O  O264  1  0.73727392  0.48555884  0.07129804  1
  O  O265  1  0.74425890  0.48367049  0.41133729  1
  O  O266  1  0.74658649  0.47119088  0.74482623  1
  O  O267  1  0.74411365  0.97947942  0.07497141  1
  O  O268  1  0.74077448  0.97660035  0.40976529  1
  O  O269  1  0.74204843  0.97852789  0.74195085  1
  O  O270  1  0.26149220  0.26062823  0.07395157  1
  O  O271  1  0.25336058  0.25283528  0.41142424  1
  O  O272  1  0.25646202  0.26558851  0.73700765  1
  O  O273  1  0.25260666  0.76590545  0.07578890  1
  O  O274  1  0.24950261  0.76450852  0.42017910  1
  O  O275  1  0.24339377  0.76554260  0.75225726  1
  O  O276  1  0.57894342  0.27146292  0.09104261  1
  O  O277  1  0.58438383  0.27231089  0.41981026  1
  O  O278  1  0.58148878  0.27570074  0.75463647  1
  O  O279  1  0.57994262  0.77051670  0.09065947  1
  O  O280  1  0.58064978  0.77771189  0.41944992  1
  O  O281  1  0.58206292  0.77188262  0.75518699  1
  O  O282  1  0.91222670  0.25111532  0.08765235  1
  O  O283  1  0.90544519  0.26018120  0.43390595  1
  O  O284  1  0.90789561  0.26827753  0.75266539  1
  O  O285  1  0.90188546  0.76136099  0.09532929  1
  O  O286  1  0.90623393  0.77088922  0.42782284  1
  O  O287  1  0.90404506  0.76683307  0.76841146  1
  O  O288  1  0.25493534  0.48372964  0.07963151  1
  O  O289  1  0.25334990  0.49588044  0.41462578  1
  O  O290  1  0.25649749  0.48423278  0.73729448  1
  O  O291  1  0.25744145  0.98689607  0.07557742  1
  O  O292  1  0.25430201  0.98836866  0.41371322  1
  O  O293  1  0.24005592  0.98430378  0.75540548  1
  O  O294  1  0.57799959  0.47694993  0.09194601  1
  O  O295  1  0.58508482  0.47378182  0.41554658  1
  O  O296  1  0.58135821  0.47780785  0.75231844  1
  O  O297  1  0.58060117  0.98138368  0.08921334  1
  O  O298  1  0.57953964  0.97817261  0.42244407  1
  O  O299  1  0.58094416  0.97491320  0.75677097  1
  O  O300  1  0.91331971  0.49870648  0.08630165  1
  O  O301  1  0.90945064  0.48350514  0.42948291  1
  O  O302  1  0.90530355  0.47944598  0.75935531  1
  O  O303  1  0.90377802  0.99014878  0.09130600  1
  O  O304  1  0.90244459  0.98428275  0.42980783  1
  O  O305  1  0.90304363  0.98689668  0.75967260  1
  O  O306  1  0.09903681  0.25858046  0.08746740  1
  O  O307  1  0.07924418  0.24941172  0.41698863  1
  O  O308  1  0.07132458  0.25727518  0.73914780  1
  O  O309  1  0.07452394  0.75966230  0.07560216  1
  O  O310  1  0.08790895  0.76094837  0.41909353  1
  O  O311  1  0.08491985  0.76149869  0.75263369  1
  O  O312  1  0.42186827  0.27372023  0.08739326  1
  O  O313  1  0.42457859  0.26406363  0.42447524  1
  O  O314  1  0.41781772  0.27357188  0.75569675  1
  O  O315  1  0.41420989  0.77155900  0.08131682  1
  O  O316  1  0.41616402  0.76960813  0.41554135  1
  O  O317  1  0.41771012  0.76715223  0.75378846  1
  O  O318  1  0.73791785  0.26180200  0.07337801  1
  O  O319  1  0.74305108  0.26941063  0.41178318  1
  O  O320  1  0.74533907  0.27645677  0.73854089  1
  O  O321  1  0.74180012  0.77476622  0.07425647  1
  O  O322  1  0.74075676  0.76917093  0.40739106  1
  O  O323  1  0.74477714  0.77464241  0.74634977  1
  O  O324  1  0.25356405  0.02490167  0.24633910  1
  O  O325  1  0.25052961  0.02421756  0.58136900  1
  O  O326  1  0.25050068  0.02391368  0.91450122  1
  O  O327  1  0.25334205  0.50588362  0.24608510  1
  O  O328  1  0.25067527  0.51721985  0.58143217  1
  O  O329  1  0.24603378  0.51612556  0.90594832  1
  O  O330  1  0.58764999  0.01875265  0.25775809  1
  O  O331  1  0.59387262  0.01699515  0.58995710  1
  O  O332  1  0.59101889  0.01679912  0.92605009  1
  O  O333  1  0.59137990  0.52335901  0.25380436  1
  O  O334  1  0.57432035  0.50870188  0.57669247  1
  O  O335  1  0.59387566  0.50953030  0.92820292  1
  O  O336  1  0.91604438  0.02166695  0.26085543  1
  O  O337  1  0.91910750  0.02484251  0.59432127  1
  O  O338  1  0.91320059  0.01285329  0.91826725  1
  O  O339  1  0.92072632  0.52058522  0.25738932  1
  O  O340  1  0.92557117  0.51278455  0.59955696  1
  O  O341  1  0.92026944  0.52606745  0.92230256  1
  O  O342  1  0.08599041  0.22836523  0.25040691  1
  O  O343  1  0.08534038  0.22141358  0.57915885  1
  O  O344  1  0.08785434  0.23406455  0.90864539  1
  O  O345  1  0.08231645  0.74134571  0.25234121  1
  O  O346  1  0.08275853  0.72885517  0.58515166  1
  O  O347  1  0.08387681  0.73066661  0.91174233  1
  O  O348  1  0.41962447  0.22905044  0.25133378  1
  O  O349  1  0.41059250  0.23574197  0.59185830  1
  O  O350  1  0.41124910  0.23650420  0.92819046  1
  O  O351  1  0.43048804  0.73337067  0.24888316  1
  O  O352  1  0.41457548  0.73344457  0.58104068  1
  O  O353  1  0.41756704  0.74944300  0.91601672  1
  O  O354  1  0.74964122  0.22486735  0.24355484  1
  O  O355  1  0.75623201  0.22787134  0.57617548  1
  O  O356  1  0.75237763  0.22689547  0.90777826  1
  O  O357  1  0.75666704  0.73081979  0.23678095  1
  O  O358  1  0.74693039  0.74587224  0.57773106  1
  O  O359  1  0.76062388  0.73465734  0.90881383  1
