# generated using pymatgen
data_Ba17Sr5La8Pr42Mn72O216
_symmetry_space_group_name_H-M   'P 1'
_cell_length_a   16.66880394
_cell_length_b   15.70425011
_cell_length_c   16.82025455
_cell_angle_alpha   90.01238227
_cell_angle_beta   90.01241076
_cell_angle_gamma   89.99329647
_symmetry_Int_Tables_number   1
_chemical_formula_structural   Ba17Sr5La8Pr42Mn72O216
_chemical_formula_sum   'Ba17 Sr5 La8 Pr42 Mn72 O216'
_cell_volume   4403.05572688
_cell_formula_units_Z   1
loop_
 _symmetry_equiv_pos_site_id
 _symmetry_equiv_pos_as_xyz
  1  'x, y, z'
loop_
 _atom_site_type_symbol
 _atom_site_label
 _atom_site_symmetry_multiplicity
 _atom_site_fract_x
 _atom_site_fract_y
 _atom_site_fract_z
 _atom_site_occupancy
  Ba  Ba0  1  0.49790392  0.12462122  0.16655110  1
  Ba  Ba1  1  -0.00088123  0.12578148  0.33434322  1
  Ba  Ba2  1  0.33580116  0.62495906  0.99838554  1
  Ba  Ba3  1  0.66341623  0.37438567  0.33469673  1
  Ba  Ba4  1  0.66370433  0.12411209  0.33411273  1
  Ba  Ba5  1  0.16486145  0.12742180  0.83261639  1
  Ba  Ba6  1  0.16374522  0.12683495  0.50229102  1
  Ba  Ba7  1  0.50018786  0.12355219  0.83193514  1
  Ba  Ba8  1  0.66641829  0.37571520  0.00161385  1
  Ba  Ba9  1  -0.00047100  0.87587029  0.00200199  1
  Ba  Ba10  1  0.33201395  0.87349660  0.66505448  1
  Ba  Ba11  1  0.49793026  0.37325822  0.16488033  1
  Ba  Ba12  1  0.67063695  0.62392906  0.99850716  1
  Ba  Ba13  1  0.83776358  0.62403341  0.83475435  1
  Ba  Ba14  1  0.16354659  0.87576593  0.16697215  1
  Ba  Ba15  1  -0.00217373  0.87439248  0.33465980  1
  Ba  Ba16  1  0.66929304  0.87551480  0.66622175  1
  Sr  Sr17  1  0.33302568  0.37348228  0.00207890  1
  Sr  Sr18  1  0.83587370  0.62336536  0.50213406  1
  Sr  Sr19  1  -0.00113144  0.12776548  0.66202875  1
  Sr  Sr20  1  0.16454889  0.12491101  0.16959498  1
  Sr  Sr21  1  0.66635627  0.12145365  0.66323646  1
  La  La22  1  0.67440408  0.62618718  0.66562088  1
  La  La23  1  0.34016719  0.62490896  0.66526580  1
  La  La24  1  0.66638905  0.87460476  -0.00315594  1
  La  La25  1  0.83083795  0.37013490  0.16670984  1
  La  La26  1  0.83242047  0.12504422  0.16905808  1
  La  La27  1  0.33342053  0.12387875  0.66255879  1
  La  La28  1  0.33043863  0.12541778  0.33013272  1
  La  La29  1  0.16933585  0.37735830  0.83435548  1
  Pr  Pr30  1  0.16870777  0.87460504  0.83266616  1
  Pr  Pr31  1  0.82879698  0.87515780  0.49722527  1
  Pr  Pr32  1  0.49551793  0.37402532  0.49348577  1
  Pr  Pr33  1  0.83874514  0.62208389  0.16560516  1
  Pr  Pr34  1  0.00377939  0.62196826  0.32920791  1
  Pr  Pr35  1  0.66021221  0.12915131  0.99810186  1
  Pr  Pr36  1  0.83082912  0.12431860  0.83356719  1
  Pr  Pr37  1  0.83321871  0.37807711  0.83284052  1
  Pr  Pr38  1  0.50912115  0.62166070  0.16624290  1
  Pr  Pr39  1  0.49958184  0.37885210  0.83359428  1
  Pr  Pr40  1  0.16973552  0.62785840  0.50173015  1
  Pr  Pr41  1  0.50772861  0.62513883  0.50064823  1
  Pr  Pr42  1  -0.00007566  0.37368776  0.00082559  1
  Pr  Pr43  1  0.32853160  0.12870240  1.00114953  1
  Pr  Pr44  1  -0.00252023  0.37196513  0.33363041  1
  Pr  Pr45  1  0.16400552  0.37541250  0.16471984  1
  Pr  Pr46  1  0.00393405  0.62018180  0.66461750  1
  Pr  Pr47  1  0.49778429  0.87608469  0.16548363  1
  Pr  Pr48  1  0.33227279  0.88064806  -0.00075300  1
  Pr  Pr49  1  0.67558635  0.62574188  0.32871967  1
  Pr  Pr50  1  0.83142681  0.87824759  0.16635421  1
  Pr  Pr51  1  0.50809201  0.62930678  0.83670955  1
  Pr  Pr52  1  0.00300207  0.87663372  0.66928217  1
  Pr  Pr53  1  0.49924526  0.87132966  0.82780781  1
  Pr  Pr54  1  0.16519444  0.87785623  0.49432189  1
  Pr  Pr55  1  -0.00080832  0.37290636  0.66835359  1
  Pr  Pr56  1  -0.00291890  0.12220414  0.99963930  1
  Pr  Pr57  1  0.66815161  0.37215024  0.66983547  1
  Pr  Pr58  1  0.66075873  0.87575706  0.33707121  1
  Pr  Pr59  1  0.50026901  0.12573623  0.50403566  1
  Pr  Pr60  1  0.32773756  0.87905941  0.33663260  1
  Pr  Pr61  1  0.17237251  0.62788895  0.16649180  1
  Pr  Pr62  1  0.33260753  0.37205576  0.66908393  1
  Pr  Pr63  1  0.32977042  0.37399667  0.33351578  1
  Pr  Pr64  1  0.83428973  0.37429891  0.49796450  1
  Pr  Pr65  1  0.15999244  0.37573191  0.49728195  1
  Pr  Pr66  1  0.83130479  0.12514600  0.50399765  1
  Pr  Pr67  1  0.83620783  0.87135063  0.82946553  1
  Pr  Pr68  1  0.00546757  0.62671941  0.99592299  1
  Pr  Pr69  1  0.34130041  0.62826061  0.32638630  1
  Pr  Pr70  1  0.17201643  0.62659183  0.83675686  1
  Pr  Pr71  1  0.49823133  0.87692268  0.49858067  1
  Mn  Mn72  1  -0.00170115  0.00108245  0.16707910  1
  Mn  Mn73  1  -0.00267428  -0.00057468  0.50425922  1
  Mn  Mn74  1  -0.00001694  0.00136487  0.83261919  1
  Mn  Mn75  1  0.00023465  0.49999108  0.16508789  1
  Mn  Mn76  1  0.00028959  0.50064786  0.49805659  1
  Mn  Mn77  1  0.00305635  0.49776792  0.83328782  1
  Mn  Mn78  1  0.33148686  -0.00096251  0.16747677  1
  Mn  Mn79  1  0.33278569  -0.00022937  0.49922332  1
  Mn  Mn80  1  0.33231330  0.00090387  0.83378475  1
  Mn  Mn81  1  0.33290945  0.50231478  0.16669124  1
  Mn  Mn82  1  0.33345195  0.50226603  0.49940210  1
  Mn  Mn83  1  0.33578309  0.49821077  0.83124196  1
  Mn  Mn84  1  0.66636874  -0.00328018  0.16598285  1
  Mn  Mn85  1  0.66573752  -0.00077845  0.49989985  1
  Mn  Mn86  1  0.66883863  0.00198032  0.83375538  1
  Mn  Mn87  1  0.66887720  0.50103977  0.16719898  1
  Mn  Mn88  1  0.66594736  0.50043820  0.50178708  1
  Mn  Mn89  1  0.66762873  0.49706003  0.83159002  1
  Mn  Mn90  1  -0.00004244  0.25151828  0.16626078  1
  Mn  Mn91  1  -0.00265876  0.25196718  0.50144302  1
  Mn  Mn92  1  -0.00120926  0.24929450  0.83369623  1
  Mn  Mn93  1  -0.00195979  0.74757920  0.16621496  1
  Mn  Mn94  1  -0.00102642  0.74728009  0.50196512  1
  Mn  Mn95  1  0.00290456  0.75017805  0.83248510  1
  Mn  Mn96  1  0.32975561  0.25097154  0.16671052  1
  Mn  Mn97  1  0.33273222  0.25302132  0.50017262  1
  Mn  Mn98  1  0.33419038  0.25150373  0.83396386  1
  Mn  Mn99  1  0.33520064  0.75114481  0.16561299  1
  Mn  Mn100  1  0.33390297  0.74724339  0.49765013  1
  Mn  Mn101  1  0.33416063  0.74936950  0.83200911  1
  Mn  Mn102  1  0.66615828  0.24850720  0.16651480  1
  Mn  Mn103  1  0.66499928  0.25045678  0.50469899  1
  Mn  Mn104  1  0.66675704  0.25008875  0.83242279  1
  Mn  Mn105  1  0.66842192  0.75135556  0.16748785  1
  Mn  Mn106  1  0.66700903  0.74816795  0.49787448  1
  Mn  Mn107  1  0.67053795  0.75158930  0.83268794  1
  Mn  Mn108  1  0.16525792  0.25109368  0.00222809  1
  Mn  Mn109  1  0.16577769  0.25236585  0.33228223  1
  Mn  Mn110  1  0.16724379  0.25313516  0.66705156  1
  Mn  Mn111  1  0.16839503  0.75038833  -0.00044642  1
  Mn  Mn112  1  0.16646450  0.74739947  0.33607705  1
  Mn  Mn113  1  0.16655070  0.74679433  0.66681778  1
  Mn  Mn114  1  0.49751333  0.24902445  -0.00178687  1
  Mn  Mn115  1  0.49637065  0.25026406  0.33425604  1
  Mn  Mn116  1  0.50061207  0.25162095  0.66446738  1
  Mn  Mn117  1  0.50016801  0.75348984  -0.00091917  1
  Mn  Mn118  1  0.49962132  0.74967285  0.33259892  1
  Mn  Mn119  1  0.50204614  0.74775158  0.66606121  1
  Mn  Mn120  1  0.83434115  0.24809430  -0.00023653  1
  Mn  Mn121  1  0.83159866  0.25038102  0.33475743  1
  Mn  Mn122  1  0.83257911  0.25118212  0.66777258  1
  Mn  Mn123  1  0.83443492  0.75129918  0.00048787  1
  Mn  Mn124  1  0.83353763  0.74770169  0.33353722  1
  Mn  Mn125  1  0.83797556  0.74821458  0.66402458  1
  Mn  Mn126  1  0.16585760  0.00321109  0.00017230  1
  Mn  Mn127  1  0.16477708  0.00124505  0.33303927  1
  Mn  Mn128  1  0.16589839  -0.00097445  0.66680072  1
  Mn  Mn129  1  0.16684614  0.49931629  -0.00026050  1
  Mn  Mn130  1  0.16721541  0.50081677  0.33364539  1
  Mn  Mn131  1  0.16904463  0.50014726  0.66594701  1
  Mn  Mn132  1  0.49956857  -0.00124500  -0.00104077  1
  Mn  Mn133  1  0.49701776  -0.00155320  0.33339307  1
  Mn  Mn134  1  0.49994796  -0.00091091  0.66655554  1
  Mn  Mn135  1  0.49892635  0.50126293  -0.00059033  1
  Mn  Mn136  1  0.49874291  0.50153467  0.33493083  1
  Mn  Mn137  1  0.50182610  0.49960146  0.66438201  1
  Mn  Mn138  1  0.83147587  0.00146611  -0.00061345  1
  Mn  Mn139  1  0.83111464  -0.00085519  0.33370040  1
  Mn  Mn140  1  0.83605102  0.00003602  0.66706649  1
  Mn  Mn141  1  0.83772720  0.49794488  0.00104429  1
  Mn  Mn142  1  0.83410234  0.50025490  0.33475491  1
  Mn  Mn143  1  0.83453701  0.49951371  0.66497431  1
  O  O144  1  0.17610767  0.13007200  0.01894191  1
  O  O145  1  0.17259657  0.12983572  0.34500746  1
  O  O146  1  0.16977702  0.13169555  0.67604335  1
  O  O147  1  0.16315223  0.62189912  0.02001674  1
  O  O148  1  0.15874363  0.62238201  0.35974431  1
  O  O149  1  0.16006510  0.62132200  0.69500373  1
  O  O150  1  0.50594004  0.12015165  0.01004333  1
  O  O151  1  0.48877166  0.12490552  0.35751180  1
  O  O152  1  0.49274283  0.12558855  0.67531950  1
  O  O153  1  0.50162999  0.63176065  0.02013018  1
  O  O154  1  0.49367447  0.62862917  0.35893968  1
  O  O155  1  0.49659459  0.62093400  0.69354573  1
  O  O156  1  0.84090212  0.12546496  0.02520960  1
  O  O157  1  0.83167067  0.12587151  0.35862316  1
  O  O158  1  0.83404522  0.12993868  0.68880525  1
  O  O159  1  0.84474796  0.62073826  0.02006622  1
  O  O160  1  0.83161148  0.62298462  0.35435363  1
  O  O161  1  0.83358099  0.62235580  0.67908078  1
  O  O162  1  0.16995033  0.37949796  0.30865271  1
  O  O163  1  0.17458523  0.37940882  0.63978077  1
  O  O164  1  0.15779087  0.37615460  0.97838781  1
  O  O165  1  0.17344728  0.87077587  0.32623848  1
  O  O166  1  0.16119269  0.86564154  0.63813364  1
  O  O167  1  0.16949666  0.87505276  0.97786870  1
  O  O168  1  0.49260085  0.37826945  0.32331731  1
  O  O169  1  0.50183050  0.37835681  0.63557866  1
  O  O170  1  0.49455791  0.37365326  0.98019527  1
  O  O171  1  0.50234053  0.86832636  0.30888158  1
  O  O172  1  0.50100993  0.87198794  0.64271879  1
  O  O173  1  0.49701964  0.87687167  0.97160004  1
  O  O174  1  0.83904427  0.37858147  0.31145885  1
  O  O175  1  0.83455222  0.37739187  0.64157791  1
  O  O176  1  0.84081214  0.37072616  0.97690177  1
  O  O177  1  0.82716996  0.87031798  0.31094839  1
  O  O178  1  0.84490927  0.87016846  0.64101636  1
  O  O179  1  0.82958309  0.88240181  0.97313667  1
  O  O180  1  0.00544829  0.38126980  0.19178213  1
  O  O181  1  -0.00193834  0.37844300  0.52299204  1
  O  O182  1  -0.00067488  0.37380440  0.85789348  1
  O  O183  1  -0.00736563  0.87089959  0.17715044  1
  O  O184  1  -0.00216449  0.87013186  0.52436170  1
  O  O185  1  -0.00028183  0.87627149  0.84705102  1
  O  O186  1  0.32654099  0.38061850  0.18979467  1
  O  O187  1  0.34122081  0.38225015  0.52731528  1
  O  O188  1  0.34232838  0.37580054  0.85185644  1
  O  O189  1  0.34015543  0.87120740  0.19280480  1
  O  O190  1  0.33020613  0.87201583  0.50974809  1
  O  O191  1  0.33427840  0.87577145  0.85421593  1
  O  O192  1  0.67529435  0.37859966  0.17637964  1
  O  O193  1  0.65708917  0.37763017  0.52577513  1
  O  O194  1  0.66725937  0.37343865  0.84492718  1
  O  O195  1  0.67236290  0.87136277  0.19424879  1
  O  O196  1  0.66621526  0.87277879  0.50967735  1
  O  O197  1  0.67328769  0.88002987  0.85179833  1
  O  O198  1  -0.00693532  0.12979955  0.14631537  1
  O  O199  1  -0.00725537  0.13003192  0.49142200  1
  O  O200  1  -0.00728857  0.12639150  0.81046580  1
  O  O201  1  -0.00989718  0.61914251  0.13917108  1
  O  O202  1  0.00330770  0.62169674  0.47232912  1
  O  O203  1  0.00860065  0.62189703  0.80772878  1
  O  O204  1  0.32689048  0.12278437  0.14792189  1
  O  O205  1  0.33998793  0.12449991  0.47639644  1
  O  O206  1  0.33205319  0.12711530  0.80629702  1
  O  O207  1  0.32692148  0.62758574  0.15429366  1
  O  O208  1  0.33100196  0.62341743  0.46975975  1
  O  O209  1  0.32798037  0.62148723  0.80886195  1
  O  O210  1  0.67234003  0.11811671  0.14359337  1
  O  O211  1  0.67096421  0.12295855  0.49041185  1
  O  O212  1  0.67363815  0.12680131  0.81220923  1
  O  O213  1  0.66229993  0.62908403  0.15527618  1
  O  O214  1  0.66151406  0.62509753  0.47238379  1
  O  O215  1  0.66117067  0.62049736  0.81110305  1
  O  O216  1  0.08271650  0.00905427  0.24990038  1
  O  O217  1  0.07705794  0.00499025  0.59047258  1
  O  O218  1  0.07602181  0.01847825  0.92048643  1
  O  O219  1  0.08607260  0.52572666  0.23890528  1
  O  O220  1  0.08842082  0.51912785  0.57508363  1
  O  O221  1  0.08898282  0.52100381  0.91093565  1
  O  O222  1  0.40825911  0.01041795  0.25811029  1
  O  O223  1  0.41548094  0.01599304  0.57928843  1
  O  O224  1  0.40617150  0.01477456  0.92677898  1
  O  O225  1  0.42170332  0.52455498  0.24708098  1
  O  O226  1  0.42225390  0.52652942  0.57626725  1
  O  O227  1  0.42523213  0.51689529  0.90202532  1
  O  O228  1  0.75421220  0.01251581  0.24295869  1
  O  O229  1  0.75437801  0.01105583  0.57991624  1
  O  O230  1  0.74971102  0.02858767  0.92053907  1
  O  O231  1  0.75306750  0.52069757  0.24998897  1
  O  O232  1  0.74689063  0.51585582  0.58409529  1
  O  O233  1  0.75837863  0.50191975  0.91244215  1
  O  O234  1  0.25187162  0.23977121  0.25564772  1
  O  O235  1  0.25972704  0.24040412  0.59035459  1
  O  O236  1  0.24956701  0.24306042  0.92280552  1
  O  O237  1  0.25131641  0.72951719  0.25724867  1
  O  O238  1  0.25177634  0.72220102  0.58884787  1
  O  O239  1  0.24854244  0.73761806  0.91230253  1
  O  O240  1  0.57954295  0.24230454  0.25307416  1
  O  O241  1  0.58116702  0.23025516  0.58321291  1
  O  O242  1  0.58443674  0.23920742  0.91629865  1
  O  O243  1  0.58877892  0.72969160  0.26083138  1
  O  O244  1  0.58774785  0.72497148  0.58579158  1
  O  O245  1  0.58484262  0.74271953  0.91711209  1
  O  O246  1  0.91278705  0.24259171  0.24104242  1
  O  O247  1  0.90564120  0.23932709  0.57760900  1
  O  O248  1  0.91139269  0.22768736  0.91321071  1
  O  O249  1  0.92155395  0.72428157  0.25693378  1
  O  O250  1  0.92610803  0.72461832  0.58977703  1
  O  O251  1  0.92768713  0.73548541  0.92220324  1
  O  O252  1  0.07565163  0.48012570  0.08014213  1
  O  O253  1  0.07774980  0.47500040  0.41036811  1
  O  O254  1  0.08036785  0.47315669  0.74669433  1
  O  O255  1  0.08112199  1.00218752  0.08151672  1
  O  O256  1  0.08472304  0.98675033  0.42573552  1
  O  O257  1  0.08666116  0.97763272  0.75299364  1
  O  O258  1  0.41039262  0.49253813  0.08162975  1
  O  O259  1  0.40717490  0.48196543  0.41128286  1
  O  O260  1  0.41586665  0.47690561  0.74120991  1
  O  O261  1  0.41821539  0.97822047  0.08759126  1
  O  O262  1  0.41652852  0.97468858  0.41758364  1
  O  O263  1  0.42030692  0.98225440  0.75646373  1
  O  O264  1  0.75926350  0.49353479  0.08948245  1
  O  O265  1  0.74991930  0.48286540  0.42413944  1
  O  O266  1  0.74868374  0.47868326  0.74646569  1
  O  O267  1  0.74694910  0.97580797  0.08069632  1
  O  O268  1  0.74543439  0.97751958  0.41313023  1
  O  O269  1  0.76233879  0.98557259  0.75822168  1
  O  O270  1  0.24374795  0.27241693  0.08798537  1
  O  O271  1  0.24686614  0.27690736  0.42135327  1
  O  O272  1  0.25019350  0.27506997  0.75230210  1
  O  O273  1  0.25084601  0.76530766  0.07908518  1
  O  O274  1  0.24512952  0.76267286  0.42248261  1
  O  O275  1  0.24239079  0.76270572  0.75512345  1
  O  O276  1  0.58512144  0.25199529  0.07933901  1
  O  O277  1  0.57299415  0.25884064  0.42610948  1
  O  O278  1  0.58280755  0.27227463  0.74521322  1
  O  O279  1  0.57852681  0.77331840  0.08951525  1
  O  O280  1  0.57209159  0.77051354  0.42039978  1
  O  O281  1  0.57974957  0.76231714  0.75515936  1
  O  O282  1  0.92200002  0.27145655  0.07850595  1
  O  O283  1  0.91732862  0.27383834  0.41508931  1
  O  O284  1  0.91789573  0.27565320  0.74598754  1
  O  O285  1  0.90353628  0.76169833  0.09480042  1
  O  O286  1  0.90505270  0.76440054  0.42618540  1
  O  O287  1  0.91924007  0.76771874  0.75127509  1
  O  O288  1  0.23933826  0.48696505  0.09236729  1
  O  O289  1  0.24559577  0.47657628  0.42688360  1
  O  O290  1  0.25279693  0.47695027  0.75059302  1
  O  O291  1  0.25755086  0.98413860  0.07826053  1
  O  O292  1  0.25147146  0.98539287  0.41651414  1
  O  O293  1  0.24630763  0.98240884  0.75440537  1
  O  O294  1  0.58105321  0.49720951  0.08915568  1
  O  O295  1  0.57070485  0.48890520  0.42907804  1
  O  O296  1  0.58152404  0.47513431  0.74665710  1
  O  O297  1  0.58328995  0.97279781  0.08428161  1
  O  O298  1  0.57892988  0.98010240  0.41652938  1
  O  O299  1  0.58323448  0.98489568  0.75488898  1
  O  O300  1  0.91666961  0.47201952  0.09033399  1
  O  O301  1  0.91647821  0.47777009  0.41857081  1
  O  O302  1  0.91706438  0.47801477  0.75400782  1
  O  O303  1  0.90739174  0.98828627  0.08769940  1
  O  O304  1  0.90657521  0.98492172  0.42623931  1
  O  O305  1  0.92069032  0.97811489  0.74808862  1
  O  O306  1  0.08331561  0.27234443  0.08630754  1
  O  O307  1  0.08206761  0.27368345  0.41590446  1
  O  O308  1  0.08583772  0.27500846  0.75250075  1
  O  O309  1  0.08054123  0.74902020  0.08205766  1
  O  O310  1  0.08593359  0.76373150  0.42485775  1
  O  O311  1  0.08341678  0.77217546  0.74777748  1
  O  O312  1  0.40863654  0.25394864  0.07837092  1
  O  O313  1  0.40942023  0.27326540  0.41557978  1
  O  O314  1  0.41879147  0.27360848  0.74449776  1
  O  O315  1  0.41631890  0.77680696  0.07698448  1
  O  O316  1  0.41222638  0.77061183  0.40450360  1
  O  O317  1  0.41876882  0.76073655  0.74955004  1
  O  O318  1  0.76000371  0.25850094  0.08751679  1
  O  O319  1  0.75377694  0.26673948  0.43033472  1
  O  O320  1  0.75627544  0.27380115  0.75401394  1
  O  O321  1  0.74564895  0.77223607  0.08058917  1
  O  O322  1  0.74088389  0.76522921  0.40601566  1
  O  O323  1  0.75658473  0.76238665  0.74901209  1
  O  O324  1  0.25131232  0.01114645  0.25177409  1
  O  O325  1  0.25307735  0.01253821  0.58510258  1
  O  O326  1  0.25065067  0.01230599  0.91805434  1
  O  O327  1  0.25502478  0.52417267  0.25787748  1
  O  O328  1  0.25683038  0.52828697  0.58473051  1
  O  O329  1  0.24844102  0.50883357  0.91034480  1
  O  O330  1  0.58115071  0.00165324  0.24916409  1
  O  O331  1  0.57843689  0.01224463  0.57638960  1
  O  O332  1  0.59199185  0.01042857  0.92269223  1
  O  O333  1  0.58660030  0.52211149  0.25809196  1
  O  O334  1  0.58733964  0.52896420  0.58855228  1
  O  O335  1  0.58132055  0.51088405  0.90866087  1
  O  O336  1  0.91111900  0.01175025  0.24882803  1
  O  O337  1  0.91285823  0.01954468  0.58317056  1
  O  O338  1  0.91278627  0.02258099  0.91467103  1
  O  O339  1  0.92364420  0.52068488  0.25011180  1
  O  O340  1  0.92547597  0.51546413  0.58748882  1
  O  O341  1  0.93048391  0.51103956  0.92643381  1
  O  O342  1  0.08316316  0.24651452  0.24909377  1
  O  O343  1  0.07856251  0.25106903  0.58792237  1
  O  O344  1  0.07369498  0.23442650  0.92892570  1
  O  O345  1  0.08503962  0.72533199  0.24957048  1
  O  O346  1  0.08623042  0.71986987  0.58493182  1
  O  O347  1  0.08917752  0.72928798  0.91177955  1
  O  O348  1  0.40847482  0.23909218  0.25627916  1
  O  O349  1  0.41929532  0.23327670  0.57810293  1
  O  O350  1  0.41121773  0.23144884  0.91905648  1
  O  O351  1  0.42791036  0.72699917  0.24471233  1
  O  O352  1  0.42207049  0.72861918  0.57597103  1
  O  O353  1  0.42495221  0.73659739  0.90729517  1
  O  O354  1  0.75275483  0.23730815  0.24962905  1
  O  O355  1  0.74524751  0.23929653  0.59181852  1
  O  O356  1  0.75061028  0.22718180  0.92151386  1
  O  O357  1  0.75875921  0.72603558  0.24410139  1
  O  O358  1  0.75453852  0.73507745  0.57887484  1
  O  O359  1  0.75616672  0.74544831  0.91477759  1
