# generated using pymatgen
data_Ba17Sr5La8Pr42Mn72O216
_symmetry_space_group_name_H-M   'P 1'
_cell_length_a   16.67129932
_cell_length_b   15.70264506
_cell_length_c   16.81495149
_cell_angle_alpha   90.00259646
_cell_angle_beta   90.00046271
_cell_angle_gamma   89.97249300
_symmetry_Int_Tables_number   1
_chemical_formula_structural   Ba17Sr5La8Pr42Mn72O216
_chemical_formula_sum   'Ba17 Sr5 La8 Pr42 Mn72 O216'
_cell_volume   4401.87627156
_cell_formula_units_Z   1
loop_
 _symmetry_equiv_pos_site_id
 _symmetry_equiv_pos_as_xyz
  1  'x, y, z'
loop_
 _atom_site_type_symbol
 _atom_site_label
 _atom_site_symmetry_multiplicity
 _atom_site_fract_x
 _atom_site_fract_y
 _atom_site_fract_z
 _atom_site_occupancy
  Ba  Ba0  1  0.66400098  0.37417195  0.33424768  1
  Ba  Ba1  1  0.83385300  0.62495678  0.83665847  1
  Ba  Ba2  1  0.50203343  0.87575080  0.82788327  1
  Ba  Ba3  1  0.66508532  0.37640221  0.00112605  1
  Ba  Ba4  1  0.66611888  0.12493464  0.33136436  1
  Ba  Ba5  1  0.00085149  0.87349833  0.00550981  1
  Ba  Ba6  1  0.16516428  0.37438106  0.16511547  1
  Ba  Ba7  1  0.49621663  0.37489468  0.49517135  1
  Ba  Ba8  1  0.49995382  0.37435637  0.16318085  1
  Ba  Ba9  1  0.83356660  0.62465523  0.50630979  1
  Ba  Ba10  1  0.83571957  0.87416959  0.17084154  1
  Ba  Ba11  1  0.33317286  0.62535248  0.99386851  1
  Ba  Ba12  1  0.16565487  0.37396881  0.83164016  1
  Ba  Ba13  1  0.66726557  0.87616990  0.33483457  1
  Ba  Ba14  1  0.49862724  0.87425120  0.49528713  1
  Ba  Ba15  1  0.66658200  0.12596152  0.99934486  1
  Ba  Ba16  1  0.16779452  0.12640611  0.16914640  1
  Sr  Sr17  1  0.50225360  0.12613906  0.16362320  1
  Sr  Sr18  1  0.00055981  0.87397651  0.67300674  1
  Sr  Sr19  1  0.00301862  0.87553479  0.33818328  1
  Sr  Sr20  1  0.66889610  0.62404643  0.99951372  1
  Sr  Sr21  1  0.33317814  0.62622325  0.66204348  1
  La  La22  1  0.00006765  0.12377277  0.33340485  1
  La  La23  1  0.33203539  0.37580445  0.66526636  1
  La  La24  1  0.83200794  0.37517592  0.50016869  1
  La  La25  1  0.83329339  0.12418406  0.17035911  1
  La  La26  1  0.83638774  0.12527325  0.84067046  1
  La  La27  1  0.33298028  0.87487823  0.66537111  1
  La  La28  1  0.66984704  0.87107825  0.00373500  1
  La  La29  1  0.50545915  0.62396764  0.16069119  1
  Pr  Pr30  1  0.16647047  0.87452264  0.50016170  1
  Pr  Pr31  1  0.16609200  0.62721369  0.83461049  1
  Pr  Pr32  1  0.33655866  0.62512040  0.32619599  1
  Pr  Pr33  1  0.49953307  0.37681599  0.82797490  1
  Pr  Pr34  1  0.16524458  0.12135638  0.83794396  1
  Pr  Pr35  1  0.66351442  0.62737171  0.66570189  1
  Pr  Pr36  1  0.65933369  0.12496971  0.66488095  1
  Pr  Pr37  1  0.33486319  0.87546741  -0.00039182  1
  Pr  Pr38  1  0.50622950  0.62690266  0.83537117  1
  Pr  Pr39  1  0.82868170  0.12362851  0.50510601  1
  Pr  Pr40  1  0.33271168  0.37611250  -0.00004942  1
  Pr  Pr41  1  -0.00579142  0.37641093  0.67385340  1
  Pr  Pr42  1  0.16814471  0.87310339  0.83178686  1
  Pr  Pr43  1  0.82881300  0.37593257  0.83735650  1
  Pr  Pr44  1  0.67226258  0.87348655  0.66822086  1
  Pr  Pr45  1  -0.00098577  0.62460588  0.33514520  1
  Pr  Pr46  1  0.83359232  0.87560435  0.83776643  1
  Pr  Pr47  1  0.83790491  0.87423488  0.49599619  1
  Pr  Pr48  1  0.50333434  0.87848916  0.16019353  1
  Pr  Pr49  1  0.16567014  0.12169266  0.50003346  1
  Pr  Pr50  1  0.33056940  0.37243793  0.33146004  1
  Pr  Pr51  1  0.33792359  0.12481173  0.32515378  1
  Pr  Pr52  1  0.49446397  0.12378873  0.83475046  1
  Pr  Pr53  1  0.50526934  0.62476157  0.49712240  1
  Pr  Pr54  1  0.66679777  0.62474999  0.33301695  1
  Pr  Pr55  1  -0.00089188  0.12597300  0.66812198  1
  Pr  Pr56  1  0.33246722  0.12899838  0.99740678  1
  Pr  Pr57  1  0.16601654  0.62605780  0.16980712  1
  Pr  Pr58  1  0.33110983  0.87761176  0.33164436  1
  Pr  Pr59  1  0.00258651  0.37278875  0.33818161  1
  Pr  Pr60  1  0.16587158  0.37640656  0.49848221  1
  Pr  Pr61  1  0.33265117  0.12377553  0.66136571  1
  Pr  Pr62  1  0.82890222  0.37321254  0.16813913  1
  Pr  Pr63  1  0.00161247  0.12340759  1.00442200  1
  Pr  Pr64  1  0.50283369  0.12460823  0.49363271  1
  Pr  Pr65  1  -0.00315311  0.37643611  0.00580119  1
  Pr  Pr66  1  0.66348858  0.37901403  0.67004401  1
  Pr  Pr67  1  0.16767955  0.87563959  0.16432166  1
  Pr  Pr68  1  0.00168270  0.62540836  1.00253352  1
  Pr  Pr69  1  0.16604095  0.62808225  0.50431059  1
  Pr  Pr70  1  0.00142326  0.62371876  0.66659683  1
  Pr  Pr71  1  0.83155804  0.62517359  0.17103974  1
  Mn  Mn72  1  0.00165887  -0.00011096  0.17097483  1
  Mn  Mn73  1  0.00017105  0.00103194  0.50419920  1
  Mn  Mn74  1  0.00041499  -0.00085585  0.83537540  1
  Mn  Mn75  1  -0.00085798  0.50014780  0.16949607  1
  Mn  Mn76  1  0.00177276  0.49908067  0.50390451  1
  Mn  Mn77  1  0.00007796  0.50024364  0.83623469  1
  Mn  Mn78  1  0.33490792  -0.00143472  0.16423403  1
  Mn  Mn79  1  0.33132944  0.00132362  0.49622007  1
  Mn  Mn80  1  0.33169082  -0.00026834  0.83011410  1
  Mn  Mn81  1  0.33255028  0.50190128  0.16303112  1
  Mn  Mn82  1  0.33045468  0.50235491  0.49626480  1
  Mn  Mn83  1  0.33323931  0.50065421  0.82800574  1
  Mn  Mn84  1  0.66700168  -0.00043963  0.16571574  1
  Mn  Mn85  1  0.66713556  0.00159225  0.50271728  1
  Mn  Mn86  1  0.66932145  0.00112734  0.83132631  1
  Mn  Mn87  1  0.66761937  0.50191968  0.16668198  1
  Mn  Mn88  1  0.66664078  0.49986535  0.50143559  1
  Mn  Mn89  1  0.66637861  0.49951733  0.83369415  1
  Mn  Mn90  1  -0.00133429  0.25098702  0.16989365  1
  Mn  Mn91  1  0.00059235  0.24883978  0.50402667  1
  Mn  Mn92  1  -0.00075149  0.24960551  0.83584994  1
  Mn  Mn93  1  0.00177960  0.74752769  0.17124283  1
  Mn  Mn94  1  0.00129352  0.75135053  0.50399132  1
  Mn  Mn95  1  0.00053440  0.75051813  0.83565587  1
  Mn  Mn96  1  0.33416987  0.25013488  0.16315069  1
  Mn  Mn97  1  0.32996142  0.24747660  0.49711471  1
  Mn  Mn98  1  0.33322141  0.24997949  0.82911038  1
  Mn  Mn99  1  0.33402428  0.74957704  0.16396709  1
  Mn  Mn100  1  0.33156646  0.74920195  0.49545802  1
  Mn  Mn101  1  0.33323932  0.74972464  0.82841125  1
  Mn  Mn102  1  0.66644218  0.24971395  0.16634531  1
  Mn  Mn103  1  0.66618747  0.24857069  0.50234717  1
  Mn  Mn104  1  0.66648206  0.25021716  0.82977104  1
  Mn  Mn105  1  0.66686289  0.74854592  0.16679527  1
  Mn  Mn106  1  0.66716555  0.74990232  0.50130746  1
  Mn  Mn107  1  0.66920285  0.75176524  0.83404587  1
  Mn  Mn108  1  0.16546341  0.24956635  -0.00188479  1
  Mn  Mn109  1  0.16699980  0.25092351  0.33619281  1
  Mn  Mn110  1  0.16574437  0.24781665  0.66528257  1
  Mn  Mn111  1  0.16750869  0.74985648  0.00050251  1
  Mn  Mn112  1  0.16667654  0.74956646  0.33520773  1
  Mn  Mn113  1  0.16645108  0.75092727  0.66743510  1
  Mn  Mn114  1  0.49808417  0.24787375  -0.00486890  1
  Mn  Mn115  1  0.49748123  0.24964037  0.32962554  1
  Mn  Mn116  1  0.49881557  0.24897330  0.66385826  1
  Mn  Mn117  1  0.50075386  0.75095762  -0.00346104  1
  Mn  Mn118  1  0.49805734  0.74834470  0.32902070  1
  Mn  Mn119  1  0.49877265  0.74922755  0.66309298  1
  Mn  Mn120  1  0.83552849  0.25048025  0.00293270  1
  Mn  Mn121  1  0.83605936  0.25110270  0.33667197  1
  Mn  Mn122  1  0.83232393  0.24925345  0.67093396  1
  Mn  Mn123  1  0.83461315  0.74830966  0.00296031  1
  Mn  Mn124  1  0.83538869  0.74912632  0.33782507  1
  Mn  Mn125  1  0.83498406  0.75250777  0.66981150  1
  Mn  Mn126  1  0.16808884  -0.00008944  0.00035559  1
  Mn  Mn127  1  0.16661738  -0.00145731  0.33505018  1
  Mn  Mn128  1  0.16492234  0.00130954  0.66812956  1
  Mn  Mn129  1  0.16603455  0.50002712  -0.00110233  1
  Mn  Mn130  1  0.16675644  0.50075814  0.33554748  1
  Mn  Mn131  1  0.16665106  0.49992717  0.66525111  1
  Mn  Mn132  1  0.49985501  0.00028658  -0.00359980  1
  Mn  Mn133  1  0.49843263  -0.00065723  0.32829710  1
  Mn  Mn134  1  0.49917503  0.00072173  0.66325430  1
  Mn  Mn135  1  0.49959360  0.50154525  -0.00489115  1
  Mn  Mn136  1  0.49694637  0.50197291  0.33079551  1
  Mn  Mn137  1  0.49798191  0.50197901  0.66383252  1
  Mn  Mn138  1  0.83458662  0.00071818  0.00247312  1
  Mn  Mn139  1  0.83663945  0.00003482  0.33784662  1
  Mn  Mn140  1  0.83412444  0.00011546  0.67048417  1
  Mn  Mn141  1  0.83503957  0.49982511  0.00390908  1
  Mn  Mn142  1  0.83480933  0.50015391  0.33608359  1
  Mn  Mn143  1  0.83246200  0.49912064  0.67042982  1
  O  O144  1  0.17048588  0.12365473  0.01265734  1
  O  O145  1  0.16986667  0.12832567  0.35678462  1
  O  O146  1  0.17100975  0.12446669  0.69467142  1
  O  O147  1  0.16320573  0.62476124  0.02368946  1
  O  O148  1  0.16828738  0.62484440  0.36188592  1
  O  O149  1  0.16489971  0.62632983  0.69096808  1
  O  O150  1  0.48834910  0.12213559  0.01270293  1
  O  O151  1  0.48806341  0.12455629  0.34806523  1
  O  O152  1  0.49574149  0.12568429  0.69116407  1
  O  O153  1  0.49908765  0.62976152  0.01460217  1
  O  O154  1  0.48992025  0.62570753  0.35318188  1
  O  O155  1  0.50229405  0.62439815  0.69124960  1
  O  O156  1  0.83969991  0.12751379  0.02232833  1
  O  O157  1  0.84261059  0.12659410  0.36039464  1
  O  O158  1  0.83967310  0.12601717  0.69841856  1
  O  O159  1  0.83768616  0.62100214  0.02367638  1
  O  O160  1  0.83302429  0.62280747  0.35099632  1
  O  O161  1  0.83413204  0.62656448  0.68112532  1
  O  O162  1  0.16225398  0.37654557  0.32045349  1
  O  O163  1  0.16344388  0.37096018  0.64172120  1
  O  O164  1  0.16148448  0.37414813  0.98676719  1
  O  O165  1  0.16593835  0.86982030  0.30755252  1
  O  O166  1  0.16431792  0.87858420  0.64270534  1
  O  O167  1  0.17015600  0.87636977  0.97631600  1
  O  O168  1  0.48917093  0.37719474  0.32111935  1
  O  O169  1  0.50292625  0.37480718  0.65052043  1
  O  O170  1  0.49240350  0.37211539  0.97223274  1
  O  O171  1  0.49179673  0.87128849  0.30671574  1
  O  O172  1  0.50028645  0.87616052  0.65094454  1
  O  O173  1  0.50289289  0.87525351  0.98398924  1
  O  O174  1  0.84422281  0.37687577  0.31271180  1
  O  O175  1  0.84016100  0.37056000  0.64375993  1
  O  O176  1  0.84454847  0.37412360  0.98124709  1
  O  O177  1  0.83869305  0.87466784  0.32927856  1
  O  O178  1  0.83004438  0.87852068  0.64055525  1
  O  O179  1  0.83172785  0.87675293  0.98333637  1
  O  O180  1  -0.00538997  0.37673282  0.19478261  1
  O  O181  1  0.00746263  0.37152783  0.53136206  1
  O  O182  1  -0.00353958  0.37236096  0.86101407  1
  O  O183  1  0.00956183  0.87040647  0.18688925  1
  O  O184  1  0.00300860  0.87872152  0.52376813  1
  O  O185  1  0.00636896  0.87560410  0.85019456  1
  O  O186  1  0.33361523  0.37993670  0.18591423  1
  O  O187  1  0.32818125  0.37201386  0.52356623  1
  O  O188  1  0.34132940  0.37201096  0.85485940  1
  O  O189  1  0.33299482  0.87194203  0.18929881  1
  O  O190  1  0.32890766  0.87718267  0.52304704  1
  O  O191  1  0.32732586  0.87681248  0.85445009  1
  O  O192  1  0.67250514  0.37786119  0.17681493  1
  O  O193  1  0.66772185  0.37111718  0.52482011  1
  O  O194  1  0.65662801  0.37373828  0.84455592  1
  O  O195  1  0.65866810  0.87211633  0.17632403  1
  O  O196  1  0.66998556  0.87759428  0.52359779  1
  O  O197  1  0.67099747  0.87886150  0.85754210  1
  O  O198  1  -0.00453776  0.12950413  0.14985372  1
  O  O199  1  -0.00310073  0.12725459  0.47646793  1
  O  O200  1  -0.00315032  0.12508023  0.81117444  1
  O  O201  1  0.00471059  0.62175558  0.14682556  1
  O  O202  1  0.00654272  0.62272040  0.47968911  1
  O  O203  1  0.00454659  0.62670312  0.80928629  1
  O  O204  1  0.33410159  0.12011665  0.14154050  1
  O  O205  1  0.32157159  0.12349424  0.46873523  1
  O  O206  1  0.33204630  0.12478374  0.80501786  1
  O  O207  1  0.32335175  0.62697672  0.14936576  1
  O  O208  1  0.31864861  0.62752433  0.46974606  1
  O  O209  1  0.32485203  0.62673803  0.81107314  1
  O  O210  1  0.67492509  0.12368197  0.15873034  1
  O  O211  1  0.67321374  0.12556898  0.48911673  1
  O  O212  1  0.67999298  0.12664057  0.80778322  1
  O  O213  1  0.67399729  0.62578068  0.14973880  1
  O  O214  1  0.66657136  0.62526962  0.48081786  1
  O  O215  1  0.66431534  0.62337096  0.80929074  1
  O  O216  1  0.08044778  0.01531719  0.26092377  1
  O  O217  1  0.08111712  0.02706626  0.58843980  1
  O  O218  1  0.08223080  0.02210863  0.91922991  1
  O  O219  1  0.08403596  0.52326012  0.25334584  1
  O  O220  1  0.08641442  0.52370276  0.58209960  1
  O  O221  1  0.08688184  0.52405378  0.91319511  1
  O  O222  1  0.41537445  0.01565024  0.24486872  1
  O  O223  1  0.41333770  0.02573566  0.57426966  1
  O  O224  1  0.41178209  0.01842314  0.91315801  1
  O  O225  1  0.41942062  0.52443131  0.24055330  1
  O  O226  1  0.41777456  0.52173867  0.57262778  1
  O  O227  1  0.42533704  0.51517212  0.89869796  1
  O  O228  1  0.75792643  0.01093890  0.25089127  1
  O  O229  1  0.74765676  0.02334077  0.59531589  1
  O  O230  1  0.75865787  0.01385800  0.90993061  1
  O  O231  1  0.74967967  0.51850490  0.25283237  1
  O  O232  1  0.74381466  0.50822854  0.59354129  1
  O  O233  1  0.75372076  0.50331458  0.91736306  1
  O  O234  1  0.25635192  0.24041591  0.25893840  1
  O  O235  1  0.24914994  0.22399844  0.57904560  1
  O  O236  1  0.25084597  0.23008042  0.91012906  1
  O  O237  1  0.24743746  0.73059381  0.24986943  1
  O  O238  1  0.24472341  0.73678712  0.57773675  1
  O  O239  1  0.24202498  0.73933707  0.90566526  1
  O  O240  1  0.58115998  0.24207785  0.24783423  1
  O  O241  1  0.57853219  0.22411924  0.58232289  1
  O  O242  1  0.57462011  0.23259354  0.90203053  1
  O  O243  1  0.58365892  0.72379390  0.24926477  1
  O  O244  1  0.58118279  0.72672071  0.58024727  1
  O  O245  1  0.58457329  0.73312844  0.91244654  1
  O  O246  1  0.91845660  0.22915842  0.25491904  1
  O  O247  1  0.91710134  0.22733902  0.58874931  1
  O  O248  1  0.92419777  0.22791413  0.92544313  1
  O  O249  1  0.91901164  0.72673064  0.25330279  1
  O  O250  1  0.92109317  0.73890647  0.59091707  1
  O  O251  1  0.92156210  0.73601410  0.92251396  1
  O  O252  1  0.07295540  0.48756252  0.07798318  1
  O  O253  1  0.08155214  0.47894102  0.41940390  1
  O  O254  1  0.07343413  0.48576397  0.74212109  1
  O  O255  1  0.09081622  0.98758231  0.09132409  1
  O  O256  1  0.08872836  0.98775902  0.42802554  1
  O  O257  1  0.08744628  0.98815339  0.75703612  1
  O  O258  1  0.41151142  0.48643527  0.07022099  1
  O  O259  1  0.40329017  0.49061164  0.40317222  1
  O  O260  1  0.41374147  0.47905389  0.74196380  1
  O  O261  1  0.41535620  0.97517339  0.08138085  1
  O  O262  1  0.40702227  0.98688687  0.40537922  1
  O  O263  1  0.40918958  0.98845847  0.74019114  1
  O  O264  1  0.75805856  0.48822132  0.09140561  1
  O  O265  1  0.75530321  0.48179664  0.42364887  1
  O  O266  1  0.74810726  0.47612355  0.75202231  1
  O  O267  1  0.74682073  0.98566377  0.07755893  1
  O  O268  1  0.76007675  0.98948659  0.43108367  1
  O  O269  1  0.75462492  0.97291941  0.75229462  1
  O  O270  1  0.25417691  0.26288057  0.07561570  1
  O  O271  1  0.24541858  0.27504403  0.42055211  1
  O  O272  1  0.25830699  0.26655587  0.74026009  1
  O  O273  1  0.25297515  0.77501309  0.07983493  1
  O  O274  1  0.24864381  0.77803052  0.41443980  1
  O  O275  1  0.25001632  0.77545776  0.74498688  1
  O  O276  1  0.57928854  0.25269633  0.07626181  1
  O  O277  1  0.57527145  0.25016800  0.41738243  1
  O  O278  1  0.58750011  0.26298372  0.74031930  1
  O  O279  1  0.57983951  0.76346245  0.08540439  1
  O  O280  1  0.58254309  0.75117599  0.41338273  1
  O  O281  1  0.59485556  0.76209646  0.74188277  1
  O  O282  1  0.91415559  0.27277943  0.09075437  1
  O  O283  1  0.92085459  0.27569300  0.42106601  1
  O  O284  1  0.91122966  0.27243458  0.75867026  1
  O  O285  1  0.91908131  0.75003769  0.08858867  1
  O  O286  1  0.92161578  0.76353563  0.42253329  1
  O  O287  1  0.91603825  0.77027451  0.75555925  1
  O  O288  1  0.25051732  0.48441987  0.07785562  1
  O  O289  1  0.24682994  0.47472311  0.41739623  1
  O  O290  1  0.25310132  0.48152733  0.74152339  1
  O  O291  1  0.25368321  0.97536931  0.08089424  1
  O  O292  1  0.24646984  0.97440935  0.41816275  1
  O  O293  1  0.24805799  0.97701832  0.74883730  1
  O  O294  1  0.58150410  0.50044066  0.08483233  1
  O  O295  1  0.58000852  0.50015745  0.41655860  1
  O  O296  1  0.58089718  0.48410476  0.74873749  1
  O  O297  1  0.58283236  0.98451966  0.07797256  1
  O  O298  1  0.57766898  0.99775865  0.41560828  1
  O  O299  1  0.59584011  0.99138088  0.73971075  1
  O  O300  1  0.91475331  0.47807065  0.09180511  1
  O  O301  1  0.92120662  0.47795398  0.42216035  1
  O  O302  1  0.91212207  0.47784763  0.75888618  1
  O  O303  1  0.91833526  0.99693345  0.08676954  1
  O  O304  1  0.92008873  0.98348487  0.42289142  1
  O  O305  1  0.91486753  0.98069391  0.75566257  1
  O  O306  1  0.07245273  0.25976934  0.07696126  1
  O  O307  1  0.08349486  0.26929481  0.42246239  1
  O  O308  1  0.07134548  0.26163832  0.74300353  1
  O  O309  1  0.09429586  0.75948600  0.09685017  1
  O  O310  1  0.08995467  0.76640666  0.42586161  1
  O  O311  1  0.09017749  0.76534969  0.75827917  1
  O  O312  1  0.40947615  0.26396949  0.06886465  1
  O  O313  1  0.40342876  0.25972071  0.40656045  1
  O  O314  1  0.42038089  0.27029418  0.74943077  1
  O  O315  1  0.41629892  0.77182851  0.07873051  1
  O  O316  1  0.40649276  0.76331379  0.40296155  1
  O  O317  1  0.41030523  0.76380903  0.73845751  1
  O  O318  1  0.75619306  0.26206015  0.08650697  1
  O  O319  1  0.75954708  0.26377446  0.42643098  1
  O  O320  1  0.74941115  0.27851761  0.74827019  1
  O  O321  1  0.74630803  0.76230076  0.08219595  1
  O  O322  1  0.75555729  0.76525108  0.42779655  1
  O  O323  1  0.75517356  0.77593828  0.75520661  1
  O  O324  1  0.25592962  0.00956909  0.25369929  1
  O  O325  1  0.24860479  0.02118422  0.58247894  1
  O  O326  1  0.24985798  0.02023821  0.91269873  1
  O  O327  1  0.25069960  0.51987707  0.25386938  1
  O  O328  1  0.24702804  0.51669785  0.57764288  1
  O  O329  1  0.24921129  0.51002183  0.90849497  1
  O  O330  1  0.57745500  0.00594421  0.24350936  1
  O  O331  1  0.57952576  0.02469869  0.57977735  1
  O  O332  1  0.57945861  0.02024273  0.90371137  1
  O  O333  1  0.58445295  0.52344542  0.25215390  1
  O  O334  1  0.58288623  0.52325750  0.58550268  1
  O  O335  1  0.58383330  0.51952952  0.91268392  1
  O  O336  1  0.91828280  0.01983881  0.25549132  1
  O  O337  1  0.91411759  0.02463527  0.58606596  1
  O  O338  1  0.91931909  0.01983645  0.92009549  1
  O  O339  1  0.91847838  0.52485183  0.25269195  1
  O  O340  1  0.92635138  0.51020090  0.59442700  1
  O  O341  1  0.92805018  0.51434142  0.93007812  1
  O  O342  1  0.07820910  0.23881302  0.25982697  1
  O  O343  1  0.08332746  0.21969410  0.58218750  1
  O  O344  1  0.08517684  0.22557842  0.91193271  1
  O  O345  1  0.08281201  0.72125289  0.25778249  1
  O  O346  1  0.08205727  0.72768728  0.58896672  1
  O  O347  1  0.08220845  0.72704040  0.92158717  1
  O  O348  1  0.41529647  0.23270853  0.24462216  1
  O  O349  1  0.41307201  0.22498043  0.57893839  1
  O  O350  1  0.41310544  0.22459324  0.91075799  1
  O  O351  1  0.41837745  0.72638536  0.24137746  1
  O  O352  1  0.41649190  0.72833916  0.57051929  1
  O  O353  1  0.41996324  0.73717168  0.90486412  1
  O  O354  1  0.76018920  0.24230137  0.25006862  1
  O  O355  1  0.75153155  0.22725683  0.59185511  1
  O  O356  1  0.76008037  0.24321741  0.90985326  1
  O  O357  1  0.74984999  0.73119477  0.25346383  1
  O  O358  1  0.74107133  0.73903061  0.59717017  1
  O  O359  1  0.74868341  0.74368390  0.91996715  1
