# generated using pymatgen
data_Ba17Sr5La8Pr42Mn72O216
_symmetry_space_group_name_H-M   'P 1'
_cell_length_a   16.66980263
_cell_length_b   15.69954230
_cell_length_c   16.81667909
_cell_angle_alpha   90.00605442
_cell_angle_beta   89.97992565
_cell_angle_gamma   90.00920004
_symmetry_Int_Tables_number   1
_chemical_formula_structural   Ba17Sr5La8Pr42Mn72O216
_chemical_formula_sum   'Ba17 Sr5 La8 Pr42 Mn72 O216'
_cell_volume   4401.06366361
_cell_formula_units_Z   1
loop_
 _symmetry_equiv_pos_site_id
 _symmetry_equiv_pos_as_xyz
  1  'x, y, z'
loop_
 _atom_site_type_symbol
 _atom_site_label
 _atom_site_symmetry_multiplicity
 _atom_site_fract_x
 _atom_site_fract_y
 _atom_site_fract_z
 _atom_site_occupancy
  Ba  Ba0  1  0.49944305  0.37579825  0.83034754  1
  Ba  Ba1  1  0.50187826  0.62366439  0.82978398  1
  Ba  Ba2  1  0.66527694  0.12442273  0.33140572  1
  Ba  Ba3  1  0.16908164  0.62450949  0.16941054  1
  Ba  Ba4  1  0.00203411  0.62425217  1.00597103  1
  Ba  Ba5  1  0.16650003  0.12659057  0.50178838  1
  Ba  Ba6  1  0.66505143  0.37500221  -0.00205789  1
  Ba  Ba7  1  0.17035798  0.62319982  0.50119889  1
  Ba  Ba8  1  -0.00122428  0.87692026  0.00280350  1
  Ba  Ba9  1  0.49682754  0.12308991  0.16775270  1
  Ba  Ba10  1  0.00255362  0.37638630  0.67038940  1
  Ba  Ba11  1  0.49872833  0.87635589  0.16366410  1
  Ba  Ba12  1  0.82990139  0.12452455  0.83026372  1
  Ba  Ba13  1  0.00145697  0.37308865  0.00305481  1
  Ba  Ba14  1  0.83216430  0.87559622  0.83299227  1
  Ba  Ba15  1  0.33314290  0.87723754  0.66616217  1
  Ba  Ba16  1  -0.00031891  0.87297261  0.66959306  1
  Sr  Sr17  1  0.83942188  0.62329344  0.16654373  1
  Sr  Sr18  1  0.66450775  0.87436477  -0.00254854  1
  Sr  Sr19  1  0.67228344  0.62346508  0.66607126  1
  Sr  Sr20  1  0.33265910  0.12651033  0.66210998  1
  Sr  Sr21  1  0.32921045  0.12467378  0.33051965  1
  La  La22  1  0.83256935  0.37349506  0.16384196  1
  La  La23  1  0.50039827  0.37013083  0.16170881  1
  La  La24  1  0.16639473  0.87439203  0.16848767  1
  La  La25  1  0.83509095  0.37807190  0.83214895  1
  La  La26  1  -0.00543635  0.12653325  0.33493355  1
  La  La27  1  0.33163997  0.87402629  -0.00108744  1
  La  La28  1  0.84060938  0.62482998  0.50147119  1
  La  La29  1  0.66586474  0.12653732  0.66192806  1
  Pr  Pr30  1  0.16775817  0.37766842  0.83479490  1
  Pr  Pr31  1  0.67208523  0.62884328  0.99454397  1
  Pr  Pr32  1  0.49975808  0.87366676  0.83025871  1
  Pr  Pr33  1  0.66884688  0.37737291  0.67101343  1
  Pr  Pr34  1  0.00256442  0.62759488  0.67168154  1
  Pr  Pr35  1  0.82894182  0.87599488  0.15969699  1
  Pr  Pr36  1  0.16644584  0.87845967  0.50061259  1
  Pr  Pr37  1  0.16208575  0.12362157  0.83524116  1
  Pr  Pr38  1  0.16266511  0.87285974  0.83191852  1
  Pr  Pr39  1  0.66427904  0.87239185  0.66808992  1
  Pr  Pr40  1  0.50001946  0.37681721  0.49731539  1
  Pr  Pr41  1  0.00915365  0.62378849  0.32829769  1
  Pr  Pr42  1  0.50977719  0.62789816  0.50400896  1
  Pr  Pr43  1  0.33088171  0.37313221  0.66699500  1
  Pr  Pr44  1  0.32944903  0.87833681  0.33527888  1
  Pr  Pr45  1  -0.00880568  0.12443934  1.00159900  1
  Pr  Pr46  1  0.34444060  0.62600363  0.32875473  1
  Pr  Pr47  1  0.66411881  0.37270672  0.33162153  1
  Pr  Pr48  1  -0.00446104  0.12291410  0.66459237  1
  Pr  Pr49  1  0.33582515  0.37661925  0.00073696  1
  Pr  Pr50  1  -0.00452628  0.87034739  0.33787964  1
  Pr  Pr51  1  0.17003577  0.37215954  0.50040859  1
  Pr  Pr52  1  0.49285311  0.87420827  0.49501919  1
  Pr  Pr53  1  0.49701512  0.12240834  0.50037663  1
  Pr  Pr54  1  0.33595296  0.62607907  0.99558232  1
  Pr  Pr55  1  0.33112084  0.12480312  1.00010154  1
  Pr  Pr56  1  0.34047162  0.62243477  0.66358290  1
  Pr  Pr57  1  0.83063659  0.12679840  0.50500304  1
  Pr  Pr58  1  0.65659852  0.87649655  0.33152383  1
  Pr  Pr59  1  0.49314914  0.12440712  0.83347213  1
  Pr  Pr60  1  0.16003518  0.12512407  0.17559230  1
  Pr  Pr61  1  0.83206812  0.37552160  0.49764464  1
  Pr  Pr62  1  0.33307839  0.37277988  0.33317743  1
  Pr  Pr63  1  0.65878460  0.12101398  0.99607336  1
  Pr  Pr64  1  0.82612345  0.87553318  0.49758019  1
  Pr  Pr65  1  0.16764078  0.62666522  0.83757167  1
  Pr  Pr66  1  -0.00053033  0.37897496  0.33816385  1
  Pr  Pr67  1  0.83768104  0.62562494  0.83598756  1
  Pr  Pr68  1  0.82797302  0.12535620  0.16369397  1
  Pr  Pr69  1  0.50960628  0.62577125  0.16300464  1
  Pr  Pr70  1  0.67603753  0.62778336  0.32779551  1
  Pr  Pr71  1  0.17309866  0.37603203  0.16616874  1
  Mn  Mn72  1  -0.00274109  0.00129478  0.17123152  1
  Mn  Mn73  1  -0.00182429  -0.00150987  0.50041185  1
  Mn  Mn74  1  0.00027683  0.00178570  0.83463640  1
  Mn  Mn75  1  0.00029693  0.49777527  0.17137022  1
  Mn  Mn76  1  0.00106434  0.50070835  0.50285652  1
  Mn  Mn77  1  0.00149309  0.49936928  0.83639249  1
  Mn  Mn78  1  0.32894675  -0.00090274  0.16653187  1
  Mn  Mn79  1  0.33279432  0.00143438  0.49948028  1
  Mn  Mn80  1  0.33116392  0.00254973  0.83336472  1
  Mn  Mn81  1  0.33755416  0.50171170  0.16697855  1
  Mn  Mn82  1  0.33752993  0.49919571  0.49787322  1
  Mn  Mn83  1  0.33232923  0.49916247  0.83155268  1
  Mn  Mn84  1  0.66659785  -0.00116129  0.16400857  1
  Mn  Mn85  1  0.66574630  -0.00087049  0.49869333  1
  Mn  Mn86  1  0.66216667  -0.00078644  0.82963171  1
  Mn  Mn87  1  0.66829855  0.50145493  0.16699789  1
  Mn  Mn88  1  0.66856367  0.49914391  0.49715013  1
  Mn  Mn89  1  0.66882710  0.50138408  0.83125256  1
  Mn  Mn90  1  -0.00123898  0.24945742  0.17022486  1
  Mn  Mn91  1  -0.00081228  0.25215864  0.50137650  1
  Mn  Mn92  1  0.00100122  0.24880213  0.83578855  1
  Mn  Mn93  1  -0.00106745  0.75115111  0.17142816  1
  Mn  Mn94  1  0.00034038  0.74896892  0.50198938  1
  Mn  Mn95  1  0.00052798  0.74883048  0.83585281  1
  Mn  Mn96  1  0.33073446  0.24975005  0.16695185  1
  Mn  Mn97  1  0.33609625  0.25064800  0.49965565  1
  Mn  Mn98  1  0.33054469  0.24852740  0.83213336  1
  Mn  Mn99  1  0.33513345  0.74929772  0.16629149  1
  Mn  Mn100  1  0.33396568  0.74943865  0.49771518  1
  Mn  Mn101  1  0.33361771  0.75059952  0.83242641  1
  Mn  Mn102  1  0.66587143  0.25024654  0.16538892  1
  Mn  Mn103  1  0.66554029  0.25216037  0.49917124  1
  Mn  Mn104  1  0.66488130  0.24918120  0.82995092  1
  Mn  Mn105  1  0.66946859  0.74917377  0.16437614  1
  Mn  Mn106  1  0.66799616  0.75007192  0.49787858  1
  Mn  Mn107  1  0.66680900  0.74990316  0.83125804  1
  Mn  Mn108  1  0.16789581  0.24733545  0.00422056  1
  Mn  Mn109  1  0.16525479  0.25158784  0.33446137  1
  Mn  Mn110  1  0.16707373  0.25027063  0.66955030  1
  Mn  Mn111  1  0.16796158  0.75118122  0.00177293  1
  Mn  Mn112  1  0.16825781  0.75104005  0.33581236  1
  Mn  Mn113  1  0.16985672  0.74768513  0.66853265  1
  Mn  Mn114  1  0.49768938  0.24865874  -0.00188372  1
  Mn  Mn115  1  0.49810429  0.25199799  0.33205321  1
  Mn  Mn116  1  0.50037895  0.24926323  0.66345276  1
  Mn  Mn117  1  0.49946780  0.74947664  -0.00190279  1
  Mn  Mn118  1  0.50049414  0.74848418  0.33271230  1
  Mn  Mn119  1  0.50195782  0.75072819  0.66291142  1
  Mn  Mn120  1  0.83044715  0.24894589  -0.00145998  1
  Mn  Mn121  1  0.83267819  0.25014692  0.33220000  1
  Mn  Mn122  1  0.83302690  0.25175556  0.66553309  1
  Mn  Mn123  1  0.83267536  0.74957324  0.00120231  1
  Mn  Mn124  1  0.83311354  0.75157695  0.33300292  1
  Mn  Mn125  1  0.83267323  0.74750612  0.66556347  1
  Mn  Mn126  1  0.16703121  0.00260479  0.00406973  1
  Mn  Mn127  1  0.16380495  0.00030653  0.33464160  1
  Mn  Mn128  1  0.16645032  0.00074272  0.66874359  1
  Mn  Mn129  1  0.16919311  0.49913157  0.00144155  1
  Mn  Mn130  1  0.16992845  0.49813727  0.33593442  1
  Mn  Mn131  1  0.17013652  0.50099320  0.66917877  1
  Mn  Mn132  1  0.49690671  0.00035062  -0.00340544  1
  Mn  Mn133  1  0.49640258  0.00010042  0.33323641  1
  Mn  Mn134  1  0.50074897  0.00035967  0.66580187  1
  Mn  Mn135  1  0.49967631  0.49988789  0.00086444  1
  Mn  Mn136  1  0.50250555  0.50153658  0.33118579  1
  Mn  Mn137  1  0.50289938  0.50037888  0.66114059  1
  Mn  Mn138  1  0.82918965  -0.00016723  -0.00061601  1
  Mn  Mn139  1  0.83260902  -0.00115104  0.33130388  1
  Mn  Mn140  1  0.83142234  -0.00027705  0.66351666  1
  Mn  Mn141  1  0.83299192  0.49992780  0.00132868  1
  Mn  Mn142  1  0.83337797  0.49945371  0.33392338  1
  Mn  Mn143  1  0.83508689  0.50158714  0.66553964  1
  O  O144  1  0.17773097  0.12538819  0.03432773  1
  O  O145  1  0.16117641  0.12651947  0.34416422  1
  O  O146  1  0.16720716  0.12748497  0.68861418  1
  O  O147  1  0.17603639  0.62494535  0.01264968  1
  O  O148  1  0.16028427  0.62405256  0.34456469  1
  O  O149  1  0.18066308  0.62297427  0.69226231  1
  O  O150  1  0.50000189  0.12529685  0.01002389  1
  O  O151  1  0.49578948  0.12380740  0.35551506  1
  O  O152  1  0.50466814  0.12330047  0.68898547  1
  O  O153  1  0.49222306  0.62210904  0.02012231  1
  O  O154  1  0.49712339  0.62345357  0.36087181  1
  O  O155  1  0.49285854  0.62583007  0.67156412  1
  O  O156  1  0.82737918  0.12497959  0.01849933  1
  O  O157  1  0.83448187  0.12191868  0.36210448  1
  O  O158  1  0.82561562  0.12650694  0.67149732  1
  O  O159  1  0.82329641  0.62569220  0.01564302  1
  O  O160  1  0.82439826  0.62368773  0.35993654  1
  O  O161  1  0.82973342  0.62316787  0.68855875  1
  O  O162  1  0.17434380  0.37495161  0.31213286  1
  O  O163  1  0.17101970  0.37730034  0.64406669  1
  O  O164  1  0.17395768  0.37128394  0.97771268  1
  O  O165  1  0.17285773  0.87567646  0.31472157  1
  O  O166  1  0.16515341  0.87177777  0.64555448  1
  O  O167  1  0.17214289  0.87905245  0.97504233  1
  O  O168  1  0.50227558  0.38265608  0.30423756  1
  O  O169  1  0.50337759  0.37528941  0.64060548  1
  O  O170  1  0.49316737  0.37297655  0.98814749  1
  O  O171  1  0.50127845  0.87239112  0.32187369  1
  O  O172  1  0.50803201  0.87553618  0.63841851  1
  O  O173  1  0.49427712  0.87797493  0.97468417  1
  O  O174  1  0.83826117  0.37742190  0.30748424  1
  O  O175  1  0.83017971  0.37732375  0.64143544  1
  O  O176  1  0.83349259  0.37188166  0.97810220  1
  O  O177  1  0.84279118  0.87698332  0.30432290  1
  O  O178  1  0.82843462  0.87329729  0.64244157  1
  O  O179  1  0.83281848  0.87601289  0.99257030  1
  O  O180  1  -0.01253438  0.37166081  0.19272130  1
  O  O181  1  -0.00612285  0.37618900  0.51546037  1
  O  O182  1  -0.00098999  0.37421053  0.84564539  1
  O  O183  1  -0.01193560  0.87899299  0.19186534  1
  O  O184  1  0.00097075  0.87402540  0.51444077  1
  O  O185  1  0.00753552  0.87545086  0.84440717  1
  O  O186  1  0.33426510  0.37838338  0.18918195  1
  O  O187  1  0.34170601  0.37592120  0.52320478  1
  O  O188  1  0.32664028  0.37238808  0.85756642  1
  O  O189  1  0.32818557  0.87312077  0.19005214  1
  O  O190  1  0.33591730  0.87508150  0.50923309  1
  O  O191  1  0.33503164  0.87888421  0.85570912  1
  O  O192  1  0.66531542  0.38025170  0.18806321  1
  O  O193  1  0.66384645  0.37555143  0.52658755  1
  O  O194  1  0.67135960  0.37650101  0.84039373  1
  O  O195  1  0.67428716  0.87290405  0.18766330  1
  O  O196  1  0.66893578  0.87471374  0.52411592  1
  O  O197  1  0.65844375  0.87477392  0.84821436  1
  O  O198  1  0.01199290  0.12624138  0.14708069  1
  O  O199  1  -0.00598693  0.12511012  0.47771556  1
  O  O200  1  0.00881635  0.12656576  0.81045018  1
  O  O201  1  0.00213620  0.62372100  0.16598851  1
  O  O202  1  -0.00472886  0.62482190  0.47261490  1
  O  O203  1  0.00254108  0.62264081  0.81838362  1
  O  O204  1  0.32177860  0.12427719  0.14604559  1
  O  O205  1  0.34149778  0.12596415  0.48042734  1
  O  O206  1  0.33275975  0.12656586  0.81020490  1
  O  O207  1  0.33822830  0.62400617  0.14080759  1
  O  O208  1  0.33996646  0.62248354  0.47244732  1
  O  O209  1  0.32435144  0.62206152  0.80763312  1
  O  O210  1  0.67356038  0.12230400  0.14443423  1
  O  O211  1  0.67265293  0.12595180  0.48569431  1
  O  O212  1  0.65625500  0.12296463  0.80615218  1
  O  O213  1  0.66418601  0.62407705  0.14232171  1
  O  O214  1  0.66549145  0.62366104  0.46948557  1
  O  O215  1  0.67523773  0.62564637  0.81567766  1
  O  O216  1  0.07429333  0.01341890  0.25974001  1
  O  O217  1  0.07613505  0.01672717  0.59218161  1
  O  O218  1  0.08365785  0.02749950  0.92889362  1
  O  O219  1  0.08196840  0.50092533  0.25711447  1
  O  O220  1  0.08477280  0.51853548  0.59300230  1
  O  O221  1  0.09016042  0.50949233  0.91617437  1
  O  O222  1  0.40408034  0.00789737  0.25430991  1
  O  O223  1  0.42222261  0.01604440  0.58039567  1
  O  O224  1  0.41035991  0.02396072  0.91677309  1
  O  O225  1  0.42622477  0.52602128  0.24429080  1
  O  O226  1  0.42694615  0.51738079  0.56931945  1
  O  O227  1  0.40998147  0.51244240  0.91841332  1
  O  O228  1  0.75707159  0.01323883  0.24304354  1
  O  O229  1  0.75323231  0.01376936  0.57354251  1
  O  O230  1  0.73636117  0.01404013  0.91901855  1
  O  O231  1  0.75157449  0.51758878  0.25121911  1
  O  O232  1  0.75874835  0.51511030  0.57211441  1
  O  O233  1  0.75224133  0.51716838  0.91198502  1
  O  O234  1  0.23825958  0.23900393  0.24106360  1
  O  O235  1  0.25279316  0.24674700  0.58318862  1
  O  O236  1  0.24412526  0.22463249  0.91663893  1
  O  O237  1  0.26405651  0.73616873  0.26294519  1
  O  O238  1  0.26255417  0.73265357  0.59107867  1
  O  O239  1  0.25708101  0.73374253  0.92130042  1
  O  O240  1  0.57932285  0.24620755  0.24886510  1
  O  O241  1  0.58032082  0.22714194  0.57653667  1
  O  O242  1  0.57693480  0.23004497  0.90958376  1
  O  O243  1  0.59266307  0.73235086  0.25725714  1
  O  O244  1  0.59314720  0.73102531  0.58361827  1
  O  O245  1  0.58994299  0.73512181  0.92150232  1
  O  O246  1  0.91172550  0.22288724  0.24640915  1
  O  O247  1  0.91216037  0.23071203  0.57921884  1
  O  O248  1  0.91753620  0.23260481  0.91963446  1
  O  O249  1  0.92681609  0.73282711  0.26889264  1
  O  O250  1  0.92137196  0.72534577  0.58910802  1
  O  O251  1  0.91597979  0.73489113  0.91759762  1
  O  O252  1  0.08940984  0.48238248  0.09217056  1
  O  O253  1  0.08336510  0.47790457  0.42030529  1
  O  O254  1  0.09095355  0.49218429  0.75855503  1
  O  O255  1  0.08956273  0.98524100  0.09717694  1
  O  O256  1  0.08427910  0.97836447  0.42070787  1
  O  O257  1  0.09057030  0.98896179  0.76190862  1
  O  O258  1  0.41433533  0.47855146  0.08236855  1
  O  O259  1  0.41376458  0.47611018  0.40676469  1
  O  O260  1  0.40901013  0.48716443  0.73748444  1
  O  O261  1  0.40903557  0.99058997  0.07629036  1
  O  O262  1  0.41620354  0.98108241  0.41824541  1
  O  O263  1  0.42452136  0.98685539  0.75746113  1
  O  O264  1  0.75071482  0.48453543  0.08736676  1
  O  O265  1  0.74640980  0.47187548  0.41188750  1
  O  O266  1  0.75219496  0.48014195  0.74451456  1
  O  O267  1  0.75021116  0.98341185  0.08473782  1
  O  O268  1  0.74683151  0.97181580  0.40940828  1
  O  O269  1  0.74154979  0.98732634  0.73859338  1
  O  O270  1  0.25563807  0.27593164  0.07954014  1
  O  O271  1  0.25410644  0.27156167  0.41625849  1
  O  O272  1  0.25123256  0.27366087  0.74946039  1
  O  O273  1  0.24608457  0.77147455  0.08738881  1
  O  O274  1  0.24288158  0.77135457  0.42436900  1
  O  O275  1  0.24284881  0.76818171  0.76116673  1
  O  O276  1  0.58158572  0.25914972  0.08286778  1
  O  O277  1  0.58473810  0.27465330  0.41637137  1
  O  O278  1  0.59095265  0.26451673  0.73616682  1
  O  O279  1  0.57895777  0.75451303  0.08536913  1
  O  O280  1  0.57620249  0.76830273  0.42410023  1
  O  O281  1  0.57980628  0.76892695  0.75071470  1
  O  O282  1  0.91754176  0.25331393  0.08664562  1
  O  O283  1  0.91791774  0.27018601  0.41119996  1
  O  O284  1  0.91391118  0.25967113  0.74780769  1
  O  O285  1  0.90903880  0.75974075  0.09681358  1
  O  O286  1  0.90526830  0.77019392  0.42446933  1
  O  O287  1  0.91411623  0.74851006  0.75407137  1
  O  O288  1  0.25291020  0.47826514  0.08403182  1
  O  O289  1  0.24925277  0.47475840  0.42457626  1
  O  O290  1  0.24991298  0.47206173  0.75227032  1
  O  O291  1  0.25061252  0.97394596  0.08167643  1
  O  O292  1  0.24915775  0.98276532  0.41367227  1
  O  O293  1  0.24593507  0.98508806  0.75814996  1
  O  O294  1  0.57447377  0.48871696  0.09657667  1
  O  O295  1  0.58105206  0.47520236  0.41604408  1
  O  O296  1  0.58788825  0.48918198  0.74140477  1
  O  O297  1  0.58692723  0.99217837  0.07295152  1
  O  O298  1  0.58096991  0.98004652  0.42273277  1
  O  O299  1  0.58201457  0.97399227  0.74607195  1
  O  O300  1  0.91336631  0.48754640  0.09350184  1
  O  O301  1  0.90943064  0.48008838  0.42120362  1
  O  O302  1  0.91209589  0.49172827  0.75562866  1
  O  O303  1  0.91305934  0.99851913  0.09218267  1
  O  O304  1  0.91450608  0.97683237  0.41463423  1
  O  O305  1  0.91572480  0.99927623  0.74170771  1
  O  O306  1  0.09476082  0.26708761  0.10051518  1
  O  O307  1  0.08698742  0.27426490  0.42266489  1
  O  O308  1  0.09513361  0.26399159  0.76615889  1
  O  O309  1  0.08436058  0.76613675  0.08890655  1
  O  O310  1  0.08001857  0.76923901  0.41571514  1
  O  O311  1  0.08537427  0.75222467  0.75337780  1
  O  O312  1  0.41433128  0.26468678  0.08396482  1
  O  O313  1  0.42026953  0.27583711  0.41722069  1
  O  O314  1  0.41521583  0.26426986  0.74178464  1
  O  O315  1  0.40690539  0.76397871  0.07352436  1
  O  O316  1  0.40701449  0.76658066  0.40489423  1
  O  O317  1  0.41648468  0.76338810  0.74977261  1
  O  O318  1  0.75648567  0.26370961  0.08936666  1
  O  O319  1  0.75049626  0.27545035  0.41798324  1
  O  O320  1  0.75244047  0.27019933  0.74800137  1
  O  O321  1  0.74544128  0.76597599  0.07955849  1
  O  O322  1  0.74133230  0.77562325  0.40597857  1
  O  O323  1  0.74159332  0.76502614  0.73862471  1
  O  O324  1  0.23757416  0.01288277  0.24347650  1
  O  O325  1  0.24906160  0.00727442  0.58022279  1
  O  O326  1  0.24831672  0.02500672  0.91936708  1
  O  O327  1  0.26455530  0.51346446  0.25957004  1
  O  O328  1  0.26528732  0.51177599  0.59263812  1
  O  O329  1  0.25122736  0.51858534  0.91527473  1
  O  O330  1  0.58522737  0.00314853  0.25053983  1
  O  O331  1  0.58563179  0.02258402  0.58397280  1
  O  O332  1  0.57338060  0.01879328  0.90623246  1
  O  O333  1  0.58991050  0.52751593  0.25610556  1
  O  O334  1  0.58824531  0.51961985  0.57741257  1
  O  O335  1  0.58846996  0.51638691  0.92531340  1
  O  O336  1  0.91503049  0.03001477  0.25168234  1
  O  O337  1  0.91309060  0.02048236  0.57806108  1
  O  O338  1  0.91857125  0.01635789  0.92102157  1
  O  O339  1  0.92230453  0.51801424  0.26441647  1
  O  O340  1  0.92120851  0.52533197  0.58865802  1
  O  O341  1  0.91355163  0.51293842  0.91385951  1
  O  O342  1  0.07090817  0.23914536  0.26199306  1
  O  O343  1  0.07747976  0.23586676  0.59460684  1
  O  O344  1  0.08143203  0.22358174  0.93151351  1
  O  O345  1  0.08579395  0.74852890  0.25431538  1
  O  O346  1  0.08487872  0.72921845  0.59031458  1
  O  O347  1  0.09307832  0.73850693  0.91237178  1
  O  O348  1  0.40482348  0.24241224  0.25464997  1
  O  O349  1  0.42178090  0.23079121  0.57826712  1
  O  O350  1  0.40989918  0.22982614  0.91702596  1
  O  O351  1  0.42674393  0.72571608  0.24289904  1
  O  O352  1  0.42629382  0.73707105  0.56902709  1
  O  O353  1  0.41550016  0.73512442  0.91423904  1
  O  O354  1  0.75108482  0.24133242  0.24953387  1
  O  O355  1  0.74722142  0.23777058  0.58168626  1
  O  O356  1  0.73901073  0.23259214  0.92063617  1
  O  O357  1  0.75712177  0.73212820  0.24613179  1
  O  O358  1  0.76024720  0.73406275  0.56729654  1
  O  O359  1  0.75275668  0.73298483  0.91144158  1
