# generated using pymatgen
data_Ba17Sr5La8Pr42Mn72O216
_symmetry_space_group_name_H-M   'P 1'
_cell_length_a   16.66985281
_cell_length_b   15.70304005
_cell_length_c   16.82522926
_cell_angle_alpha   90.00066111
_cell_angle_beta   90.00983028
_cell_angle_gamma   89.99430777
_symmetry_Int_Tables_number   1
_chemical_formula_structural   Ba17Sr5La8Pr42Mn72O216
_chemical_formula_sum   'Ba17 Sr5 La8 Pr42 Mn72 O216'
_cell_volume   4404.29586366
_cell_formula_units_Z   1
loop_
 _symmetry_equiv_pos_site_id
 _symmetry_equiv_pos_as_xyz
  1  'x, y, z'
loop_
 _atom_site_type_symbol
 _atom_site_label
 _atom_site_symmetry_multiplicity
 _atom_site_fract_x
 _atom_site_fract_y
 _atom_site_fract_z
 _atom_site_occupancy
  Ba  Ba0  1  0.66738383  0.62381019  0.66557843  1
  Ba  Ba1  1  0.33361570  0.87369247  0.00135531  1
  Ba  Ba2  1  0.33100103  0.62586591  0.66683230  1
  Ba  Ba3  1  0.83553602  0.37510139  0.83402927  1
  Ba  Ba4  1  0.33198064  0.87522872  0.66804842  1
  Ba  Ba5  1  0.49861841  0.87441261  0.49797658  1
  Ba  Ba6  1  0.83648111  0.12220479  0.49877388  1
  Ba  Ba7  1  0.16695553  0.37515434  0.49818747  1
  Ba  Ba8  1  -0.00276729  0.87331433  0.00201653  1
  Ba  Ba9  1  0.00239954  0.12473964  0.99995132  1
  Ba  Ba10  1  0.00069394  0.37675293  0.33313321  1
  Ba  Ba11  1  0.83232624  0.87442716  0.49837334  1
  Ba  Ba12  1  0.49954884  0.87402052  0.16819716  1
  Ba  Ba13  1  0.66618712  0.12463536  0.99926254  1
  Ba  Ba14  1  0.66875422  0.37692923  0.66712875  1
  Ba  Ba15  1  0.50018066  0.12600412  0.83346606  1
  Ba  Ba16  1  0.16644733  0.37595179  0.16575135  1
  Sr  Sr17  1  0.00042967  0.37593101  0.00440671  1
  Sr  Sr18  1  0.66144730  0.87528268  0.33630013  1
  Sr  Sr19  1  0.00210158  0.62252247  0.99737691  1
  Sr  Sr20  1  0.33144876  0.62383355  0.99797118  1
  Sr  Sr21  1  0.33693569  0.12446669  0.66428190  1
  La  La22  1  0.33374837  0.87545725  0.33727466  1
  La  La23  1  0.49939995  0.37867042  0.50063326  1
  La  La24  1  0.83304213  0.37668503  0.49927442  1
  La  La25  1  0.33524464  0.12517694  0.99956977  1
  La  La26  1  0.49998937  0.37467808  0.83143237  1
  La  La27  1  0.00225777  0.12532190  0.66639255  1
  La  La28  1  0.66765100  0.37343379  -0.00012659  1
  La  La29  1  0.83552359  0.62481708  0.16587250  1
  Pr  Pr30  1  0.33691991  0.12805557  0.33377766  1
  Pr  Pr31  1  0.49709786  0.62482466  0.83491118  1
  Pr  Pr32  1  0.16573852  0.87465917  0.16263106  1
  Pr  Pr33  1  0.84233533  0.12437081  0.16982426  1
  Pr  Pr34  1  0.33151628  0.62463809  0.33283747  1
  Pr  Pr35  1  0.66639727  0.37379274  0.33682440  1
  Pr  Pr36  1  0.16251334  0.37468466  0.83292337  1
  Pr  Pr37  1  -0.00511791  0.87575633  0.67069689  1
  Pr  Pr38  1  -0.00119436  0.62405417  0.66741476  1
  Pr  Pr39  1  0.16321295  0.62772677  0.16464712  1
  Pr  Pr40  1  0.50070482  0.37687808  0.16372947  1
  Pr  Pr41  1  0.33497568  0.37582314  0.00182168  1
  Pr  Pr42  1  0.16899115  0.62772568  0.83827095  1
  Pr  Pr43  1  0.50327809  0.12362224  0.16789865  1
  Pr  Pr44  1  0.16931466  0.12238162  0.16788676  1
  Pr  Pr45  1  0.16416713  0.62152939  0.50353988  1
  Pr  Pr46  1  -0.00023508  0.37299778  0.66849199  1
  Pr  Pr47  1  0.32991709  0.37342137  0.67123521  1
  Pr  Pr48  1  0.33274106  0.37642411  0.33660180  1
  Pr  Pr49  1  0.66564385  0.63091530  0.33102068  1
  Pr  Pr50  1  0.66372463  0.62777805  0.99458024  1
  Pr  Pr51  1  0.67482164  0.11900082  0.32846289  1
  Pr  Pr52  1  0.16873675  0.87323103  0.50077668  1
  Pr  Pr53  1  -0.00028272  0.87282167  0.33716667  1
  Pr  Pr54  1  0.17176503  0.12176728  0.83590712  1
  Pr  Pr55  1  0.50073512  0.62787669  0.50276949  1
  Pr  Pr56  1  0.82912472  0.87561118  0.83236153  1
  Pr  Pr57  1  0.49384546  0.62624525  0.16687776  1
  Pr  Pr58  1  0.66106534  0.87734308  0.00159505  1
  Pr  Pr59  1  0.50743251  0.12384557  0.50489196  1
  Pr  Pr60  1  0.16959613  0.12786897  0.50414407  1
  Pr  Pr61  1  0.49701788  0.87658131  0.82952719  1
  Pr  Pr62  1  0.15904695  0.87304671  0.83300298  1
  Pr  Pr63  1  0.66520359  0.87640511  0.66575175  1
  Pr  Pr64  1  0.83477147  0.62648896  0.50097381  1
  Pr  Pr65  1  0.00603050  0.12595658  0.33135248  1
  Pr  Pr66  1  0.83573594  0.37371565  0.15919820  1
  Pr  Pr67  1  0.67027416  0.12853099  0.66467362  1
  Pr  Pr68  1  0.82458300  0.87561448  0.16400400  1
  Pr  Pr69  1  0.83328155  0.12764841  0.83528921  1
  Pr  Pr70  1  0.00022378  0.62310308  0.33258257  1
  Pr  Pr71  1  0.83129097  0.62297255  0.83759565  1
  Mn  Mn72  1  0.00089422  -0.00143172  0.16971839  1
  Mn  Mn73  1  0.00385641  -0.00171821  0.50011084  1
  Mn  Mn74  1  -0.00075405  -0.00043517  0.83277658  1
  Mn  Mn75  1  -0.00039347  0.50261540  0.16510407  1
  Mn  Mn76  1  -0.00155312  0.50228453  0.50074864  1
  Mn  Mn77  1  0.00100232  0.50030771  0.83359587  1
  Mn  Mn78  1  0.33402568  0.00233612  0.16900225  1
  Mn  Mn79  1  0.33282631  0.00160495  0.49979092  1
  Mn  Mn80  1  0.33282443  0.00048562  0.83383704  1
  Mn  Mn81  1  0.33250256  0.50113161  0.16621027  1
  Mn  Mn82  1  0.33408431  0.50059485  0.49974840  1
  Mn  Mn83  1  0.33141256  0.49897882  0.83459863  1
  Mn  Mn84  1  0.66651443  -0.00036669  0.16585849  1
  Mn  Mn85  1  0.66691175  0.00065843  0.49839136  1
  Mn  Mn86  1  0.66734177  -0.00246327  0.83262848  1
  Mn  Mn87  1  0.66569812  0.50100355  0.16680024  1
  Mn  Mn88  1  0.66753675  0.49972523  0.49633748  1
  Mn  Mn89  1  0.66554562  0.50194409  0.83411611  1
  Mn  Mn90  1  0.00150552  0.24943120  0.16636637  1
  Mn  Mn91  1  0.00052489  0.24886754  0.49970454  1
  Mn  Mn92  1  0.00140410  0.24987925  0.83325418  1
  Mn  Mn93  1  -0.00140488  0.74914735  0.16893787  1
  Mn  Mn94  1  0.00173192  0.75016807  0.50106233  1
  Mn  Mn95  1  -0.00188751  0.74883411  0.83372058  1
  Mn  Mn96  1  0.33495613  0.25147103  0.16665984  1
  Mn  Mn97  1  0.33581593  0.25027100  0.50054874  1
  Mn  Mn98  1  0.33128111  0.25029557  0.83459771  1
  Mn  Mn99  1  0.33199433  0.74759261  0.16773677  1
  Mn  Mn100  1  0.33165435  0.74946566  0.49851263  1
  Mn  Mn101  1  0.33285759  0.74953309  0.83492330  1
  Mn  Mn102  1  0.66667943  0.25080618  0.16906389  1
  Mn  Mn103  1  0.66796270  0.25113516  0.49781480  1
  Mn  Mn104  1  0.66673275  0.25058485  0.83283928  1
  Mn  Mn105  1  0.66578310  0.74764734  0.16360077  1
  Mn  Mn106  1  0.66713619  0.74907638  0.49774282  1
  Mn  Mn107  1  0.66594126  0.75031844  0.83309863  1
  Mn  Mn108  1  0.16790499  0.25004016  -0.00063578  1
  Mn  Mn109  1  0.16906171  0.24858500  0.33382080  1
  Mn  Mn110  1  0.16708860  0.24979146  0.66820978  1
  Mn  Mn111  1  0.16625619  0.74965157  0.00082714  1
  Mn  Mn112  1  0.16713244  0.75011717  0.33353232  1
  Mn  Mn113  1  0.16293003  0.74913042  0.66697125  1
  Mn  Mn114  1  0.49948033  0.25341127  0.00122493  1
  Mn  Mn115  1  0.50093546  0.25114213  0.33401806  1
  Mn  Mn116  1  0.49996870  0.25027134  0.66559926  1
  Mn  Mn117  1  0.49884043  0.74772316  -0.00068680  1
  Mn  Mn118  1  0.49814793  0.74735669  0.33327189  1
  Mn  Mn119  1  0.50062934  0.74975895  0.66687547  1
  Mn  Mn120  1  0.83330605  0.24886188  0.00056668  1
  Mn  Mn121  1  0.83393362  0.25085493  0.33192572  1
  Mn  Mn122  1  0.83561163  0.24874369  0.66604418  1
  Mn  Mn123  1  0.83116126  0.74993806  0.00025206  1
  Mn  Mn124  1  0.83322281  0.74877388  0.33197495  1
  Mn  Mn125  1  0.83344670  0.74982856  0.66778120  1
  Mn  Mn126  1  0.16777396  -0.00006185  0.00117718  1
  Mn  Mn127  1  0.16849139  -0.00109419  0.33480100  1
  Mn  Mn128  1  0.16541711  0.00037081  0.66708089  1
  Mn  Mn129  1  0.16683191  0.50062796  -0.00115994  1
  Mn  Mn130  1  0.16790460  0.50294401  0.33322881  1
  Mn  Mn131  1  0.16477625  0.49943034  0.66827870  1
  Mn  Mn132  1  0.49875169  0.00012510  0.00000570  1
  Mn  Mn133  1  0.49900810  0.00325867  0.33495522  1
  Mn  Mn134  1  0.50132270  0.00091675  0.66636135  1
  Mn  Mn135  1  0.50022808  0.50037816  0.00029028  1
  Mn  Mn136  1  0.50029860  0.49962320  0.33151583  1
  Mn  Mn137  1  0.49776755  0.50000603  0.66637820  1
  Mn  Mn138  1  0.83225577  -0.00059374  -0.00053797  1
  Mn  Mn139  1  0.83551622  -0.00169903  0.33176308  1
  Mn  Mn140  1  0.83337641  -0.00185059  0.66860828  1
  Mn  Mn141  1  0.83227126  0.50103757  0.00143853  1
  Mn  Mn142  1  0.83101954  0.50133576  0.33166664  1
  Mn  Mn143  1  0.83634493  0.50267441  0.66638411  1
  O  O144  1  0.17403588  0.12528874  0.02266815  1
  O  O145  1  0.16678121  0.11988772  0.36027422  1
  O  O146  1  0.16133381  0.12745221  0.69306172  1
  O  O147  1  0.16861326  0.62620285  0.01984290  1
  O  O148  1  0.16942708  0.62982675  0.36067021  1
  O  O149  1  0.15797002  0.62326478  0.69420411  1
  O  O150  1  0.49507941  0.13264664  0.02274431  1
  O  O151  1  0.49236700  0.13186966  0.36168301  1
  O  O152  1  0.50778537  0.12692535  0.67741019  1
  O  O153  1  0.50735593  0.62133612  0.02420160  1
  O  O154  1  0.49710534  0.61942735  0.35882781  1
  O  O155  1  0.50018530  0.62364952  0.68889364  1
  O  O156  1  0.83165591  0.12241682  0.02406469  1
  O  O157  1  0.83023780  0.12342696  0.34229683  1
  O  O158  1  0.83416630  0.11844181  0.69035166  1
  O  O159  1  0.82373923  0.62668050  0.02313096  1
  O  O160  1  0.83106578  0.62455669  0.35730996  1
  O  O161  1  0.84163100  0.62820966  0.69294877  1
  O  O162  1  0.17535499  0.37587920  0.32219529  1
  O  O163  1  0.16644920  0.37441789  0.65238178  1
  O  O164  1  0.17074196  0.37437949  0.97768011  1
  O  O165  1  0.16868001  0.87443560  0.30440168  1
  O  O166  1  0.15694921  0.87325603  0.64394023  1
  O  O167  1  0.16571026  0.87444217  0.98078144  1
  O  O168  1  0.50338301  0.37585284  0.30423550  1
  O  O169  1  0.49166793  0.37475779  0.64522026  1
  O  O170  1  0.49596332  0.37846323  0.97775831  1
  O  O171  1  0.49381662  0.87443912  0.32375590  1
  O  O172  1  0.50483183  0.87552787  0.65514327  1
  O  O173  1  0.50420519  0.86913821  0.97757307  1
  O  O174  1  0.82587592  0.37890225  0.30427495  1
  O  O175  1  0.84345394  0.37950350  0.64433764  1
  O  O176  1  0.83233368  0.37599068  0.99219366  1
  O  O177  1  0.84189797  0.87234267  0.30780952  1
  O  O178  1  0.83526118  0.87305038  0.65321205  1
  O  O179  1  0.82686538  0.87341101  0.97698315  1
  O  O180  1  -0.00812671  0.37664577  0.17568959  1
  O  O181  1  -0.00650593  0.38048740  0.52321262  1
  O  O182  1  0.00665066  0.37639222  0.85407981  1
  O  O183  1  0.00715456  0.87331365  0.19405007  1
  O  O184  1  0.00987162  0.87283964  0.52684184  1
  O  O185  1  0.00517512  0.87408536  0.84653904  1
  O  O186  1  0.33964555  0.37557603  0.19419921  1
  O  O187  1  0.33842238  0.37465624  0.52515438  1
  O  O188  1  0.32854155  0.37508120  0.85886113  1
  O  O189  1  0.32704056  0.87403131  0.19326940  1
  O  O190  1  0.32839053  0.87542284  0.51087627  1
  O  O191  1  0.33990507  0.87574987  0.84388059  1
  O  O192  1  0.66216197  0.37697223  0.19587913  1
  O  O193  1  0.67012842  0.37543383  0.51080098  1
  O  O194  1  0.66347465  0.38101142  0.85335961  1
  O  O195  1  0.67165993  0.87343468  0.18666798  1
  O  O196  1  0.66574673  0.87230836  0.51885602  1
  O  O197  1  0.67472571  0.87139139  0.85960501  1
  O  O198  1  -0.00147557  0.12272228  0.15737377  1
  O  O199  1  0.00722236  0.11822148  0.47582689  1
  O  O200  1  -0.00066455  0.12303921  0.81003816  1
  O  O201  1  0.00080065  0.62742220  0.14765963  1
  O  O202  1  -0.00082031  0.62794452  0.47601994  1
  O  O203  1  -0.00035730  0.62561843  0.81038668  1
  O  O204  1  0.33229920  0.13044206  0.14344521  1
  O  O205  1  0.32740509  0.12603169  0.47778334  1
  O  O206  1  0.32507230  0.12617811  0.81430290  1
  O  O207  1  0.33506513  0.62242450  0.14699762  1
  O  O208  1  0.32917105  0.62516160  0.47791417  1
  O  O209  1  0.33082313  0.62236159  0.82185988  1
  O  O210  1  0.66241593  0.12621968  0.15482956  1
  O  O211  1  0.66181591  0.13011668  0.47443023  1
  O  O212  1  0.67099527  0.11860964  0.80941602  1
  O  O213  1  0.66615204  0.62214724  0.13703087  1
  O  O214  1  0.66940378  0.62222712  0.47581143  1
  O  O215  1  0.66426854  0.62681625  0.82063993  1
  O  O216  1  0.08929269  0.02192066  0.25202878  1
  O  O217  1  0.09013488  0.02312673  0.57832756  1
  O  O218  1  0.09178920  0.01197110  0.90436648  1
  O  O219  1  0.08336900  0.52261336  0.25072773  1
  O  O220  1  0.07886303  0.52133796  0.58707834  1
  O  O221  1  0.08645063  0.51956201  0.91106808  1
  O  O222  1  0.42033066  0.02626370  0.24795315  1
  O  O223  1  0.42098017  0.01869925  0.57522904  1
  O  O224  1  0.41464624  0.01391461  0.91982809  1
  O  O225  1  0.41404054  0.52195866  0.25268428  1
  O  O226  1  0.42048509  0.51766832  0.57535513  1
  O  O227  1  0.41933667  0.51522224  0.91383014  1
  O  O228  1  0.75680016  0.01526877  0.23974465  1
  O  O229  1  0.74669021  0.01354859  0.58997640  1
  O  O230  1  0.75720961  0.01465359  0.90563914  1
  O  O231  1  0.74657682  0.52714660  0.24943621  1
  O  O232  1  0.75919588  0.51374203  0.57388803  1
  O  O233  1  0.74698977  0.51975277  0.92128040  1
  O  O234  1  0.25142460  0.22681679  0.24848259  1
  O  O235  1  0.25054702  0.23287749  0.58656256  1
  O  O236  1  0.24973931  0.22813908  0.91596478  1
  O  O237  1  0.24848953  0.72438396  0.25223581  1
  O  O238  1  0.24042997  0.73712648  0.57564298  1
  O  O239  1  0.24711436  0.73701484  0.91539999  1
  O  O240  1  0.58599654  0.22637285  0.25675486  1
  O  O241  1  0.58802530  0.23271786  0.58125893  1
  O  O242  1  0.58380732  0.24963681  0.92034460  1
  O  O243  1  0.58127927  0.72554678  0.24538443  1
  O  O244  1  0.58122357  0.73350838  0.57826074  1
  O  O245  1  0.58080641  0.72913790  0.91283946  1
  O  O246  1  0.92027077  0.23134454  0.25427161  1
  O  O247  1  0.92466050  0.23408145  0.58813636  1
  O  O248  1  0.91617042  0.23315356  0.91082271  1
  O  O249  1  0.91823373  0.72557861  0.25322791  1
  O  O250  1  0.91927345  0.73001487  0.58593170  1
  O  O251  1  0.91227933  0.73089013  0.91606386  1
  O  O252  1  0.08426696  0.49361598  0.07940585  1
  O  O253  1  0.08367774  0.49914777  0.41838781  1
  O  O254  1  0.08429229  0.47727989  0.75091454  1
  O  O255  1  0.08464706  0.98676144  0.08983575  1
  O  O256  1  0.08476647  0.97225227  0.41333772  1
  O  O257  1  0.07446986  0.98172431  0.74104817  1
  O  O258  1  0.42066684  0.48086778  0.08736621  1
  O  O259  1  0.42112314  0.47537642  0.41369183  1
  O  O260  1  0.41026733  0.47671611  0.75068269  1
  O  O261  1  0.41449372  0.99675834  0.08575357  1
  O  O262  1  0.40475418  0.99296768  0.40625040  1
  O  O263  1  0.41979989  0.99053884  0.75233505  1
  O  O264  1  0.74835209  0.47721765  0.08880734  1
  O  O265  1  0.74808179  0.47873587  0.41067764  1
  O  O266  1  0.75526299  0.49700171  0.75255832  1
  O  O267  1  0.74489059  0.97740799  0.07831956  1
  O  O268  1  0.74577959  0.99035802  0.40665396  1
  O  O269  1  0.74655534  0.97406172  0.74840353  1
  O  O270  1  0.25950413  0.26736004  0.07694538  1
  O  O271  1  0.25835618  0.26119303  0.41040652  1
  O  O272  1  0.24698661  0.27247277  0.75350652  1
  O  O273  1  0.24423759  0.76271758  0.09353802  1
  O  O274  1  0.24860012  0.77239999  0.41336884  1
  O  O275  1  0.23912323  0.76240766  0.75497848  1
  O  O276  1  0.58083227  0.27261616  0.08924056  1
  O  O277  1  0.57964403  0.27459927  0.41767109  1
  O  O278  1  0.57824578  0.26596079  0.75324290  1
  O  O279  1  0.58986534  0.76321518  0.07433673  1
  O  O280  1  0.58316120  0.75215663  0.41119847  1
  O  O281  1  0.58706386  0.77428437  0.75230293  1
  O  O282  1  0.90947736  0.25887026  0.09031285  1
  O  O283  1  0.90899646  0.26617599  0.42057931  1
  O  O284  1  0.92336589  0.26166028  0.74551462  1
  O  O285  1  0.90728437  0.76463013  0.09444246  1
  O  O286  1  0.92468377  0.76348475  0.41356462  1
  O  O287  1  0.91422820  0.77050268  0.75344636  1
  O  O288  1  0.25845809  0.48419820  0.07699273  1
  O  O289  1  0.26046602  0.48964714  0.40792387  1
  O  O290  1  0.24866366  0.47834994  0.75053880  1
  O  O291  1  0.24403514  0.98782770  0.09708599  1
  O  O292  1  0.24443104  0.97856230  0.41970288  1
  O  O293  1  0.23642581  0.98439528  0.76015216  1
  O  O294  1  0.58552456  0.47422226  0.08282005  1
  O  O295  1  0.58519220  0.48013311  0.40890951  1
  O  O296  1  0.57476863  0.48677866  0.75711149  1
  O  O297  1  0.58375519  0.98754082  0.08322458  1
  O  O298  1  0.57936360  0.99671333  0.41679929  1
  O  O299  1  0.58648093  0.97567989  0.75195735  1
  O  O300  1  0.91028450  0.49169925  0.08777917  1
  O  O301  1  0.90863910  0.48844397  0.42294281  1
  O  O302  1  0.92721758  0.48651133  0.74069810  1
  O  O303  1  0.90664972  0.98422217  0.09599566  1
  O  O304  1  0.92410339  0.98283105  0.41428305  1
  O  O305  1  0.91139522  0.97857418  0.75572204  1
  O  O306  1  0.08419943  0.25857235  0.08051796  1
  O  O307  1  0.08255576  0.25390789  0.41578062  1
  O  O308  1  0.08171290  0.27116587  0.74736530  1
  O  O309  1  0.08602266  0.76244383  0.09150693  1
  O  O310  1  0.08737258  0.77313764  0.41759335  1
  O  O311  1  0.07774807  0.76946209  0.74582051  1
  O  O312  1  0.41879455  0.27658174  0.08599185  1
  O  O313  1  0.41757061  0.27640922  0.41157825  1
  O  O314  1  0.41086619  0.27058016  0.75033688  1
  O  O315  1  0.41936504  0.75355815  0.08644228  1
  O  O316  1  0.40781656  0.75626568  0.40953982  1
  O  O317  1  0.42344475  0.75879568  0.75720765  1
  O  O318  1  0.74459148  0.27247088  0.08527337  1
  O  O319  1  0.74658385  0.26868830  0.40979075  1
  O  O320  1  0.75042440  0.25202617  0.74756511  1
  O  O321  1  0.74706172  0.77193177  0.08093934  1
  O  O322  1  0.74644556  0.75962015  0.40802660  1
  O  O323  1  0.74870496  0.77027472  0.75008855  1
  O  O324  1  0.25530211  0.02524396  0.25699552  1
  O  O325  1  0.24968371  0.01822256  0.58455992  1
  O  O326  1  0.25365154  0.01890259  0.92096766  1
  O  O327  1  0.24704056  0.52453865  0.24607978  1
  O  O328  1  0.24152229  0.51561889  0.58028457  1
  O  O329  1  0.24600402  0.51660525  0.91281472  1
  O  O330  1  0.58534756  0.02059340  0.25389749  1
  O  O331  1  0.58815297  0.01938063  0.58608733  1
  O  O332  1  0.58553113  0.00165124  0.91541420  1
  O  O333  1  0.57982802  0.52671312  0.24599661  1
  O  O334  1  0.57969760  0.51171729  0.57166749  1
  O  O335  1  0.58269156  0.52050375  0.91883278  1
  O  O336  1  0.92320949  0.01841025  0.25570364  1
  O  O337  1  0.92732421  0.01032598  0.59350021  1
  O  O338  1  0.91545482  0.01266378  0.91440516  1
  O  O339  1  0.91568165  0.52294716  0.25366340  1
  O  O340  1  0.91692810  0.52888348  0.58215587  1
  O  O341  1  0.91351571  0.52012749  0.91202384  1
  O  O342  1  0.08772588  0.22871662  0.25023891  1
  O  O343  1  0.08643532  0.22938098  0.58454144  1
  O  O344  1  0.09156904  0.23488356  0.90616918  1
  O  O345  1  0.08282743  0.72604084  0.25526671  1
  O  O346  1  0.08252572  0.72213050  0.58325954  1
  O  O347  1  0.08564844  0.73338852  0.91063025  1
  O  O348  1  0.42041288  0.22758493  0.24819636  1
  O  O349  1  0.42271558  0.23145194  0.57616461  1
  O  O350  1  0.40981590  0.24104928  0.92318162  1
  O  O351  1  0.41482600  0.72632430  0.25073512  1
  O  O352  1  0.41791943  0.73426239  0.57606582  1
  O  O353  1  0.41991469  0.72886469  0.91720804  1
  O  O354  1  0.75374853  0.23030248  0.24555488  1
  O  O355  1  0.75089599  0.23623652  0.58332027  1
  O  O356  1  0.75370409  0.23610878  0.91309053  1
  O  O357  1  0.74985668  0.72703743  0.24343865  1
  O  O358  1  0.75623787  0.73320697  0.57786672  1
  O  O359  1  0.74826466  0.72786008  0.91435091  1
