# generated using pymatgen
data_Ba17Sr5La8Pr42Mn72O216
_symmetry_space_group_name_H-M   'P 1'
_cell_length_a   16.67617436
_cell_length_b   15.70608905
_cell_length_c   16.81885158
_cell_angle_alpha   89.99558750
_cell_angle_beta   90.04788553
_cell_angle_gamma   90.00945602
_symmetry_Int_Tables_number   1
_chemical_formula_structural   Ba17Sr5La8Pr42Mn72O216
_chemical_formula_sum   'Ba17 Sr5 La8 Pr42 Mn72 O216'
_cell_volume   4405.14960168
_cell_formula_units_Z   1
loop_
 _symmetry_equiv_pos_site_id
 _symmetry_equiv_pos_as_xyz
  1  'x, y, z'
loop_
 _atom_site_type_symbol
 _atom_site_label
 _atom_site_symmetry_multiplicity
 _atom_site_fract_x
 _atom_site_fract_y
 _atom_site_fract_z
 _atom_site_occupancy
  Ba  Ba0  1  0.16880238  0.62380596  0.83842596  1
  Ba  Ba1  1  0.33205468  0.87521025  0.33480460  1
  Ba  Ba2  1  0.49931129  0.87520112  0.49437692  1
  Ba  Ba3  1  0.82942077  0.12486403  0.16677720  1
  Ba  Ba4  1  0.49627725  0.87525854  0.16358380  1
  Ba  Ba5  1  0.16851224  0.12610577  0.83831739  1
  Ba  Ba6  1  -0.00276551  0.87551342  0.33721052  1
  Ba  Ba7  1  -0.00006561  0.87560178  0.00469705  1
  Ba  Ba8  1  0.66606071  0.12616475  0.99679492  1
  Ba  Ba9  1  0.83468682  0.87404492  0.50054288  1
  Ba  Ba10  1  0.66463756  0.87444728  0.66128355  1
  Ba  Ba11  1  0.00125155  0.37421998  0.00253938  1
  Ba  Ba12  1  0.16647925  0.62282364  0.17094068  1
  Ba  Ba13  1  0.50119453  0.37535090  0.49306101  1
  Ba  Ba14  1  0.49966949  0.87367706  0.82801544  1
  Ba  Ba15  1  -0.00046124  0.87479749  0.67056374  1
  Ba  Ba16  1  0.66647998  0.62422784  0.99593493  1
  Sr  Sr17  1  0.50416351  0.62453682  0.83165024  1
  Sr  Sr18  1  0.83325864  0.62584223  0.16608733  1
  Sr  Sr19  1  0.83135100  0.87430941  0.16663435  1
  Sr  Sr20  1  0.83551848  0.37553617  0.83263451  1
  Sr  Sr21  1  0.16672783  0.12414803  0.50778463  1
  La  La22  1  0.16712832  0.37223174  0.50540982  1
  La  La23  1  -0.00183950  0.62734570  0.33373285  1
  La  La24  1  0.49957765  0.62655649  0.16211687  1
  La  La25  1  0.83280163  0.62687284  0.50037821  1
  La  La26  1  0.83519481  0.12318303  0.83681521  1
  La  La27  1  0.66674726  0.87361515  -0.00250210  1
  La  La28  1  0.33071899  0.37540249  0.33440376  1
  La  La29  1  0.83357252  0.37618852  0.16073008  1
  Pr  Pr30  1  0.00177211  0.37488083  0.33695082  1
  Pr  Pr31  1  0.33723828  0.62715541  0.99511050  1
  Pr  Pr32  1  0.50607416  0.37654467  0.82489329  1
  Pr  Pr33  1  0.16439415  0.87373511  0.83511250  1
  Pr  Pr34  1  0.32874514  0.87564018  0.66818278  1
  Pr  Pr35  1  0.83619211  0.62768959  0.83805990  1
  Pr  Pr36  1  0.16362013  0.87432427  0.16841969  1
  Pr  Pr37  1  0.16840767  0.62809933  0.50713238  1
  Pr  Pr38  1  0.33687212  0.12321050  0.99759837  1
  Pr  Pr39  1  0.83769972  0.37577688  0.49909085  1
  Pr  Pr40  1  0.33853679  0.62500181  0.66541399  1
  Pr  Pr41  1  0.50041935  0.37356233  0.15856360  1
  Pr  Pr42  1  0.67493251  0.37585039  0.33117442  1
  Pr  Pr43  1  0.16208310  0.12684027  0.17272028  1
  Pr  Pr44  1  0.83242067  0.12219369  0.50063548  1
  Pr  Pr45  1  0.50294701  0.12327051  0.83015258  1
  Pr  Pr46  1  0.16284395  0.87803377  0.49900999  1
  Pr  Pr47  1  0.33569392  0.12458213  0.66245060  1
  Pr  Pr48  1  0.00589839  0.37385523  0.67692282  1
  Pr  Pr49  1  0.66452049  0.12460184  0.66119501  1
  Pr  Pr50  1  0.66975317  0.87611457  0.33642142  1
  Pr  Pr51  1  0.49717851  0.12485272  0.49519242  1
  Pr  Pr52  1  0.33100581  0.12521591  0.33428178  1
  Pr  Pr53  1  -0.00323351  0.62464104  1.00262341  1
  Pr  Pr54  1  0.33672868  0.62429040  0.33202933  1
  Pr  Pr55  1  -0.00649885  0.12290393  0.33694396  1
  Pr  Pr56  1  0.50393935  0.62648786  0.49658720  1
  Pr  Pr57  1  0.49663633  0.12348632  0.16435581  1
  Pr  Pr58  1  0.66465706  0.62569193  0.32560838  1
  Pr  Pr59  1  0.16700437  0.37635042  0.83531292  1
  Pr  Pr60  1  0.66026913  0.12492479  0.32519765  1
  Pr  Pr61  1  0.33112262  0.37569858  0.00002859  1
  Pr  Pr62  1  -0.00589564  0.12493778  1.00181255  1
  Pr  Pr63  1  0.00037458  0.62186083  0.66772431  1
  Pr  Pr64  1  -0.00272355  0.12751512  0.66629557  1
  Pr  Pr65  1  0.67022640  0.37713651  -0.00375644  1
  Pr  Pr66  1  0.33501075  0.37370614  0.67101147  1
  Pr  Pr67  1  0.16468365  0.37587920  0.16859472  1
  Pr  Pr68  1  0.32856649  0.87422029  0.00269083  1
  Pr  Pr69  1  0.82595417  0.87542788  0.82801160  1
  Pr  Pr70  1  0.67158024  0.37743491  0.66659200  1
  Pr  Pr71  1  0.66564550  0.62710919  0.66565653  1
  Mn  Mn72  1  -0.00071536  0.00146191  0.16988395  1
  Mn  Mn73  1  0.00079559  0.00360405  0.50329947  1
  Mn  Mn74  1  0.00074294  0.00045438  0.83622191  1
  Mn  Mn75  1  -0.00132009  0.50050264  0.17122766  1
  Mn  Mn76  1  0.00114704  0.49831564  0.50339193  1
  Mn  Mn77  1  0.00100046  0.50036376  0.83553594  1
  Mn  Mn78  1  0.32940561  0.00199880  0.16555323  1
  Mn  Mn79  1  0.33192777  0.00184903  0.50103728  1
  Mn  Mn80  1  0.33346041  0.00045158  0.83269257  1
  Mn  Mn81  1  0.33431669  0.49825540  0.16692632  1
  Mn  Mn82  1  0.33208720  0.49943112  0.49946335  1
  Mn  Mn83  1  0.33711193  0.49827441  0.83375216  1
  Mn  Mn84  1  0.66413924  -0.00185527  0.16414777  1
  Mn  Mn85  1  0.66687452  0.00362229  0.49458757  1
  Mn  Mn86  1  0.66656338  0.00189043  0.82912603  1
  Mn  Mn87  1  0.66453400  0.49948212  0.16382958  1
  Mn  Mn88  1  0.66886678  0.49869917  0.49675912  1
  Mn  Mn89  1  0.66951003  0.49859411  0.82999396  1
  Mn  Mn90  1  -0.00033517  0.24908219  0.17210597  1
  Mn  Mn91  1  -0.00065156  0.25190464  0.50463163  1
  Mn  Mn92  1  0.00168847  0.24949577  0.83562474  1
  Mn  Mn93  1  -0.00184846  0.74928781  0.16943409  1
  Mn  Mn94  1  0.00142206  0.74676859  0.50275045  1
  Mn  Mn95  1  0.00044988  0.74950198  0.83730045  1
  Mn  Mn96  1  0.33191540  0.25026928  0.16661432  1
  Mn  Mn97  1  0.33276109  0.25147164  0.50044172  1
  Mn  Mn98  1  0.33710464  0.25093879  0.83413687  1
  Mn  Mn99  1  0.33131698  0.74860769  0.16593529  1
  Mn  Mn100  1  0.33237249  0.74771083  0.50028797  1
  Mn  Mn101  1  0.33411047  0.74975510  0.83298165  1
  Mn  Mn102  1  0.66282835  0.25231641  0.16360702  1
  Mn  Mn103  1  0.66874420  0.25145492  0.49589102  1
  Mn  Mn104  1  0.66883729  0.25187572  0.82770317  1
  Mn  Mn105  1  0.66592110  0.75027353  0.16453086  1
  Mn  Mn106  1  0.66709967  0.74682078  0.49517216  1
  Mn  Mn107  1  0.66683978  0.74849457  0.83059857  1
  Mn  Mn108  1  0.16904021  0.25005829  0.00545659  1
  Mn  Mn109  1  0.16559030  0.24933190  0.33844809  1
  Mn  Mn110  1  0.16931152  0.24964031  0.67112519  1
  Mn  Mn111  1  0.16703901  0.74873477  0.00382204  1
  Mn  Mn112  1  0.16653463  0.74862444  0.33849074  1
  Mn  Mn113  1  0.16800533  0.74892059  0.67045449  1
  Mn  Mn114  1  0.49910904  0.25113054  -0.00638243  1
  Mn  Mn115  1  0.49814989  0.25180577  0.32704525  1
  Mn  Mn116  1  0.50177126  0.25155876  0.66177939  1
  Mn  Mn117  1  0.49864142  0.75043586  -0.00380991  1
  Mn  Mn118  1  0.50000630  0.74760388  0.33027251  1
  Mn  Mn119  1  0.49819172  0.74730704  0.66340375  1
  Mn  Mn120  1  0.83278830  0.25137206  -0.00151542  1
  Mn  Mn121  1  0.83279597  0.25213809  0.33409983  1
  Mn  Mn122  1  0.83374403  0.25062794  0.66599865  1
  Mn  Mn123  1  0.83353921  0.75037297  0.00079149  1
  Mn  Mn124  1  0.83125392  0.74743954  0.33216793  1
  Mn  Mn125  1  0.83395885  0.74735340  0.66949158  1
  Mn  Mn126  1  0.16770470  0.00224414  0.00485837  1
  Mn  Mn127  1  0.16567329  0.00392345  0.33758611  1
  Mn  Mn128  1  0.16730328  0.00091457  0.67055957  1
  Mn  Mn129  1  0.16833100  0.49935435  0.00398376  1
  Mn  Mn130  1  0.16591303  0.49713938  0.33994629  1
  Mn  Mn131  1  0.16974657  0.50046024  0.66996074  1
  Mn  Mn132  1  0.49871536  0.00001369  -0.00377564  1
  Mn  Mn133  1  0.49906615  0.00230307  0.32973546  1
  Mn  Mn134  1  0.49849220  0.00165017  0.66269311  1
  Mn  Mn135  1  0.49876395  0.49677671  -0.00562035  1
  Mn  Mn136  1  0.49935316  0.49862405  0.32723299  1
  Mn  Mn137  1  0.50129590  0.50049082  0.66169263  1
  Mn  Mn138  1  0.83308575  -0.00078525  -0.00059996  1
  Mn  Mn139  1  0.83064422  0.00110991  0.33393559  1
  Mn  Mn140  1  0.83267284  0.00208379  0.66891170  1
  Mn  Mn141  1  0.83333131  0.49980362  -0.00042095  1
  Mn  Mn142  1  0.83331713  0.49901519  0.33254538  1
  Mn  Mn143  1  0.83513079  0.50047246  0.66634973  1
  O  O144  1  0.18036730  0.12787879  0.02830702  1
  O  O145  1  0.17695211  0.12877394  0.35913305  1
  O  O146  1  0.17502410  0.12691089  0.68187719  1
  O  O147  1  0.18015872  0.62140279  0.01433725  1
  O  O148  1  0.16919475  0.61666356  0.36322548  1
  O  O149  1  0.17340604  0.62356017  0.68248278  1
  O  O150  1  0.49800193  0.12794840  0.02045118  1
  O  O151  1  0.50869317  0.13043534  0.34983672  1
  O  O152  1  0.50019037  0.13172240  0.68696031  1
  O  O153  1  0.49618325  0.61964560  0.01875343  1
  O  O154  1  0.50389842  0.61930399  0.35177680  1
  O  O155  1  0.49886855  0.62144517  0.68248684  1
  O  O156  1  0.83710082  0.12768449  0.00870818  1
  O  O157  1  0.82869718  0.13152105  0.35557654  1
  O  O158  1  0.83334911  0.12942229  0.69232830  1
  O  O159  1  0.83716431  0.62328879  0.01582964  1
  O  O160  1  0.82599425  0.61859941  0.35588024  1
  O  O161  1  0.83623855  0.62176984  0.69324621  1
  O  O162  1  0.16076519  0.37174689  0.31165471  1
  O  O163  1  0.16355539  0.37584247  0.64892415  1
  O  O164  1  0.16858818  0.37324305  0.97942465  1
  O  O165  1  0.16493517  0.88203552  0.31339341  1
  O  O166  1  0.17216721  0.87302792  0.64303161  1
  O  O167  1  0.16993768  0.87738188  0.97902122  1
  O  O168  1  0.48750179  0.37495264  0.30431733  1
  O  O169  1  0.49898382  0.37576876  0.64732482  1
  O  O170  1  0.48804366  0.37267763  0.96841181  1
  O  O171  1  0.50415712  0.87509826  0.32204533  1
  O  O172  1  0.49132150  0.87147666  0.65083935  1
  O  O173  1  0.48756280  0.87862253  0.98621055  1
  O  O174  1  0.83722854  0.37544862  0.30618507  1
  O  O175  1  0.83424884  0.37569011  0.63977846  1
  O  O176  1  0.82785311  0.37478262  0.98396902  1
  O  O177  1  0.82564870  0.87399337  0.31934172  1
  O  O178  1  0.83311669  0.87293596  0.65850453  1
  O  O179  1  0.83009449  0.87515378  0.97444181  1
  O  O180  1  0.00020969  0.37448231  0.19314278  1
  O  O181  1  -0.00718749  0.37584418  0.53361583  1
  O  O182  1  0.00657073  0.37556266  0.84551581  1
  O  O183  1  0.00699394  0.87829260  0.18078908  1
  O  O184  1  0.00646828  0.87532804  0.51311554  1
  O  O185  1  0.00665979  0.87491083  0.84808372  1
  O  O186  1  0.34348869  0.37336857  0.19317156  1
  O  O187  1  0.33470644  0.37619645  0.52638892  1
  O  O188  1  0.34938137  0.37358477  0.85626494  1
  O  O189  1  0.32989593  0.87504297  0.17915143  1
  O  O190  1  0.33264497  0.87456340  0.52283136  1
  O  O191  1  0.33333928  0.87686325  0.85662518  1
  O  O192  1  0.65969156  0.37590337  0.18794709  1
  O  O193  1  0.67115602  0.37516831  0.52437071  1
  O  O194  1  0.66318163  0.37390374  0.85074708  1
  O  O195  1  0.66665285  0.87246575  0.19015227  1
  O  O196  1  0.66490210  0.87499757  0.50330263  1
  O  O197  1  0.67521437  0.87552050  0.84725294  1
  O  O198  1  0.00647443  0.12706298  0.14648863  1
  O  O199  1  0.00015319  0.13184444  0.48067964  1
  O  O200  1  -0.00423114  0.12602099  0.81091365  1
  O  O201  1  -0.00206912  0.62165081  0.14798680  1
  O  O202  1  0.00906484  0.61747714  0.47788065  1
  O  O203  1  -0.00580141  0.62360356  0.81171917  1
  O  O204  1  0.32258209  0.12937516  0.14026226  1
  O  O205  1  0.32785099  0.12910182  0.48094071  1
  O  O206  1  0.33566021  0.12837074  0.80564781  1
  O  O207  1  0.33417374  0.62064171  0.14036223  1
  O  O208  1  0.31797086  0.62006834  0.47520006  1
  O  O209  1  0.33182939  0.62134917  0.80943198  1
  O  O210  1  0.65746499  0.12857786  0.15383651  1
  O  O211  1  0.67363857  0.13107124  0.46941566  1
  O  O212  1  0.66608080  0.13055844  0.80623600  1
  O  O213  1  0.66330267  0.62293770  0.15219034  1
  O  O214  1  0.66866579  0.61910494  0.47071539  1
  O  O215  1  0.67205706  0.62027063  0.81149284  1
  O  O216  1  0.08109236  0.02802056  0.25884748  1
  O  O217  1  0.08179806  0.01938614  0.59134551  1
  O  O218  1  0.08063118  0.02101633  0.93165789  1
  O  O219  1  0.07678121  0.51141271  0.26555962  1
  O  O220  1  0.08201542  0.51853237  0.58772394  1
  O  O221  1  0.08019693  0.51582162  0.92819581  1
  O  O222  1  0.41250329  0.02557516  0.24668429  1
  O  O223  1  0.41885330  0.02591863  0.57769264  1
  O  O224  1  0.41988299  0.02548033  0.90876555  1
  O  O225  1  0.41665896  0.52621787  0.24571125  1
  O  O226  1  0.41701365  0.52535578  0.57559166  1
  O  O227  1  0.41606857  0.52282655  0.91553490  1
  O  O228  1  0.73922457  0.01233365  0.25628395  1
  O  O229  1  0.74949243  0.02457229  0.58203649  1
  O  O230  1  0.75567195  0.01212574  0.90802669  1
  O  O231  1  0.74332004  0.50907746  0.25635887  1
  O  O232  1  0.75167402  0.52229980  0.58632099  1
  O  O233  1  0.75562376  0.51008535  0.91022480  1
  O  O234  1  0.24860867  0.23571913  0.25120753  1
  O  O235  1  0.25496820  0.24123723  0.59168434  1
  O  O236  1  0.25984625  0.24206776  0.92487449  1
  O  O237  1  0.25534115  0.73293702  0.26032507  1
  O  O238  1  0.25692287  0.73005583  0.59158928  1
  O  O239  1  0.25927887  0.74121373  0.92606841  1
  O  O240  1  0.56965035  0.23779712  0.23452292  1
  O  O241  1  0.58333854  0.22657075  0.57467014  1
  O  O242  1  0.57672420  0.23846259  0.89935443  1
  O  O243  1  0.58191826  0.72823269  0.24707662  1
  O  O244  1  0.58540114  0.72561735  0.57785180  1
  O  O245  1  0.58746642  0.74668799  0.91478329  1
  O  O246  1  0.92046271  0.23278281  0.25916692  1
  O  O247  1  0.91179823  0.22488996  0.58070750  1
  O  O248  1  0.91830368  0.23268683  0.91404018  1
  O  O249  1  0.91578913  0.73155533  0.25542299  1
  O  O250  1  0.92076640  0.72502675  0.58932529  1
  O  O251  1  0.92061171  0.72745565  0.92230209  1
  O  O252  1  0.08784090  0.48411161  0.09535582  1
  O  O253  1  0.08355063  0.46950072  0.42573215  1
  O  O254  1  0.08779890  0.48294606  0.75440827  1
  O  O255  1  0.09310197  0.99217677  0.09811992  1
  O  O256  1  0.08704685  0.99249172  0.42439597  1
  O  O257  1  0.08825126  0.98704750  0.75919108  1
  O  O258  1  0.41742539  0.47654318  0.07967321  1
  O  O259  1  0.40824012  0.49000041  0.40703459  1
  O  O260  1  0.41762456  0.48067347  0.74515338  1
  O  O261  1  0.40723924  0.99742496  0.07562663  1
  O  O262  1  0.41569397  1.00568856  0.41305853  1
  O  O263  1  0.40462163  0.99073752  0.73904743  1
  O  O264  1  0.74674004  0.47836168  0.08253185  1
  O  O265  1  0.75679042  0.47316919  0.41864582  1
  O  O266  1  0.75122410  0.47892526  0.74465211  1
  O  O267  1  0.74808398  0.98125705  0.07888124  1
  O  O268  1  0.74874196  0.98873556  0.41470150  1
  O  O269  1  0.74992462  0.99093629  0.74870418  1
  O  O270  1  0.25143688  0.28078347  0.08806007  1
  O  O271  1  0.24899111  0.27540387  0.41997665  1
  O  O272  1  0.25380049  0.27843463  0.75717046  1
  O  O273  1  0.24507674  0.77217949  0.08869384  1
  O  O274  1  0.24169843  0.76677127  0.43088982  1
  O  O275  1  0.24714687  0.77480941  0.75607229  1
  O  O276  1  0.58336385  0.27752806  0.07105625  1
  O  O277  1  0.59186691  0.26766843  0.39968806  1
  O  O278  1  0.58863570  0.27288438  0.73933412  1
  O  O279  1  0.58206716  0.76255625  0.07948356  1
  O  O280  1  0.58509548  0.75408634  0.40903840  1
  O  O281  1  0.58315956  0.75014895  0.74435113  1
  O  O282  1  0.91536186  0.26329753  0.09209965  1
  O  O283  1  0.91918213  0.27347654  0.41972469  1
  O  O284  1  0.92346733  0.26624390  0.74023243  1
  O  O285  1  0.91113685  0.75852623  0.08728424  1
  O  O286  1  0.91469880  0.74497889  0.42132690  1
  O  O287  1  0.90945597  0.76126447  0.76397570  1
  O  O288  1  0.25088084  0.47235574  0.08931269  1
  O  O289  1  0.24630019  0.46998066  0.42336388  1
  O  O290  1  0.25415877  0.47198380  0.75467258  1
  O  O291  1  0.24732489  0.97500827  0.08674660  1
  O  O292  1  0.24537409  0.98428457  0.42639484  1
  O  O293  1  0.24668805  0.97495500  0.75675283  1
  O  O294  1  0.58105409  0.47340966  0.07466034  1
  O  O295  1  0.58917270  0.48178023  0.40037215  1
  O  O296  1  0.58832322  0.48119515  0.74252931  1
  O  O297  1  0.58561448  0.98386010  0.07406015  1
  O  O298  1  0.58971280  0.99462187  0.40383480  1
  O  O299  1  0.58144282  0.99878486  0.74295584  1
  O  O300  1  0.91107815  0.48552929  0.08913357  1
  O  O301  1  0.92024391  0.47847536  0.41755087  1
  O  O302  1  0.92319050  0.48308621  0.74162127  1
  O  O303  1  0.91733505  0.99513483  0.08547432  1
  O  O304  1  0.91473019  1.00339957  0.42132138  1
  O  O305  1  0.90970726  0.98942778  0.75861854  1
  O  O306  1  0.09196436  0.26310115  0.10058295  1
  O  O307  1  0.08189727  0.27452582  0.42512355  1
  O  O308  1  0.08955029  0.26851165  0.75740638  1
  O  O309  1  0.08688562  0.76020567  0.09111051  1
  O  O310  1  0.08763973  0.75968497  0.42682422  1
  O  O311  1  0.08664193  0.76042794  0.75635883  1
  O  O312  1  0.41652178  0.26777602  0.08250637  1
  O  O313  1  0.41202902  0.25811097  0.40821654  1
  O  O314  1  0.41922637  0.27032872  0.74684780  1
  O  O315  1  0.40549587  0.75619615  0.07265153  1
  O  O316  1  0.41309215  0.74491348  0.41241886  1
  O  O317  1  0.40415132  0.75838141  0.73686726  1
  O  O318  1  0.74686029  0.27195068  0.08459155  1
  O  O319  1  0.75596120  0.27897961  0.41998014  1
  O  O320  1  0.75052757  0.27333787  0.74429766  1
  O  O321  1  0.74473987  0.77025212  0.07677074  1
  O  O322  1  0.74476447  0.75910588  0.40977244  1
  O  O323  1  0.74911005  0.75698863  0.74754099  1
  O  O324  1  0.24728095  0.02350748  0.25160956  1
  O  O325  1  0.25782521  0.01310545  0.59359842  1
  O  O326  1  0.25965561  0.01394084  0.92609911  1
  O  O327  1  0.25498385  0.50611488  0.26178594  1
  O  O328  1  0.25277997  0.51563680  0.58672466  1
  O  O329  1  0.25819439  0.50202251  0.92300980  1
  O  O330  1  0.57525411  0.02005423  0.24233610  1
  O  O331  1  0.58345403  0.02648231  0.57385197  1
  O  O332  1  0.58182643  0.01316531  0.90744593  1
  O  O333  1  0.57627221  0.51702703  0.23988023  1
  O  O334  1  0.58443500  0.52257591  0.57831145  1
  O  O335  1  0.58069639  0.50296189  0.90921551  1
  O  O336  1  0.91752166  0.01665081  0.25666151  1
  O  O337  1  0.91673027  0.02465179  0.58816570  1
  O  O338  1  0.91904318  0.02001782  0.91897502  1
  O  O339  1  0.91558215  0.51976462  0.25459919  1
  O  O340  1  0.91600549  0.52636232  0.58073994  1
  O  O341  1  0.91794428  0.51987276  0.91675924  1
  O  O342  1  0.08019146  0.22666824  0.26065281  1
  O  O343  1  0.07570758  0.23684871  0.59282093  1
  O  O344  1  0.08102828  0.23139581  0.93143100  1
  O  O345  1  0.08061095  0.73378062  0.26120640  1
  O  O346  1  0.08552655  0.72686482  0.58799981  1
  O  O347  1  0.08092915  0.73238935  0.92612029  1
  O  O348  1  0.41119199  0.22022398  0.24687958  1
  O  O349  1  0.41834047  0.22756136  0.57964623  1
  O  O350  1  0.41810154  0.22079068  0.91330599  1
  O  O351  1  0.41806009  0.72665758  0.24488677  1
  O  O352  1  0.41876693  0.72176917  0.57523034  1
  O  O353  1  0.41849999  0.72854476  0.90985247  1
  O  O354  1  0.73735295  0.24263571  0.25833039  1
  O  O355  1  0.74964027  0.22840894  0.58482926  1
  O  O356  1  0.75077355  0.23971377  0.90724629  1
  O  O357  1  0.74641139  0.73136742  0.24953471  1
  O  O358  1  0.75075244  0.72498606  0.58069529  1
  O  O359  1  0.75912493  0.73836446  0.90788100  1
