# generated using pymatgen
data_Ba17Sr5La8Pr42Mn72O216
_symmetry_space_group_name_H-M   'P 1'
_cell_length_a   16.68098334
_cell_length_b   15.70729166
_cell_length_c   16.82165136
_cell_angle_alpha   90.00508817
_cell_angle_beta   89.99156972
_cell_angle_gamma   90.02151957
_symmetry_Int_Tables_number   1
_chemical_formula_structural   Ba17Sr5La8Pr42Mn72O216
_chemical_formula_sum   'Ba17 Sr5 La8 Pr42 Mn72 O216'
_cell_volume   4407.49214792
_cell_formula_units_Z   1
loop_
 _symmetry_equiv_pos_site_id
 _symmetry_equiv_pos_as_xyz
  1  'x, y, z'
loop_
 _atom_site_type_symbol
 _atom_site_label
 _atom_site_symmetry_multiplicity
 _atom_site_fract_x
 _atom_site_fract_y
 _atom_site_fract_z
 _atom_site_occupancy
  Ba  Ba0  1  0.66910459  0.37286379  0.66807251  1
  Ba  Ba1  1  0.49702588  0.62574089  0.49864542  1
  Ba  Ba2  1  0.66125730  0.62592827  0.33328347  1
  Ba  Ba3  1  -0.00166885  0.62536813  1.00006371  1
  Ba  Ba4  1  0.00249988  0.87554899  0.00076763  1
  Ba  Ba5  1  0.33205977  0.62482987  0.99857787  1
  Ba  Ba6  1  0.66865022  0.87560463  -0.00131657  1
  Ba  Ba7  1  0.50378245  0.87569987  0.83515857  1
  Ba  Ba8  1  0.83173441  0.62297232  0.16835167  1
  Ba  Ba9  1  0.49484081  0.12515966  0.16988588  1
  Ba  Ba10  1  0.83432508  0.37293517  0.16905927  1
  Ba  Ba11  1  0.33155317  0.62648914  0.66250969  1
  Ba  Ba12  1  0.83228990  0.12536347  0.16937565  1
  Ba  Ba13  1  0.16858843  0.37377092  0.82949301  1
  Ba  Ba14  1  0.00116694  0.87463809  0.33513400  1
  Ba  Ba15  1  0.66660592  0.62448537  1.00204046  1
  Ba  Ba16  1  0.49898138  0.62533040  0.83345314  1
  Sr  Sr17  1  0.32791827  0.12311070  0.66436819  1
  Sr  Sr18  1  -0.00604316  0.62400520  0.33019610  1
  Sr  Sr19  1  0.83773987  0.87207247  0.83502133  1
  Sr  Sr20  1  0.17084297  0.37524087  0.16176140  1
  Sr  Sr21  1  0.17278779  0.37316772  0.49522676  1
  La  La22  1  0.00661275  0.37389114  0.66676099  1
  La  La23  1  0.66252413  0.62719290  0.66482942  1
  La  La24  1  0.66871261  0.37579236  0.00041174  1
  La  La25  1  0.66143185  0.12597075  0.33184537  1
  La  La26  1  -0.00374280  0.12686350  0.66739701  1
  La  La27  1  0.34057604  0.87490305  0.00019672  1
  La  La28  1  0.67093500  0.37296367  0.33753732  1
  La  La29  1  0.49644975  0.62873202  0.16879450  1
  Pr  Pr30  1  0.32015777  0.12609294  0.32910122  1
  Pr  Pr31  1  0.17044562  0.87403364  0.16081464  1
  Pr  Pr32  1  0.84017082  0.37776771  0.83211523  1
  Pr  Pr33  1  0.34124749  0.37157760  0.33433729  1
  Pr  Pr34  1  0.82618685  0.12273244  0.83767458  1
  Pr  Pr35  1  0.83686152  0.87406758  0.50063072  1
  Pr  Pr36  1  -0.00930745  0.12709152  0.99782185  1
  Pr  Pr37  1  0.15878735  0.12585380  0.16365751  1
  Pr  Pr38  1  0.82870604  0.62467530  0.84081369  1
  Pr  Pr39  1  0.00495553  0.37817440  0.33277878  1
  Pr  Pr40  1  0.50855719  0.87582437  0.16153848  1
  Pr  Pr41  1  0.32647848  0.12666766  0.99387902  1
  Pr  Pr42  1  0.82995487  0.12485492  0.50368225  1
  Pr  Pr43  1  0.50724062  0.87381872  0.50200972  1
  Pr  Pr44  1  0.66148394  0.12149412  0.66587580  1
  Pr  Pr45  1  0.00852048  0.87699253  0.67156358  1
  Pr  Pr46  1  0.66379043  0.12552633  1.00214859  1
  Pr  Pr47  1  0.50388354  0.37494065  0.16737089  1
  Pr  Pr48  1  0.15926807  0.62619905  0.49937580  1
  Pr  Pr49  1  0.34040475  0.87891534  0.33227712  1
  Pr  Pr50  1  0.34226036  0.37689427  0.00103827  1
  Pr  Pr51  1  0.50183675  0.38024105  0.83270203  1
  Pr  Pr52  1  0.17588494  0.87654557  0.49428469  1
  Pr  Pr53  1  0.67276179  0.87748448  0.33298741  1
  Pr  Pr54  1  -0.00210166  0.62284478  0.66640940  1
  Pr  Pr55  1  0.15589739  0.12527056  0.83298216  1
  Pr  Pr56  1  0.34420324  0.87586862  0.66702754  1
  Pr  Pr57  1  0.32430200  0.62365225  0.32628564  1
  Pr  Pr58  1  0.16328544  0.62385318  0.83481970  1
  Pr  Pr59  1  0.49574903  0.12912313  0.83939589  1
  Pr  Pr60  1  0.15656878  0.12326060  0.50069963  1
  Pr  Pr61  1  0.67520913  0.87242064  0.67617112  1
  Pr  Pr62  1  0.50467837  0.37838429  0.49989678  1
  Pr  Pr63  1  0.49379009  0.12637348  0.50469311  1
  Pr  Pr64  1  0.82885433  0.62553077  0.50055482  1
  Pr  Pr65  1  0.34089399  0.37523523  0.66657330  1
  Pr  Pr66  1  0.15394041  0.62361454  0.16761717  1
  Pr  Pr67  1  0.83702659  0.87031083  0.16377148  1
  Pr  Pr68  1  -0.00321107  0.12814490  0.33182461  1
  Pr  Pr69  1  0.83845016  0.37571529  0.49598480  1
  Pr  Pr70  1  0.00707107  0.37516914  0.00507962  1
  Pr  Pr71  1  0.17258618  0.87302468  0.83033808  1
  Mn  Mn72  1  0.00069655  0.00087409  0.16803297  1
  Mn  Mn73  1  -0.00124131  -0.00039394  0.50251219  1
  Mn  Mn74  1  -0.00004836  -0.00060628  0.83320231  1
  Mn  Mn75  1  0.00074470  0.49756778  0.16840013  1
  Mn  Mn76  1  0.00141160  0.50053793  0.49932989  1
  Mn  Mn77  1  0.00114276  0.49934039  0.83143528  1
  Mn  Mn78  1  0.32999950  0.00172204  0.16643524  1
  Mn  Mn79  1  0.33417743  0.00183143  0.49822985  1
  Mn  Mn80  1  0.33257734  0.00202479  0.83014289  1
  Mn  Mn81  1  0.33130572  0.49807392  0.16677746  1
  Mn  Mn82  1  0.33121594  0.49795805  0.49689958  1
  Mn  Mn83  1  0.33203163  0.49868932  0.83203010  1
  Mn  Mn84  1  0.66646772  0.00227297  0.16933454  1
  Mn  Mn85  1  0.66746580  -0.00031715  0.50172478  1
  Mn  Mn86  1  0.66841112  0.00167074  0.83230984  1
  Mn  Mn87  1  0.66369622  0.49754065  0.16905868  1
  Mn  Mn88  1  0.66835710  0.50013963  0.50210276  1
  Mn  Mn89  1  0.66851577  0.49762127  0.83324835  1
  Mn  Mn90  1  0.00231981  0.24996239  0.16631281  1
  Mn  Mn91  1  0.00028917  0.25076196  0.49950375  1
  Mn  Mn92  1  -0.00170765  0.24935311  0.83288585  1
  Mn  Mn93  1  0.00024992  0.75079885  0.16956918  1
  Mn  Mn94  1  -0.00028775  0.74840568  0.50244283  1
  Mn  Mn95  1  0.00160045  0.75151197  0.83102701  1
  Mn  Mn96  1  0.33066207  0.24976645  0.16459846  1
  Mn  Mn97  1  0.33285617  0.24782503  0.49974543  1
  Mn  Mn98  1  0.33270356  0.24915423  0.82986738  1
  Mn  Mn99  1  0.33062069  0.75125628  0.16793068  1
  Mn  Mn100  1  0.33224076  0.75320787  0.49598753  1
  Mn  Mn101  1  0.33255446  0.75129426  0.83099462  1
  Mn  Mn102  1  0.66459422  0.25011171  0.16899638  1
  Mn  Mn103  1  0.66731881  0.24764383  0.50238230  1
  Mn  Mn104  1  0.66713333  0.24850807  0.83485976  1
  Mn  Mn105  1  0.66515010  0.75037947  0.16913107  1
  Mn  Mn106  1  0.66829837  0.75334475  0.50202335  1
  Mn  Mn107  1  0.67009841  0.75030736  0.83295653  1
  Mn  Mn108  1  0.16749169  0.25001423  -0.00188089  1
  Mn  Mn109  1  0.16604038  0.25142722  0.33108238  1
  Mn  Mn110  1  0.16835795  0.24819651  0.66257213  1
  Mn  Mn111  1  0.16832943  0.75054691  -0.00237444  1
  Mn  Mn112  1  0.16635597  0.75116791  0.33187499  1
  Mn  Mn113  1  0.16672071  0.75150615  0.66346409  1
  Mn  Mn114  1  0.49894647  0.24909483  0.00151475  1
  Mn  Mn115  1  0.49805698  0.24842932  0.33744924  1
  Mn  Mn116  1  0.49903174  0.24748159  0.66925554  1
  Mn  Mn117  1  0.50045772  0.75032159  0.00124071  1
  Mn  Mn118  1  0.49575319  0.75443340  0.33289423  1
  Mn  Mn119  1  0.50182254  0.75156525  0.66517429  1
  Mn  Mn120  1  0.83217155  0.24928218  -0.00133069  1
  Mn  Mn121  1  0.83389560  0.24993983  0.33772058  1
  Mn  Mn122  1  0.83427880  0.24992569  0.66823801  1
  Mn  Mn123  1  0.83417039  0.75067523  -0.00011178  1
  Mn  Mn124  1  0.83273640  0.75199079  0.33477500  1
  Mn  Mn125  1  0.83762451  0.74789298  0.66816294  1
  Mn  Mn126  1  0.16776693  0.00176557  -0.00209996  1
  Mn  Mn127  1  0.16567540  0.00071959  0.33105820  1
  Mn  Mn128  1  0.16761911  0.00049565  0.66407582  1
  Mn  Mn129  1  0.16772289  0.49897598  -0.00122068  1
  Mn  Mn130  1  0.16680207  0.49800816  0.33192746  1
  Mn  Mn131  1  0.16781479  0.49919016  0.66188474  1
  Mn  Mn132  1  0.49836808  0.00268433  0.00235453  1
  Mn  Mn133  1  0.49885870  -0.00021521  0.33626618  1
  Mn  Mn134  1  0.50129737  0.00244140  0.66742696  1
  Mn  Mn135  1  0.50101688  0.49762453  0.00099935  1
  Mn  Mn136  1  0.49559149  0.49875546  0.33246893  1
  Mn  Mn137  1  0.50049408  0.49856509  0.66524244  1
  Mn  Mn138  1  0.83276382  -0.00033294  0.00252959  1
  Mn  Mn139  1  0.83363856  0.00079616  0.33676621  1
  Mn  Mn140  1  0.83558185  0.00129243  0.66817022  1
  Mn  Mn141  1  0.83418216  0.49726335  -0.00138485  1
  Mn  Mn142  1  0.83326105  0.49903390  0.33563289  1
  Mn  Mn143  1  0.83588819  0.50039902  0.66738811  1
  O  O144  1  0.17548866  0.12560144  0.02070599  1
  O  O145  1  0.16874115  0.12590562  0.35813264  1
  O  O146  1  0.16732953  0.12247484  0.68874491  1
  O  O147  1  0.16902023  0.62263762  0.02086832  1
  O  O148  1  0.17409723  0.62246668  0.35696915  1
  O  O149  1  0.16464519  0.63088263  0.68986564  1
  O  O150  1  0.49501677  0.12662274  0.01398142  1
  O  O151  1  0.50462619  0.12344400  0.36203921  1
  O  O152  1  0.50592462  0.12450022  0.69418420  1
  O  O153  1  0.49882706  0.62100130  0.02295893  1
  O  O154  1  0.48802454  0.62685899  0.34136219  1
  O  O155  1  0.50695719  0.62502584  0.67302657  1
  O  O156  1  0.83650288  0.12514366  0.01313639  1
  O  O157  1  0.83829017  0.12515777  0.35998254  1
  O  O158  1  0.84112810  0.12762713  0.69486798  1
  O  O159  1  0.83359600  0.62274809  0.00603219  1
  O  O160  1  0.83435489  0.62398543  0.35392276  1
  O  O161  1  0.84496083  0.62268783  0.69691709  1
  O  O162  1  0.16037424  0.37258694  0.31131935  1
  O  O163  1  0.16007069  0.36983472  0.64469201  1
  O  O164  1  0.15750978  0.37294488  0.98542908  1
  O  O165  1  0.17001354  0.88014721  0.30561819  1
  O  O166  1  0.15617009  0.87734397  0.63628025  1
  O  O167  1  0.17177666  0.88038283  0.97528711  1
  O  O168  1  0.49296923  0.37116240  0.31200564  1
  O  O169  1  0.49592382  0.36897017  0.64467508  1
  O  O170  1  0.49782808  0.36910243  0.97673687  1
  O  O171  1  0.49239132  0.87903439  0.30617511  1
  O  O172  1  0.50276665  0.88061864  0.64746862  1
  O  O173  1  0.49609326  0.88070484  0.99510123  1
  O  O174  1  0.82591381  0.37231273  0.32935772  1
  O  O175  1  0.83787804  0.37358437  0.63951905  1
  O  O176  1  0.83334711  0.37039198  0.97549684  1
  O  O177  1  0.82671734  0.88065791  0.31173744  1
  O  O178  1  0.82924200  0.87662119  0.64273389  1
  O  O179  1  0.83418749  0.87825836  0.98779856  1
  O  O180  1  0.00715478  0.37112675  0.18633467  1
  O  O181  1  -0.00579124  0.37480061  0.52600401  1
  O  O182  1  -0.00550471  0.36922998  0.85942426  1
  O  O183  1  0.00362491  0.87756644  0.17786240  1
  O  O184  1  -0.00778852  0.87166256  0.52864565  1
  O  O185  1  0.00743915  0.87805692  0.84422186  1
  O  O186  1  0.33088236  0.37168856  0.19013364  1
  O  O187  1  0.32958800  0.36674762  0.52384072  1
  O  O188  1  0.33553478  0.37090243  0.85519393  1
  O  O189  1  0.31814787  0.87808825  0.19097873  1
  O  O190  1  0.32242607  0.87995419  0.52273067  1
  O  O191  1  0.32400324  0.87951779  0.85362201  1
  O  O192  1  0.65746549  0.37180628  0.19130130  1
  O  O193  1  0.66880769  0.37249060  0.51151734  1
  O  O194  1  0.66467212  0.36858417  0.85529051  1
  O  O195  1  0.66003459  0.87858756  0.18764058  1
  O  O196  1  0.67026246  0.87969776  0.53121405  1
  O  O197  1  0.67167274  0.87912517  0.83890980  1
  O  O198  1  0.00431835  0.12560577  0.14343365  1
  O  O199  1  0.00154333  0.12823610  0.47467182  1
  O  O200  1  -0.00014131  0.12370356  0.81076675  1
  O  O201  1  0.00317136  0.62448177  0.16006429  1
  O  O202  1  0.00675980  0.62417627  0.47820719  1
  O  O203  1  0.00383783  0.62841202  0.80945837  1
  O  O204  1  0.32751682  0.12625404  0.13878296  1
  O  O205  1  0.34443391  0.12360101  0.47117024  1
  O  O206  1  0.34515039  0.12582561  0.81226991  1
  O  O207  1  0.34423585  0.62395416  0.15692791  1
  O  O208  1  0.32944335  0.63072401  0.47261238  1
  O  O209  1  0.32673142  0.62493398  0.82021821  1
  O  O210  1  0.66576360  0.12776912  0.14895869  1
  O  O211  1  0.67019144  0.12173134  0.47449867  1
  O  O212  1  0.67386838  0.12622558  0.80817080  1
  O  O213  1  0.65785105  0.62250082  0.16133159  1
  O  O214  1  0.67286224  0.62774192  0.49040840  1
  O  O215  1  0.67788727  0.62383759  0.81150177  1
  O  O216  1  0.07892719  0.02625007  0.25589206  1
  O  O217  1  0.07590735  0.02295582  0.59031338  1
  O  O218  1  0.07861433  0.02621813  0.92228967  1
  O  O219  1  0.08152804  0.51508616  0.25588397  1
  O  O220  1  0.07890753  0.52122970  0.58595360  1
  O  O221  1  0.08261353  0.51364894  0.91310311  1
  O  O222  1  0.39931378  0.01672291  0.26166509  1
  O  O223  1  0.41526117  0.01589414  0.58525603  1
  O  O224  1  0.40864742  0.01660366  0.92276688  1
  O  O225  1  0.40032148  0.50760523  0.26286786  1
  O  O226  1  0.41265068  0.50054023  0.58474845  1
  O  O227  1  0.41517854  0.50059136  0.92146896  1
  O  O228  1  0.74098099  0.01608004  0.26412909  1
  O  O229  1  0.74691818  0.02570158  0.58845161  1
  O  O230  1  0.74385448  0.02314587  0.92201987  1
  O  O231  1  0.74146608  0.50027395  0.25925457  1
  O  O232  1  0.75177013  0.52409548  0.59304390  1
  O  O233  1  0.75118200  0.50502704  0.91437496  1
  O  O234  1  0.24260599  0.22749112  0.24089632  1
  O  O235  1  0.24368545  0.22470484  0.56869991  1
  O  O236  1  0.24428801  0.22506107  0.90486063  1
  O  O237  1  0.24038049  0.72669408  0.23786073  1
  O  O238  1  0.23636788  0.73830701  0.56700772  1
  O  O239  1  0.24040166  0.73886027  0.90179707  1
  O  O240  1  0.58039988  0.23661131  0.25791117  1
  O  O241  1  0.58154247  0.22607700  0.58352779  1
  O  O242  1  0.58284429  0.22586183  0.91918444  1
  O  O243  1  0.56763282  0.74298167  0.24288907  1
  O  O244  1  0.58553502  0.74514626  0.58106626  1
  O  O245  1  0.58631979  0.74216866  0.91186517  1
  O  O246  1  0.92064436  0.23931305  0.25772960  1
  O  O247  1  0.91320394  0.22725367  0.57947015  1
  O  O248  1  0.91065223  0.22701835  0.90841275  1
  O  O249  1  0.91181251  0.74731848  0.25060145  1
  O  O250  1  0.91303392  0.72294115  0.58067642  1
  O  O251  1  0.91384780  0.73940474  0.90334867  1
  O  O252  1  0.08780132  0.48693895  0.08516629  1
  O  O253  1  0.08609302  0.47958433  0.41925335  1
  O  O254  1  0.08272533  0.48890266  0.74557266  1
  O  O255  1  0.09769543  0.99013742  0.09198221  1
  O  O256  1  0.09401857  0.98648665  0.42655805  1
  O  O257  1  0.09332948  0.98506765  0.75569589  1
  O  O258  1  0.42231510  0.47618283  0.09182512  1
  O  O259  1  0.42112376  0.47461252  0.42229354  1
  O  O260  1  0.42030496  0.47886694  0.75210265  1
  O  O261  1  0.41678836  0.97914556  0.09588455  1
  O  O262  1  0.42352664  0.97549932  0.42543574  1
  O  O263  1  0.41687421  0.98493618  0.74922316  1
  O  O264  1  0.74889406  0.48266294  0.07936190  1
  O  O265  1  0.75887073  0.48696948  0.42834564  1
  O  O266  1  0.76194429  0.48236131  0.75679664  1
  O  O267  1  0.75458233  0.98573634  0.09525668  1
  O  O268  1  0.75348656  0.97736801  0.42469823  1
  O  O269  1  0.75928856  0.98788566  0.75302085  1
  O  O270  1  0.25938974  0.26713962  0.06691669  1
  O  O271  1  0.25880305  0.26320517  0.40407541  1
  O  O272  1  0.25950164  0.26312884  0.73533821  1
  O  O273  1  0.25704880  0.77267190  0.07664215  1
  O  O274  1  0.25699940  0.77514111  0.40492365  1
  O  O275  1  0.25306119  0.77808006  0.73591531  1
  O  O276  1  0.58238889  0.26937208  0.08153761  1
  O  O277  1  0.58368383  0.26848133  0.41722470  1
  O  O278  1  0.57958420  0.26198435  0.75904604  1
  O  O279  1  0.58120321  0.76110109  0.08713092  1
  O  O280  1  0.58539308  0.77612509  0.41203347  1
  O  O281  1  0.59545863  0.75920970  0.74086101  1
  O  O282  1  0.92670215  0.26265757  0.07204006  1
  O  O283  1  0.92089589  0.27286791  0.41709779  1
  O  O284  1  0.92150822  0.27313083  0.74430765  1
  O  O285  1  0.91610044  0.76254855  0.08717760  1
  O  O286  1  0.91302343  0.76295022  0.42461593  1
  O  O287  1  0.92929581  0.76967822  0.73772944  1
  O  O288  1  0.25951763  0.47924144  0.07498730  1
  O  O289  1  0.25962438  0.47984875  0.40130592  1
  O  O290  1  0.25717961  0.48215778  0.73445959  1
  O  O291  1  0.25769935  0.98200669  0.07324696  1
  O  O292  1  0.25789180  0.98501919  0.40444049  1
  O  O293  1  0.25427242  0.97796506  0.73803644  1
  O  O294  1  0.58471539  0.47385088  0.08034686  1
  O  O295  1  0.58430306  0.47987068  0.40950242  1
  O  O296  1  0.58379952  0.48657321  0.75235697  1
  O  O297  1  0.58514511  0.99354592  0.08547381  1
  O  O298  1  0.58963738  0.97409156  0.41853562  1
  O  O299  1  0.59754376  0.98944359  0.73720388  1
  O  O300  1  0.92333624  0.48079609  0.07449067  1
  O  O301  1  0.92186406  0.47817500  0.41683823  1
  O  O302  1  0.92376338  0.47467523  0.74284213  1
  O  O303  1  0.91719614  0.98900755  0.08772410  1
  O  O304  1  0.91320010  0.98446677  0.42436501  1
  O  O305  1  0.92731295  0.98352306  0.74022802  1
  O  O306  1  0.08890244  0.26065398  0.08470308  1
  O  O307  1  0.08268393  0.26696824  0.41528470  1
  O  O308  1  0.08169520  0.25604848  0.74907518  1
  O  O309  1  0.09438163  0.76056781  0.09260622  1
  O  O310  1  0.09377324  0.76602852  0.43050891  1
  O  O311  1  0.09186463  0.77262039  0.75178476  1
  O  O312  1  0.41942780  0.27321819  0.08808651  1
  O  O313  1  0.42301378  0.27272370  0.42621031  1
  O  O314  1  0.42014592  0.27300396  0.75510083  1
  O  O315  1  0.41972239  0.77054703  0.09894476  1
  O  O316  1  0.42130178  0.77988023  0.42151566  1
  O  O317  1  0.41628760  0.76547764  0.74754589  1
  O  O318  1  0.74632253  0.26214770  0.07778505  1
  O  O319  1  0.75732042  0.26134422  0.42785187  1
  O  O320  1  0.76083079  0.26466167  0.76088117  1
  O  O321  1  0.75284207  0.76392912  0.09374777  1
  O  O322  1  0.75233638  0.77426897  0.42351191  1
  O  O323  1  0.75744243  0.76464698  0.74950635  1
  O  O324  1  0.23967446  0.02577949  0.23977636  1
  O  O325  1  0.24005598  0.01953095  0.56845995  1
  O  O326  1  0.24305944  0.02577945  0.90494211  1
  O  O327  1  0.24115272  0.52122074  0.23885902  1
  O  O328  1  0.23968703  0.51546213  0.56713147  1
  O  O329  1  0.24188590  0.51252611  0.90745578  1
  O  O330  1  0.58245718  0.01366676  0.25550394  1
  O  O331  1  0.57926299  0.02510218  0.57689496  1
  O  O332  1  0.58067224  0.02501720  0.90967159  1
  O  O333  1  0.56241421  0.50836277  0.24023422  1
  O  O334  1  0.58400882  0.50615239  0.58182840  1
  O  O335  1  0.58248910  0.50140657  0.91635674  1
  O  O336  1  0.91830508  0.01663008  0.25907196  1
  O  O337  1  0.91087692  0.02425695  0.58258655  1
  O  O338  1  0.91312319  0.01889517  0.91265409  1
  O  O339  1  0.91632342  0.50102185  0.25526171  1
  O  O340  1  0.91326053  0.52334201  0.57862473  1
  O  O341  1  0.90941718  0.51071820  0.90382350  1
  O  O342  1  0.08099916  0.22564633  0.25295934  1
  O  O343  1  0.07894146  0.22728125  0.58406733  1
  O  O344  1  0.07693653  0.22604285  0.92111126  1
  O  O345  1  0.08149743  0.73249612  0.25613864  1
  O  O346  1  0.07542944  0.72722334  0.59132245  1
  O  O347  1  0.08509093  0.73612632  0.91132357  1
  O  O348  1  0.40565594  0.23316944  0.26483404  1
  O  O349  1  0.41407620  0.22801537  0.58620254  1
  O  O350  1  0.41120886  0.23206163  0.92102896  1
  O  O351  1  0.39963707  0.74222663  0.26276778  1
  O  O352  1  0.41270815  0.75352771  0.58175480  1
  O  O353  1  0.41362881  0.74986963  0.92489979  1
  O  O354  1  0.74367661  0.23788052  0.26396486  1
  O  O355  1  0.74885570  0.22369716  0.59129189  1
  O  O356  1  0.74477782  0.22620711  0.92040058  1
  O  O357  1  0.74115968  0.74985068  0.25649208  1
  O  O358  1  0.75244249  0.72910341  0.59023643  1
  O  O359  1  0.75366620  0.73883154  0.91207094  1
