# generated using pymatgen
data_Ba17Sr5La8Pr42Mn72O216
_symmetry_space_group_name_H-M   'P 1'
_cell_length_a   16.67186887
_cell_length_b   15.70599195
_cell_length_c   16.81542889
_cell_angle_alpha   90.00254833
_cell_angle_beta   89.97933738
_cell_angle_gamma   90.00115760
_symmetry_Int_Tables_number   1
_chemical_formula_structural   Ba17Sr5La8Pr42Mn72O216
_chemical_formula_sum   'Ba17 Sr5 La8 Pr42 Mn72 O216'
_cell_volume   4403.09013917
_cell_formula_units_Z   1
loop_
 _symmetry_equiv_pos_site_id
 _symmetry_equiv_pos_as_xyz
  1  'x, y, z'
loop_
 _atom_site_type_symbol
 _atom_site_label
 _atom_site_symmetry_multiplicity
 _atom_site_fract_x
 _atom_site_fract_y
 _atom_site_fract_z
 _atom_site_occupancy
  Ba  Ba0  1  0.33790070  0.62453668  0.33146838  1
  Ba  Ba1  1  0.66994920  0.62688650  0.99887114  1
  Ba  Ba2  1  0.16571327  0.12481884  0.50251915  1
  Ba  Ba3  1  -0.00257503  0.12422305  0.66742893  1
  Ba  Ba4  1  0.50092051  0.12509444  0.16550604  1
  Ba  Ba5  1  0.83148423  0.12676336  0.50147712  1
  Ba  Ba6  1  0.33318233  0.37539992  0.33361223  1
  Ba  Ba7  1  0.33218987  0.12563885  0.66962104  1
  Ba  Ba8  1  0.16419978  0.37532566  0.49933040  1
  Ba  Ba9  1  0.16598596  0.87380467  0.49974316  1
  Ba  Ba10  1  0.49871555  0.37706123  0.83267202  1
  Ba  Ba11  1  0.82905342  0.37443834  0.49946887  1
  Ba  Ba12  1  0.16670704  0.87305857  0.83463424  1
  Ba  Ba13  1  0.50106561  0.87544304  0.49834512  1
  Ba  Ba14  1  0.16784625  0.12361351  0.83605797  1
  Ba  Ba15  1  0.33489996  0.87434959  0.33410076  1
  Ba  Ba16  1  0.83438907  0.62595088  0.83690416  1
  Sr  Sr17  1  0.83363691  0.12384163  0.83375589  1
  Sr  Sr18  1  0.33785066  0.12187939  0.99614285  1
  Sr  Sr19  1  0.82953980  0.37265253  0.16666479  1
  Sr  Sr20  1  0.00333711  0.12618471  0.33621368  1
  Sr  Sr21  1  0.32906929  0.87803853  0.00239212  1
  La  La22  1  0.66803147  0.12538746  0.99760513  1
  La  La23  1  0.49762982  0.37478232  0.50029014  1
  La  La24  1  0.66131888  0.12838571  0.66490876  1
  La  La25  1  0.00017855  0.87719747  0.33576678  1
  La  La26  1  0.00010387  0.12431344  0.99564599  1
  La  La27  1  0.33772776  0.62679646  0.66611227  1
  La  La28  1  -0.00860480  0.37207931  0.00007916  1
  La  La29  1  0.00569721  0.62201681  0.33153997  1
  Pr  Pr30  1  0.49761259  0.87376013  0.16322202  1
  Pr  Pr31  1  0.66985502  0.12461815  0.33227234  1
  Pr  Pr32  1  0.83341913  0.87842798  0.49930196  1
  Pr  Pr33  1  0.83459589  0.87744291  0.16637249  1
  Pr  Pr34  1  0.66316938  0.37325927  0.33226221  1
  Pr  Pr35  1  0.00468142  0.62394405  0.99538526  1
  Pr  Pr36  1  0.32379438  0.37370115  0.66901535  1
  Pr  Pr37  1  0.32919374  0.12368155  0.33651243  1
  Pr  Pr38  1  0.00569486  0.62672168  0.66285901  1
  Pr  Pr39  1  -0.00042182  0.87509530  0.00050778  1
  Pr  Pr40  1  0.66719119  0.87763459  0.66899052  1
  Pr  Pr41  1  0.34181468  0.62605065  0.99932570  1
  Pr  Pr42  1  0.49821820  0.62637036  0.49706634  1
  Pr  Pr43  1  0.49949125  0.87660720  0.82836204  1
  Pr  Pr44  1  0.49452823  0.12516683  0.49955811  1
  Pr  Pr45  1  0.17713892  0.62472052  0.49804459  1
  Pr  Pr46  1  0.16010442  0.37489604  0.82908124  1
  Pr  Pr47  1  0.66521548  0.62214583  0.66390211  1
  Pr  Pr48  1  0.49594300  0.37777387  0.15869814  1
  Pr  Pr49  1  0.50906442  0.62522806  0.16963984  1
  Pr  Pr50  1  -0.00820139  0.36852064  0.66636970  1
  Pr  Pr51  1  -0.00508671  0.37257885  0.33801613  1
  Pr  Pr52  1  0.17325246  0.12367932  0.17027892  1
  Pr  Pr53  1  0.16691355  0.87040529  0.16156052  1
  Pr  Pr54  1  0.83814642  0.62584543  0.16869727  1
  Pr  Pr55  1  0.17399242  0.62404917  0.83673683  1
  Pr  Pr56  1  0.66749846  0.87838715  0.33654482  1
  Pr  Pr57  1  0.49774304  0.12579513  0.84049361  1
  Pr  Pr58  1  0.50357677  0.62694777  0.83504410  1
  Pr  Pr59  1  -0.00360372  0.88075191  0.66795037  1
  Pr  Pr60  1  0.67275370  0.62653388  0.32999329  1
  Pr  Pr61  1  0.83378374  0.87376388  0.83251531  1
  Pr  Pr62  1  0.83855008  0.12463781  0.17326892  1
  Pr  Pr63  1  0.66827690  0.87415516  -0.00036175  1
  Pr  Pr64  1  0.15617684  0.37721571  0.16725235  1
  Pr  Pr65  1  0.82710010  0.37632915  0.83193824  1
  Pr  Pr66  1  0.32237619  0.36963155  0.00485813  1
  Pr  Pr67  1  0.32819315  0.87815075  0.66902338  1
  Pr  Pr68  1  0.83431644  0.62302310  0.50607015  1
  Pr  Pr69  1  0.66514442  0.37815973  0.00292501  1
  Pr  Pr70  1  0.17649444  0.62427106  0.16857498  1
  Pr  Pr71  1  0.66609780  0.37375241  0.66867733  1
  Mn  Mn72  1  0.00206045  -0.00046294  0.16663905  1
  Mn  Mn73  1  -0.00147140  -0.00123259  0.50089242  1
  Mn  Mn74  1  -0.00233009  -0.00063974  0.83537731  1
  Mn  Mn75  1  -0.00217252  0.50022519  0.16429372  1
  Mn  Mn76  1  -0.00129724  0.50257155  0.49841746  1
  Mn  Mn77  1  -0.00001905  0.49987366  0.83219074  1
  Mn  Mn78  1  0.33391303  0.00054570  0.16663560  1
  Mn  Mn79  1  0.33371974  -0.00016017  0.50092880  1
  Mn  Mn80  1  0.33463312  -0.00220767  0.83613362  1
  Mn  Mn81  1  0.33445914  0.49797729  0.16357480  1
  Mn  Mn82  1  0.33517237  0.50145502  0.50191976  1
  Mn  Mn83  1  0.33243448  0.50102451  0.83521039  1
  Mn  Mn84  1  0.66879456  -0.00160832  0.16614915  1
  Mn  Mn85  1  0.66530806  0.00110333  0.50102272  1
  Mn  Mn86  1  0.66659795  0.00057664  0.83370019  1
  Mn  Mn87  1  0.66953242  0.50065837  0.16755700  1
  Mn  Mn88  1  0.66483021  0.50117582  0.49722785  1
  Mn  Mn89  1  0.66625220  0.50015785  0.83313905  1
  Mn  Mn90  1  -0.00084034  0.24957436  0.16608643  1
  Mn  Mn91  1  -0.00247352  0.25072970  0.50053222  1
  Mn  Mn92  1  -0.00235907  0.24996450  0.83615692  1
  Mn  Mn93  1  0.00029694  0.74869878  0.16645903  1
  Mn  Mn94  1  -0.00175856  0.74825532  0.49838599  1
  Mn  Mn95  1  0.00009120  0.74900016  0.83181010  1
  Mn  Mn96  1  0.33291020  0.24911831  0.16726201  1
  Mn  Mn97  1  0.33358934  0.25151065  0.50100819  1
  Mn  Mn98  1  0.33253672  0.25215682  0.83722804  1
  Mn  Mn99  1  0.33582698  0.75059828  0.16405535  1
  Mn  Mn100  1  0.33490355  0.74895157  0.50085034  1
  Mn  Mn101  1  0.33586251  0.74964608  0.83370934  1
  Mn  Mn102  1  0.66828234  0.24960823  0.16566872  1
  Mn  Mn103  1  0.66201368  0.25157396  0.49924019  1
  Mn  Mn104  1  0.66719688  0.24827430  0.83385807  1
  Mn  Mn105  1  0.67002550  0.75210967  0.16729318  1
  Mn  Mn106  1  0.66839280  0.74904041  0.49880318  1
  Mn  Mn107  1  0.66633194  0.75236389  0.83209757  1
  Mn  Mn108  1  0.16424419  0.25095122  0.00235012  1
  Mn  Mn109  1  0.16513966  0.24904191  0.33158688  1
  Mn  Mn110  1  0.16415281  0.25154176  0.66754226  1
  Mn  Mn111  1  0.16681798  0.74693308  0.00026649  1
  Mn  Mn112  1  0.16580274  0.74878404  0.33057758  1
  Mn  Mn113  1  0.16536578  0.74798927  0.66663729  1
  Mn  Mn114  1  0.50071730  0.25070461  -0.00037944  1
  Mn  Mn115  1  0.50171579  0.25026871  0.33252996  1
  Mn  Mn116  1  0.49813943  0.25111145  0.66675820  1
  Mn  Mn117  1  0.50073994  0.75225868  -0.00128940  1
  Mn  Mn118  1  0.50549812  0.74950683  0.33145955  1
  Mn  Mn119  1  0.50181910  0.75037524  0.66627104  1
  Mn  Mn120  1  0.83124789  0.24801353  0.00117542  1
  Mn  Mn121  1  0.83371811  0.24991221  0.33098430  1
  Mn  Mn122  1  0.82976812  0.25045861  0.66913166  1
  Mn  Mn123  1  0.83626187  0.75243376  0.00200720  1
  Mn  Mn124  1  0.83511325  0.75015148  0.33551715  1
  Mn  Mn125  1  0.83140136  0.74861347  0.66664420  1
  Mn  Mn126  1  0.16602644  -0.00160152  0.00367034  1
  Mn  Mn127  1  0.16584388  0.00080238  0.33156411  1
  Mn  Mn128  1  0.16554350  -0.00209178  0.66789054  1
  Mn  Mn129  1  0.16565871  0.49945711  -0.00086423  1
  Mn  Mn130  1  0.16550983  0.49982563  0.33117153  1
  Mn  Mn131  1  0.16385863  0.50207158  0.66878067  1
  Mn  Mn132  1  0.50149844  -0.00237760  -0.00121440  1
  Mn  Mn133  1  0.50281593  0.00233569  0.33194073  1
  Mn  Mn134  1  0.49934664  0.00033312  0.66667278  1
  Mn  Mn135  1  0.49987339  0.50162162  -0.00095959  1
  Mn  Mn136  1  0.50474485  0.49887728  0.33120080  1
  Mn  Mn137  1  0.49985754  0.50100751  0.66510991  1
  Mn  Mn138  1  0.83363392  -0.00063048  0.00139663  1
  Mn  Mn139  1  0.83497164  -0.00015709  0.33278943  1
  Mn  Mn140  1  0.82912802  -0.00100757  0.66776257  1
  Mn  Mn141  1  0.83400546  0.49864653  0.00201548  1
  Mn  Mn142  1  0.83348546  0.50088023  0.33282041  1
  Mn  Mn143  1  0.83258561  0.50116869  0.66873518  1
  O  O144  1  0.15444999  0.12580144  0.02567150  1
  O  O145  1  0.16899961  0.12536412  0.34282528  1
  O  O146  1  0.16392512  0.12839473  0.67600081  1
  O  O147  1  0.15555231  0.62137239  0.02684507  1
  O  O148  1  0.15914153  0.62464287  0.35093687  1
  O  O149  1  0.15675335  0.62429195  0.69393033  1
  O  O150  1  0.50341373  0.12334556  0.00878682  1
  O  O151  1  0.51205971  0.12909429  0.35536721  1
  O  O152  1  0.50318787  0.12479323  0.69523604  1
  O  O153  1  0.49478590  0.62807490  0.02588901  1
  O  O154  1  0.51340879  0.62250709  0.35208830  1
  O  O155  1  0.50030500  0.62577568  0.69283071  1
  O  O156  1  0.83114205  0.12252436  0.02857216  1
  O  O157  1  0.82848622  0.12345352  0.34316945  1
  O  O158  1  0.82255254  0.12733613  0.68397121  1
  O  O159  1  0.83962382  0.62899744  0.02444244  1
  O  O160  1  0.82864817  0.62884470  0.36171877  1
  O  O161  1  0.82622666  0.62494286  0.68283230  1
  O  O162  1  0.15807184  0.37505632  0.31145156  1
  O  O163  1  0.17328349  0.38058003  0.65860867  1
  O  O164  1  0.17164840  0.37941618  0.97289150  1
  O  O165  1  0.15938923  0.87381337  0.30777229  1
  O  O166  1  0.17199954  0.86851684  0.65802880  1
  O  O167  1  0.16538953  0.86968608  0.99158909  1
  O  O168  1  0.50850687  0.37450098  0.30356360  1
  O  O169  1  0.50857415  0.37830686  0.64352299  1
  O  O170  1  0.51112087  0.37657057  0.99046701  1
  O  O171  1  0.51006937  0.87464767  0.30956421  1
  O  O172  1  0.50694214  0.87377343  0.65267266  1
  O  O173  1  0.50987525  0.87403396  0.97358843  1
  O  O174  1  0.83628496  0.37507317  0.31429607  1
  O  O175  1  0.83251778  0.37806571  0.65688315  1
  O  O176  1  0.83386621  0.36883873  0.97637921  1
  O  O177  1  0.83338368  0.87361419  0.30869958  1
  O  O178  1  0.82833661  0.86864711  0.64219895  1
  O  O179  1  0.83954141  0.87698264  0.97696980  1
  O  O180  1  0.00380652  0.37777001  0.19410017  1
  O  O181  1  -0.00182831  0.38251262  0.51806898  1
  O  O182  1  0.00259125  0.37661712  0.85682877  1
  O  O183  1  0.00368988  0.87117959  0.19389761  1
  O  O184  1  -0.00653274  0.86882932  0.52209560  1
  O  O185  1  -0.00878457  0.87400593  0.85517015  1
  O  O186  1  0.34260088  0.37475486  0.17754227  1
  O  O187  1  0.34142067  0.37989925  0.52294221  1
  O  O188  1  0.32466752  0.38090769  0.86048964  1
  O  O189  1  0.33284389  0.87553439  0.17704704  1
  O  O190  1  0.33537346  0.86912285  0.52102190  1
  O  O191  1  0.34082343  0.87054257  0.85235032  1
  O  O192  1  0.66390982  0.37824941  0.18882904  1
  O  O193  1  0.65811070  0.37790645  0.52553698  1
  O  O194  1  0.67085946  0.37017551  0.85850469  1
  O  O195  1  0.66914866  0.87443526  0.19370343  1
  O  O196  1  0.67186524  0.87005207  0.52543905  1
  O  O197  1  0.65801756  0.87759606  0.85584437  1
  O  O198  1  -0.00522049  0.12350497  0.13948829  1
  O  O199  1  -0.00163695  0.12122411  0.49004652  1
  O  O200  1  -0.00243829  0.12486871  0.82646252  1
  O  O201  1  -0.00973677  0.62505781  0.13731334  1
  O  O202  1  -0.01284315  0.62656943  0.47500497  1
  O  O203  1  0.00389478  0.62318843  0.80853587  1
  O  O204  1  0.32565579  0.12615577  0.14561022  1
  O  O205  1  0.33945881  0.12791803  0.48427156  1
  O  O206  1  0.34400240  0.12384443  0.82781900  1
  O  O207  1  0.33418127  0.62295551  0.14387997  1
  O  O208  1  0.33541320  0.62464797  0.49087933  1
  O  O209  1  0.33472751  0.62473397  0.80996863  1
  O  O210  1  0.67631587  0.11986546  0.14062701  1
  O  O211  1  0.65980703  0.12990477  0.47671274  1
  O  O212  1  0.66563463  0.12361437  0.80927609  1
  O  O213  1  0.66984683  0.62741002  0.15294580  1
  O  O214  1  0.66932792  0.62529251  0.47228919  1
  O  O215  1  0.66253084  0.62990423  0.80969183  1
  O  O216  1  0.08731306  0.01936073  0.24227667  1
  O  O217  1  0.07795174  -0.00285194  0.58700703  1
  O  O218  1  0.07666916  0.00645330  0.92678527  1
  O  O219  1  0.08738529  0.52131596  0.23514652  1
  O  O220  1  0.08670499  0.52699006  0.57501342  1
  O  O221  1  0.09308761  0.51922337  0.90598446  1
  O  O222  1  0.41558504  0.01403873  0.25234796  1
  O  O223  1  0.42019929  0.01346827  0.58231723  1
  O  O224  1  0.42557613  0.00845211  0.91025793  1
  O  O225  1  0.43336262  0.51355096  0.23637142  1
  O  O226  1  0.42296905  0.52199286  0.58035980  1
  O  O227  1  0.42020221  0.52478280  0.90970287  1
  O  O228  1  0.75246497  0.01694844  0.24804958  1
  O  O229  1  0.73806934  0.01168223  0.59261566  1
  O  O230  1  0.74503495  0.01230011  0.92275286  1
  O  O231  1  0.75817525  0.52247908  0.24501671  1
  O  O232  1  0.74815496  0.51989540  0.57932267  1
  O  O233  1  0.75503370  0.50395284  0.91598693  1
  O  O234  1  0.25228537  0.23127687  0.25132019  1
  O  O235  1  0.25410152  0.25066155  0.58840109  1
  O  O236  1  0.25446516  0.23870959  0.93084440  1
  O  O237  1  0.24816790  0.73652873  0.24556268  1
  O  O238  1  0.24873277  0.72623687  0.58744292  1
  O  O239  1  0.25358589  0.72486598  0.91980972  1
  O  O240  1  0.59639983  0.23389888  0.25794311  1
  O  O241  1  0.57787820  0.22841066  0.58136501  1
  O  O242  1  0.58669428  0.22946736  0.91607497  1
  O  O243  1  0.58896308  0.72970475  0.24896998  1
  O  O244  1  0.58415255  0.72350983  0.58109468  1
  O  O245  1  0.57854046  0.73431465  0.91015540  1
  O  O246  1  0.92073542  0.23176372  0.24874845  1
  O  O247  1  0.91336835  0.24774427  0.58898912  1
  O  O248  1  0.91846879  0.23348333  0.92447683  1
  O  O249  1  0.92098893  0.72709582  0.25444973  1
  O  O250  1  0.91713273  0.72706496  0.58716979  1
  O  O251  1  0.92830216  0.73586870  0.92714241  1
  O  O252  1  0.07577999  0.47612228  0.07323333  1
  O  O253  1  0.07186887  0.48937754  0.40340616  1
  O  O254  1  0.07223431  0.47750760  0.74133069  1
  O  O255  1  0.08097867  0.97386976  0.08523117  1
  O  O256  1  0.07666803  0.98613843  0.40884069  1
  O  O257  1  0.07638526  0.98370476  0.74936467  1
  O  O258  1  0.40743956  0.48245442  0.07074322  1
  O  O259  1  0.42467213  0.48997365  0.41677992  1
  O  O260  1  0.40336568  0.48497470  0.73973598  1
  O  O261  1  0.42018561  0.98170218  0.08346707  1
  O  O262  1  0.42025797  1.00031363  0.41642308  1
  O  O263  1  0.41755046  0.97668805  0.74753722  1
  O  O264  1  0.74340254  0.48085947  0.08026727  1
  O  O265  1  0.74008610  0.48599966  0.40554971  1
  O  O266  1  0.74542828  0.48027521  0.74890634  1
  O  O267  1  0.75171311  0.97191774  0.08402156  1
  O  O268  1  0.75203464  0.98026064  0.41848111  1
  O  O269  1  0.75014172  0.97399591  0.75549934  1
  O  O270  1  0.23951970  0.27354706  0.09065583  1
  O  O271  1  0.25251154  0.25509857  0.41533452  1
  O  O272  1  0.24502409  0.26958892  0.75720741  1
  O  O273  1  0.24409172  0.75721599  0.08611171  1
  O  O274  1  0.24453485  0.75169398  0.41815612  1
  O  O275  1  0.25775128  0.75789618  0.74747839  1
  O  O276  1  0.58192522  0.26786123  0.08676300  1
  O  O277  1  0.58080623  0.27784837  0.41776065  1
  O  O278  1  0.58822873  0.26477214  0.74248941  1
  O  O279  1  0.58291099  0.77249595  0.08378008  1
  O  O280  1  0.59420360  0.76509050  0.40877474  1
  O  O281  1  0.58557859  0.76999901  0.74711724  1
  O  O282  1  0.91297886  0.26664661  0.08575985  1
  O  O283  1  0.91642130  0.26230337  0.41177282  1
  O  O284  1  0.91328714  0.27033299  0.75669144  1
  O  O285  1  0.91426211  0.77555582  0.09234172  1
  O  O286  1  0.91147508  0.77435560  0.42013799  1
  O  O287  1  0.91000280  0.77092667  0.75099884  1
  O  O288  1  0.24073781  0.47883763  0.08625020  1
  O  O289  1  0.24691700  0.49790567  0.42476143  1
  O  O290  1  0.23836150  0.48868148  0.76583043  1
  O  O291  1  0.24154303  0.98578798  0.09299426  1
  O  O292  1  0.25194133  0.99567809  0.41470544  1
  O  O293  1  0.25435991  0.98667378  0.75093475  1
  O  O294  1  0.57765145  0.48838771  0.09288858  1
  O  O295  1  0.58209701  0.47532873  0.41687530  1
  O  O296  1  0.58679774  0.48890242  0.74103925  1
  O  O297  1  0.58654624  0.97591039  0.08218229  1
  O  O298  1  0.59288670  0.98615948  0.41096924  1
  O  O299  1  0.58511521  0.98126991  0.74835951  1
  O  O300  1  0.91194838  0.47860428  0.08878234  1
  O  O301  1  0.91402744  0.48755557  0.41440678  1
  O  O302  1  0.91290318  0.47899134  0.75858842  1
  O  O303  1  0.91844498  0.97582044  0.08452719  1
  O  O304  1  0.91553300  0.97851396  0.41569432  1
  O  O305  1  0.91250935  0.97852877  0.74991257  1
  O  O306  1  0.07720975  0.27700919  0.08020603  1
  O  O307  1  0.07623028  0.26196615  0.40644392  1
  O  O308  1  0.07822053  0.27230375  0.75089611  1
  O  O309  1  0.07633136  0.76826450  0.07955449  1
  O  O310  1  0.07245349  0.76077008  0.40361143  1
  O  O311  1  0.07128625  0.76455232  0.73760890  1
  O  O312  1  0.41359144  0.26775425  0.07979573  1
  O  O313  1  0.42262772  0.26222462  0.42084755  1
  O  O314  1  0.41048910  0.27126839  0.74146022  1
  O  O315  1  0.41863471  0.77122094  0.07891788  1
  O  O316  1  0.42573190  0.75165480  0.41579501  1
  O  O317  1  0.42098436  0.76821107  0.75100454  1
  O  O318  1  0.74189958  0.26968497  0.07470304  1
  O  O319  1  0.73992805  0.26273514  0.40595481  1
  O  O320  1  0.74862246  0.27271592  0.75317353  1
  O  O321  1  0.75034264  0.77543294  0.08453382  1
  O  O322  1  0.75179670  0.77465633  0.41633227  1
  O  O323  1  0.74688722  0.77502729  0.74859945  1
  O  O324  1  0.25295132  0.01963078  0.25193192  1
  O  O325  1  0.25343927  0.00004285  0.58730582  1
  O  O326  1  0.25290122  0.00803463  0.92654096  1
  O  O327  1  0.24976518  0.51105981  0.24578401  1
  O  O328  1  0.25441091  0.51985106  0.59602504  1
  O  O329  1  0.25632922  0.52852418  0.92713897  1
  O  O330  1  0.59188212  0.01577287  0.25206818  1
  O  O331  1  0.57908865  0.02352571  0.58241540  1
  O  O332  1  0.58542743  0.02181538  0.91378231  1
  O  O333  1  0.59499153  0.52081844  0.25590097  1
  O  O334  1  0.58396450  0.52761249  0.57862561  1
  O  O335  1  0.58225305  0.51717728  0.91297287  1
  O  O336  1  0.91680777  0.01272493  0.24554808  1
  O  O337  1  0.90942622  -0.00006818  0.58253254  1
  O  O338  1  0.91428376  0.01701420  0.92018472  1
  O  O339  1  0.91990315  0.52431484  0.25306137  1
  O  O340  1  0.91978468  0.52106406  0.58867375  1
  O  O341  1  0.93006508  0.51300652  0.92635048  1
  O  O342  1  0.09031202  0.23387456  0.23752992  1
  O  O343  1  0.07925805  0.25262258  0.58835702  1
  O  O344  1  0.08058136  0.24137110  0.92116222  1
  O  O345  1  0.08721594  0.72383000  0.23910689  1
  O  O346  1  0.08461563  0.72393009  0.57417270  1
  O  O347  1  0.08965204  0.72690458  0.91339933  1
  O  O348  1  0.41584939  0.23184565  0.25655022  1
  O  O349  1  0.42297750  0.23884345  0.57919925  1
  O  O350  1  0.42317782  0.24069574  0.91349989  1
  O  O351  1  0.42947359  0.73794360  0.23972310  1
  O  O352  1  0.41988002  0.72958423  0.58715494  1
  O  O353  1  0.41873675  0.72608476  0.91524389  1
  O  O354  1  0.75654956  0.23188337  0.24155183  1
  O  O355  1  0.73755683  0.24267676  0.59004318  1
  O  O356  1  0.75113283  0.22624886  0.91771044  1
  O  O357  1  0.75766597  0.72999812  0.25009147  1
  O  O358  1  0.74961045  0.72460860  0.58162183  1
  O  O359  1  0.75067103  0.75148919  0.91452189  1
