# generated using pymatgen
data_Ba17Sr5La8Pr42Mn72O216
_symmetry_space_group_name_H-M   'P 1'
_cell_length_a   16.67345616
_cell_length_b   15.70322408
_cell_length_c   16.82091798
_cell_angle_alpha   90.00084490
_cell_angle_beta   89.99952026
_cell_angle_gamma   89.99710281
_symmetry_Int_Tables_number   1
_chemical_formula_structural   Ba17Sr5La8Pr42Mn72O216
_chemical_formula_sum   'Ba17 Sr5 La8 Pr42 Mn72 O216'
_cell_volume   4404.17079291
_cell_formula_units_Z   1
loop_
 _symmetry_equiv_pos_site_id
 _symmetry_equiv_pos_as_xyz
  1  'x, y, z'
loop_
 _atom_site_type_symbol
 _atom_site_label
 _atom_site_symmetry_multiplicity
 _atom_site_fract_x
 _atom_site_fract_y
 _atom_site_fract_z
 _atom_site_occupancy
  Ba  Ba0  1  0.83603886  0.62272260  0.50043492  1
  Ba  Ba1  1  -0.00100325  0.87678780  -0.00012408  1
  Ba  Ba2  1  0.00056530  0.62282076  0.33426342  1
  Ba  Ba3  1  0.49778231  0.12620718  0.83339992  1
  Ba  Ba4  1  0.66562860  0.12758317  0.66550243  1
  Ba  Ba5  1  0.50050937  0.87520599  0.16704852  1
  Ba  Ba6  1  0.00127012  0.12648029  0.33562210  1
  Ba  Ba7  1  0.16660666  0.37291759  0.50044344  1
  Ba  Ba8  1  0.83513867  0.62277301  0.83419503  1
  Ba  Ba9  1  0.33623392  0.62338058  0.33274277  1
  Ba  Ba10  1  0.33426069  0.87325143  0.33427424  1
  Ba  Ba11  1  0.83282429  0.87458418  0.50154281  1
  Ba  Ba12  1  0.49684571  0.87513497  0.83261512  1
  Ba  Ba13  1  0.66735542  0.62379218  0.99902826  1
  Ba  Ba14  1  0.66542802  0.87689059  0.66426821  1
  Ba  Ba15  1  0.49890039  0.87594146  0.49872733  1
  Ba  Ba16  1  0.49977015  0.62527258  0.83433035  1
  Sr  Sr17  1  -0.00127183  0.37406438  0.33940342  1
  Sr  Sr18  1  0.17053493  0.12684115  0.50004489  1
  Sr  Sr19  1  0.83427014  0.37490471  0.49841314  1
  Sr  Sr20  1  0.00453580  0.62600240  0.66242665  1
  Sr  Sr21  1  0.50600134  0.62572432  0.16812479  1
  La  La22  1  0.33287813  0.12392855  0.33556254  1
  La  La23  1  0.82802138  0.87236415  0.82974418  1
  La  La24  1  0.16463394  0.87463182  0.49940111  1
  La  La25  1  0.66385260  0.87317681  0.33850859  1
  La  La26  1  0.66714119  0.12499776  0.33292859  1
  La  La27  1  0.33375352  0.37602878  0.33647003  1
  La  La28  1  0.50184503  0.37172860  0.49707196  1
  La  La29  1  0.33265407  0.37378922  0.00183652  1
  Pr  Pr30  1  0.33108405  0.12221458  0.99880605  1
  Pr  Pr31  1  0.83173149  0.12367131  0.83589114  1
  Pr  Pr32  1  0.16755289  0.12225705  0.17194228  1
  Pr  Pr33  1  0.33773326  0.62403025  0.66385222  1
  Pr  Pr34  1  0.00460407  0.12440701  0.65972328  1
  Pr  Pr35  1  0.16725017  0.87222422  0.16555772  1
  Pr  Pr36  1  0.67074905  0.62718010  0.32885861  1
  Pr  Pr37  1  0.83389194  0.37327048  0.16883165  1
  Pr  Pr38  1  0.15983759  0.37629822  0.16835364  1
  Pr  Pr39  1  0.49968478  0.12489199  0.16628724  1
  Pr  Pr40  1  0.83845255  0.12827774  0.50370893  1
  Pr  Pr41  1  0.00404629  0.62472439  0.99692432  1
  Pr  Pr42  1  0.16930831  0.62177842  0.49971953  1
  Pr  Pr43  1  -0.00466509  0.37685017  0.66703783  1
  Pr  Pr44  1  0.33660924  0.12452597  0.66436403  1
  Pr  Pr45  1  0.15926071  0.87637450  0.82955381  1
  Pr  Pr46  1  -0.00198187  0.87603225  0.33467284  1
  Pr  Pr47  1  0.16915060  0.62456498  0.83532362  1
  Pr  Pr48  1  0.66861728  0.87312306  -0.00215850  1
  Pr  Pr49  1  0.33930549  0.62630614  0.99989057  1
  Pr  Pr50  1  0.82791260  0.37606009  0.83122270  1
  Pr  Pr51  1  0.50467159  0.62786303  0.49954917  1
  Pr  Pr52  1  0.00187043  0.12589437  0.99954434  1
  Pr  Pr53  1  0.83306984  0.87571939  0.16662495  1
  Pr  Pr54  1  0.66393513  0.12549560  0.99271756  1
  Pr  Pr55  1  0.33575081  0.87486315  0.00384123  1
  Pr  Pr56  1  0.16559797  0.12712728  0.83460798  1
  Pr  Pr57  1  0.66817813  0.37736627  0.33498852  1
  Pr  Pr58  1  0.66666058  0.62851338  0.66465988  1
  Pr  Pr59  1  0.32871995  0.87451352  0.67027459  1
  Pr  Pr60  1  0.66300627  0.37735343  -0.00108865  1
  Pr  Pr61  1  -0.00917647  0.87433867  0.67164063  1
  Pr  Pr62  1  -0.00429043  0.37411760  0.00129830  1
  Pr  Pr63  1  0.67128705  0.37763626  0.66673780  1
  Pr  Pr64  1  0.49886510  0.37786256  0.82937551  1
  Pr  Pr65  1  0.16024718  0.37437273  0.82843041  1
  Pr  Pr66  1  0.83600611  0.62487110  0.17226666  1
  Pr  Pr67  1  0.83591892  0.12491368  0.17001039  1
  Pr  Pr68  1  0.49800553  0.37933220  0.16391852  1
  Pr  Pr69  1  0.32687026  0.37426709  0.67035006  1
  Pr  Pr70  1  0.16826928  0.62645253  0.17060054  1
  Pr  Pr71  1  0.49965709  0.12241770  0.50289539  1
  Mn  Mn72  1  0.00092804  0.00046742  0.16704196  1
  Mn  Mn73  1  0.00186660  -0.00091366  0.50133781  1
  Mn  Mn74  1  -0.00147690  0.00285061  0.83272790  1
  Mn  Mn75  1  -0.00056874  0.49709125  0.16522890  1
  Mn  Mn76  1  0.00193146  0.49954540  0.50162369  1
  Mn  Mn77  1  0.00087204  0.49941620  0.83464175  1
  Mn  Mn78  1  0.33305326  0.00196729  0.16568110  1
  Mn  Mn79  1  0.33191137  0.00117951  0.50141652  1
  Mn  Mn80  1  0.32778226  0.00078983  0.83411526  1
  Mn  Mn81  1  0.33212558  0.49787247  0.16657840  1
  Mn  Mn82  1  0.33528667  0.49872104  0.50122239  1
  Mn  Mn83  1  0.32980764  0.49907819  0.83521704  1
  Mn  Mn84  1  0.66821784  0.00263125  0.16450945  1
  Mn  Mn85  1  0.66811478  0.00229772  0.49707476  1
  Mn  Mn86  1  0.66615557  0.00237797  0.83338923  1
  Mn  Mn87  1  0.66916273  0.49742035  0.16698395  1
  Mn  Mn88  1  0.66620509  0.49800116  0.49936267  1
  Mn  Mn89  1  0.66625391  0.49736391  0.83220184  1
  Mn  Mn90  1  0.00065371  0.25095396  0.16663285  1
  Mn  Mn91  1  0.00088945  0.25031061  0.50083427  1
  Mn  Mn92  1  -0.00164633  0.24870150  0.83342653  1
  Mn  Mn93  1  -0.00008775  0.75015271  0.16566334  1
  Mn  Mn94  1  0.00305440  0.75079232  0.50194287  1
  Mn  Mn95  1  0.00077919  0.74842435  0.83290384  1
  Mn  Mn96  1  0.33235813  0.25036562  0.16810089  1
  Mn  Mn97  1  0.33491726  0.25115637  0.50046371  1
  Mn  Mn98  1  0.32968106  0.25058286  0.83570620  1
  Mn  Mn99  1  0.33340819  0.74933545  0.16523438  1
  Mn  Mn100  1  0.33286560  0.74793196  0.50300113  1
  Mn  Mn101  1  0.32853840  0.74946459  0.83471233  1
  Mn  Mn102  1  0.66648757  0.25031542  0.16424135  1
  Mn  Mn103  1  0.66811359  0.25135205  0.49776414  1
  Mn  Mn104  1  0.66583999  0.25146278  0.83276606  1
  Mn  Mn105  1  0.66944121  0.75201913  0.16605066  1
  Mn  Mn106  1  0.66681760  0.74805480  0.49757087  1
  Mn  Mn107  1  0.66662373  0.74968583  0.83265618  1
  Mn  Mn108  1  0.16580222  0.25126778  0.00077815  1
  Mn  Mn109  1  0.16811131  0.24899402  0.33291905  1
  Mn  Mn110  1  0.16580038  0.24956772  0.66788485  1
  Mn  Mn111  1  0.16753320  0.74920301  -0.00029381  1
  Mn  Mn112  1  0.16555006  0.75056308  0.33330946  1
  Mn  Mn113  1  0.16728359  0.74972477  0.66718267  1
  Mn  Mn114  1  0.49884645  0.25175340  0.00100732  1
  Mn  Mn115  1  0.50134677  0.24977747  0.33045504  1
  Mn  Mn116  1  0.49748785  0.25283262  0.66404664  1
  Mn  Mn117  1  0.49975785  0.75089815  0.00046902  1
  Mn  Mn118  1  0.50126728  0.74757063  0.33245546  1
  Mn  Mn119  1  0.49811708  0.74855851  0.66643157  1
  Mn  Mn120  1  0.83310725  0.24994437  0.00089119  1
  Mn  Mn121  1  0.83246751  0.24977543  0.33454156  1
  Mn  Mn122  1  0.83517143  0.25144172  0.66736886  1
  Mn  Mn123  1  0.83489639  0.75053791  0.00113270  1
  Mn  Mn124  1  0.83450797  0.75080665  0.33164892  1
  Mn  Mn125  1  0.83365987  0.74809129  0.66766151  1
  Mn  Mn126  1  0.16686705  0.00100290  -0.00014081  1
  Mn  Mn127  1  0.16684766  -0.00062647  0.33394590  1
  Mn  Mn128  1  0.16640863  0.00065781  0.66614385  1
  Mn  Mn129  1  0.16630416  0.49764365  0.00029129  1
  Mn  Mn130  1  0.16685322  0.49896471  0.33333652  1
  Mn  Mn131  1  0.16619023  0.49994776  0.66840650  1
  Mn  Mn132  1  0.50035795  0.00065088  0.00093349  1
  Mn  Mn133  1  0.50056175  0.00430960  0.33300855  1
  Mn  Mn134  1  0.49767318  0.00062738  0.66664059  1
  Mn  Mn135  1  0.49774558  0.49841733  -0.00069065  1
  Mn  Mn136  1  0.50308282  0.49792174  0.33131183  1
  Mn  Mn137  1  0.49865030  0.49812668  0.66335199  1
  Mn  Mn138  1  0.83262551  0.00322364  0.00134532  1
  Mn  Mn139  1  0.83249916  0.00195179  0.33300727  1
  Mn  Mn140  1  0.83453924  0.00294958  0.66913341  1
  Mn  Mn141  1  0.83514658  0.49611916  0.00209588  1
  Mn  Mn142  1  0.83432074  0.49762717  0.33356777  1
  Mn  Mn143  1  0.83445382  0.49933425  0.66629011  1
  O  O144  1  0.16518746  0.12778525  0.02854629  1
  O  O145  1  0.17446599  0.12386855  0.34918544  1
  O  O146  1  0.16475723  0.12536012  0.69262534  1
  O  O147  1  0.15927733  0.61834138  0.02851940  1
  O  O148  1  0.16748719  0.62617865  0.35277459  1
  O  O149  1  0.17185635  0.62338754  0.69224040  1
  O  O150  1  0.50739210  0.12943783  0.02100949  1
  O  O151  1  0.50150914  0.13046882  0.35810215  1
  O  O152  1  0.49263504  0.12921978  0.67792131  1
  O  O153  1  0.49406691  0.62204288  0.01436651  1
  O  O154  1  0.51087869  0.61704723  0.35407308  1
  O  O155  1  0.49918561  0.62040489  0.67975962  1
  O  O156  1  0.82722417  0.12816918  0.02867298  1
  O  O157  1  0.82713799  0.12694045  0.35880268  1
  O  O158  1  0.84484773  0.12949903  0.69154214  1
  O  O159  1  0.83912222  0.61644325  0.02725160  1
  O  O160  1  0.82668200  0.62219193  0.33979809  1
  O  O161  1  0.82876364  0.62162625  0.67652590  1
  O  O162  1  0.17136904  0.37276194  0.31263712  1
  O  O163  1  0.16630021  0.37390198  0.65651874  1
  O  O164  1  0.16639612  0.37421924  0.97006372  1
  O  O165  1  0.16208343  0.87530422  0.31059064  1
  O  O166  1  0.17337539  0.87750099  0.64376744  1
  O  O167  1  0.17333682  0.87963759  0.97210380  1
  O  O168  1  0.50179019  0.37130329  0.30489619  1
  O  O169  1  0.48919986  0.37611830  0.63980631  1
  O  O170  1  0.49220817  0.37262013  0.97674136  1
  O  O171  1  0.50752796  0.88081978  0.32385157  1
  O  O172  1  0.48774032  0.87368074  0.65677533  1
  O  O173  1  0.48937446  0.87690703  0.99227610  1
  O  O174  1  0.82858629  0.37231680  0.31181008  1
  O  O175  1  0.83212142  0.37409745  0.64877982  1
  O  O176  1  0.84338651  0.37028895  0.97309538  1
  O  O177  1  0.83172778  0.87794112  0.31051526  1
  O  O178  1  0.83707336  0.87616651  0.66177415  1
  O  O179  1  0.82979412  0.88514184  0.97414469  1
  O  O180  1  0.00349343  0.37274050  0.18854783  1
  O  O181  1  0.00031847  0.37284772  0.52211261  1
  O  O182  1  0.00720668  0.37120064  0.86028521  1
  O  O183  1  0.00128127  0.87611683  0.18867753  1
  O  O184  1  0.00981768  0.87621187  0.52645279  1
  O  O185  1  0.00449147  0.87522884  0.84527752  1
  O  O186  1  0.34033694  0.37016123  0.19366975  1
  O  O187  1  0.34209937  0.37485210  0.52527294  1
  O  O188  1  0.32733707  0.37406248  0.85954230  1
  O  O189  1  0.32896240  0.87662793  0.17499001  1
  O  O190  1  0.32840688  0.87457148  0.52471991  1
  O  O191  1  0.32058510  0.87636125  0.85952557  1
  O  O192  1  0.66561641  0.37110078  0.19324218  1
  O  O193  1  0.66324362  0.37442724  0.52388921  1
  O  O194  1  0.67061730  0.37250486  0.85284643  1
  O  O195  1  0.67545170  0.88090046  0.19379646  1
  O  O196  1  0.66623409  0.87724101  0.50356517  1
  O  O197  1  0.67642463  0.88102799  0.85045906  1
  O  O198  1  0.00076059  0.12806271  0.14372640  1
  O  O199  1  -0.00797276  0.12392184  0.49322389  1
  O  O200  1  -0.00206849  0.12788272  0.80442642  1
  O  O201  1  -0.00400851  0.62103865  0.14064192  1
  O  O202  1  0.00676376  0.62736671  0.49249676  1
  O  O203  1  0.00807503  0.62437911  0.81378451  1
  O  O204  1  0.32370885  0.12956843  0.14097150  1
  O  O205  1  0.33409694  0.12867644  0.48080713  1
  O  O206  1  0.32260287  0.12825649  0.80803283  1
  O  O207  1  0.32059742  0.62359792  0.14269200  1
  O  O208  1  0.32153802  0.62222226  0.49126381  1
  O  O209  1  0.32397291  0.62139986  0.80842141  1
  O  O210  1  0.66751036  0.12913704  0.13463343  1
  O  O211  1  0.67029041  0.12931187  0.47831785  1
  O  O212  1  0.66931983  0.12981759  0.82434463  1
  O  O213  1  0.67708815  0.62191314  0.15457879  1
  O  O214  1  0.65966018  0.61850681  0.47484556  1
  O  O215  1  0.66572768  0.61709281  0.81267325  1
  O  O216  1  0.08862987  0.01426179  0.24639307  1
  O  O217  1  0.08979297  0.01994562  0.58257949  1
  O  O218  1  0.08260045  0.02468505  0.91534337  1
  O  O219  1  0.08934036  0.51247135  0.23580807  1
  O  O220  1  0.09314910  0.51722704  0.58261745  1
  O  O221  1  0.08907095  0.52074515  0.91260285  1
  O  O222  1  0.41800485  0.02545843  0.24873051  1
  O  O223  1  0.41651641  0.02123521  0.58061838  1
  O  O224  1  0.40652137  0.01507054  0.92105923  1
  O  O225  1  0.42711148  0.50955189  0.24440482  1
  O  O226  1  0.41997466  0.52314404  0.57893224  1
  O  O227  1  0.40864837  0.51113338  0.91873024  1
  O  O228  1  0.74948782  0.02871049  0.24585078  1
  O  O229  1  0.75886188  0.01896255  0.57783431  1
  O  O230  1  0.75046778  0.02557269  0.92083677  1
  O  O231  1  0.75432721  0.51059460  0.24533202  1
  O  O232  1  0.74069689  0.51078818  0.58763049  1
  O  O233  1  0.75500197  0.49998951  0.91894354  1
  O  O234  1  0.25243430  0.22954098  0.24961241  1
  O  O235  1  0.25516062  0.23666619  0.59371534  1
  O  O236  1  0.24681933  0.22654207  0.91950375  1
  O  O237  1  0.24637326  0.73927164  0.24422195  1
  O  O238  1  0.26050732  0.73407588  0.59893278  1
  O  O239  1  0.25114329  0.72091613  0.92129125  1
  O  O240  1  0.58187036  0.22511685  0.24515242  1
  O  O241  1  0.57800691  0.23881946  0.57141949  1
  O  O242  1  0.58709423  0.24363401  0.92274484  1
  O  O243  1  0.59310648  0.73576816  0.25354842  1
  O  O244  1  0.58381769  0.72863173  0.58093203  1
  O  O245  1  0.58589248  0.75102383  0.91927763  1
  O  O246  1  0.91038947  0.23635384  0.24485878  1
  O  O247  1  0.92243951  0.23463181  0.59184949  1
  O  O248  1  0.91887041  0.22365175  0.91917258  1
  O  O249  1  0.91590825  0.73882403  0.24642565  1
  O  O250  1  0.92624185  0.74557904  0.59141312  1
  O  O251  1  0.92614541  0.73277598  0.92570396  1
  O  O252  1  0.07834000  0.47390095  0.07584815  1
  O  O253  1  0.08491573  0.49090602  0.41442082  1
  O  O254  1  0.07832740  0.47771270  0.74820212  1
  O  O255  1  0.09165873  0.98577297  0.08644237  1
  O  O256  1  0.08090072  0.97919587  0.41424063  1
  O  O257  1  0.08049679  0.98136510  0.74259051  1
  O  O258  1  0.41185870  0.47914879  0.08192900  1
  O  O259  1  0.42003477  0.47907320  0.41390974  1
  O  O260  1  0.41191106  0.47689062  0.74879332  1
  O  O261  1  0.41456840  1.00055400  0.08277543  1
  O  O262  1  0.41392912  0.99963439  0.41542305  1
  O  O263  1  0.40053755  0.98987592  0.74496313  1
  O  O264  1  0.74934376  0.47006186  0.08291047  1
  O  O265  1  0.74473548  0.48239363  0.41246334  1
  O  O266  1  0.74855635  0.47750098  0.74898804  1
  O  O267  1  0.75225331  0.97754128  0.08403529  1
  O  O268  1  0.74578953  0.98802886  0.40719438  1
  O  O269  1  0.75556124  0.99620631  0.75786777  1
  O  O270  1  0.24966344  0.27626781  0.08693160  1
  O  O271  1  0.25962097  0.26362296  0.41180647  1
  O  O272  1  0.24483799  0.27120623  0.75637539  1
  O  O273  1  0.24774222  0.77091770  0.08121577  1
  O  O274  1  0.24126830  0.76207713  0.43037843  1
  O  O275  1  0.23860045  0.77155402  0.76011293  1
  O  O276  1  0.58292545  0.27765571  0.08419378  1
  O  O277  1  0.58621381  0.27120750  0.40796686  1
  O  O278  1  0.57918117  0.27656373  0.74606622  1
  O  O279  1  0.58910628  0.76431328  0.08235828  1
  O  O280  1  0.58547401  0.75633697  0.41441336  1
  O  O281  1  0.58221842  0.75376987  0.74586805  1
  O  O282  1  0.91581960  0.26904970  0.08307268  1
  O  O283  1  0.91293051  0.26085403  0.42297788  1
  O  O284  1  0.91508066  0.27777322  0.75539404  1
  O  O285  1  0.90990850  0.76634833  0.09093762  1
  O  O286  1  0.91891689  0.76633944  0.41074824  1
  O  O287  1  0.91477266  0.76614118  0.75711412  1
  O  O288  1  0.24433910  0.47145119  0.08273219  1
  O  O289  1  0.25663414  0.48389024  0.41677617  1
  O  O290  1  0.24471674  0.47668175  0.75713173  1
  O  O291  1  0.25197304  0.98227868  0.07791320  1
  O  O292  1  0.24422041  0.98634829  0.42474877  1
  O  O293  1  0.24074203  0.97888902  0.75608096  1
  O  O294  1  0.58254406  0.47814757  0.08553766  1
  O  O295  1  0.58233007  0.47142137  0.41727734  1
  O  O296  1  0.58096796  0.47278023  0.74427378  1
  O  O297  1  0.59297961  0.98562284  0.07827017  1
  O  O298  1  0.58862561  0.99798660  0.40726856  1
  O  O299  1  0.58079417  0.99458080  0.74947312  1
  O  O300  1  0.91393946  0.46996991  0.08661616  1
  O  O301  1  0.91436647  0.48573091  0.41591097  1
  O  O302  1  0.91468939  0.47568057  0.75926001  1
  O  O303  1  0.91206046  0.99053218  0.08686673  1
  O  O304  1  0.91913234  0.98478643  0.41353134  1
  O  O305  1  0.91470402  0.98214424  0.75621597  1
  O  O306  1  0.08105188  0.27307905  0.07754321  1
  O  O307  1  0.08285766  0.25797163  0.41373335  1
  O  O308  1  0.07947085  0.26878197  0.75049590  1
  O  O309  1  0.08653920  0.76411205  0.08456433  1
  O  O310  1  0.07949023  0.77331124  0.41241419  1
  O  O311  1  0.07861179  0.77097337  0.74112105  1
  O  O312  1  0.41827323  0.26841213  0.08866530  1
  O  O313  1  0.42154835  0.27156292  0.41425965  1
  O  O314  1  0.41078341  0.27388148  0.75263857  1
  O  O315  1  0.40848892  0.75634837  0.07646134  1
  O  O316  1  0.41624075  0.74943271  0.41921427  1
  O  O317  1  0.40049726  0.75944785  0.74290161  1
  O  O318  1  0.74943660  0.27788951  0.08097752  1
  O  O319  1  0.74568237  0.27022007  0.41128377  1
  O  O320  1  0.74935833  0.27054823  0.74711842  1
  O  O321  1  0.75012778  0.77613094  0.08254001  1
  O  O322  1  0.74491046  0.75807191  0.40631117  1
  O  O323  1  0.74980264  0.75772545  0.75132779  1
  O  O324  1  0.25153162  0.01762361  0.24848396  1
  O  O325  1  0.25646477  0.01994792  0.59413567  1
  O  O326  1  0.24551211  0.02999959  0.91663465  1
  O  O327  1  0.24786602  0.50935333  0.24443144  1
  O  O328  1  0.25669266  0.51124577  0.59458579  1
  O  O329  1  0.24951614  0.52412506  0.92277165  1
  O  O330  1  0.58329481  0.02709467  0.24343983  1
  O  O331  1  0.58130341  0.01533732  0.57381001  1
  O  O332  1  0.58770888  0.01018132  0.92078595  1
  O  O333  1  0.59327508  0.51338280  0.25558031  1
  O  O334  1  0.58298946  0.51847137  0.58076728  1
  O  O335  1  0.58164111  0.49703546  0.91423381  1
  O  O336  1  0.91060807  0.01438000  0.24696094  1
  O  O337  1  0.92284338  0.01434000  0.59112528  1
  O  O338  1  0.91502878  0.02944202  0.92105420  1
  O  O339  1  0.91337526  0.50951111  0.24278782  1
  O  O340  1  0.92475146  0.50463274  0.59386396  1
  O  O341  1  0.92932410  0.51208366  0.92831513  1
  O  O342  1  0.09246058  0.23645096  0.23903301  1
  O  O343  1  0.08422131  0.23211715  0.58671751  1
  O  O344  1  0.08177497  0.22385984  0.91429571  1
  O  O345  1  0.08689096  0.73541808  0.24150501  1
  O  O346  1  0.10107308  0.73392797  0.57464605  1
  O  O347  1  0.08983345  0.73039612  0.91160437  1
  O  O348  1  0.41619907  0.22325919  0.24990576  1
  O  O349  1  0.41640511  0.22897125  0.58119569  1
  O  O350  1  0.40668294  0.23387028  0.92507623  1
  O  O351  1  0.42152640  0.73711837  0.24422520  1
  O  O352  1  0.41946023  0.72650531  0.58032244  1
  O  O353  1  0.40923970  0.73853265  0.91747881  1
  O  O354  1  0.74872587  0.22793364  0.24524430  1
  O  O355  1  0.75980476  0.23583843  0.57738620  1
  O  O356  1  0.75523664  0.23217783  0.91753477  1
  O  O357  1  0.75626245  0.73545635  0.24338189  1
  O  O358  1  0.74483356  0.73490366  0.58418256  1
  O  O359  1  0.75436209  0.74597799  0.91771450  1
