# generated using pymatgen
data_Ba17Sr5La8Pr42Mn72O216
_symmetry_space_group_name_H-M   'P 1'
_cell_length_a   16.67144834
_cell_length_b   15.70149274
_cell_length_c   16.82276383
_cell_angle_alpha   90.00011508
_cell_angle_beta   89.96800278
_cell_angle_gamma   89.99223583
_symmetry_Int_Tables_number   1
_chemical_formula_structural   Ba17Sr5La8Pr42Mn72O216
_chemical_formula_sum   'Ba17 Sr5 La8 Pr42 Mn72 O216'
_cell_volume   4403.63738594
_cell_formula_units_Z   1
loop_
 _symmetry_equiv_pos_site_id
 _symmetry_equiv_pos_as_xyz
  1  'x, y, z'
loop_
 _atom_site_type_symbol
 _atom_site_label
 _atom_site_symmetry_multiplicity
 _atom_site_fract_x
 _atom_site_fract_y
 _atom_site_fract_z
 _atom_site_occupancy
  Ba  Ba0  1  0.00163842  0.87654444  0.00212330  1
  Ba  Ba1  1  0.83191659  0.12558082  0.83552546  1
  Ba  Ba2  1  0.66566340  0.62508154  0.33289370  1
  Ba  Ba3  1  0.00008562  0.62352526  0.33432263  1
  Ba  Ba4  1  0.33401007  0.12497930  0.66430574  1
  Ba  Ba5  1  0.33464422  0.12495206  0.33191322  1
  Ba  Ba6  1  0.00185926  0.87486391  0.66840682  1
  Ba  Ba7  1  0.83201713  0.12722318  0.50201542  1
  Ba  Ba8  1  0.16831671  0.12475474  0.50316348  1
  Ba  Ba9  1  0.49916653  0.12396459  0.49801855  1
  Ba  Ba10  1  0.16474022  0.62497079  0.16830911  1
  Ba  Ba11  1  0.49990963  0.62633170  0.49643975  1
  Ba  Ba12  1  0.66935476  0.87453755  0.33301225  1
  Ba  Ba13  1  0.50011160  0.37600644  0.83069877  1
  Ba  Ba14  1  0.83060889  0.62480510  0.83340515  1
  Ba  Ba15  1  0.16416931  0.62468510  0.50058911  1
  Ba  Ba16  1  -0.00305925  0.62517656  0.66619990  1
  Sr  Sr17  1  0.83491146  0.37438731  0.50036704  1
  Sr  Sr18  1  0.16723317  0.12333245  0.83466069  1
  Sr  Sr19  1  0.33597128  0.87495004  0.00062606  1
  Sr  Sr20  1  0.66543733  0.12463190  0.99630925  1
  Sr  Sr21  1  0.16797301  0.87432050  0.50269919  1
  La  La22  1  0.66697581  0.37473412  0.33627547  1
  La  La23  1  0.32875084  0.62503459  0.99648489  1
  La  La24  1  0.83281090  0.12326542  0.16862353  1
  La  La25  1  0.32944522  0.62722652  0.33082125  1
  La  La26  1  0.16540866  0.12201719  0.17126256  1
  La  La27  1  0.66409697  0.12708946  0.66526008  1
  La  La28  1  0.33126033  0.37668895  0.33408976  1
  La  La29  1  0.83633380  0.87752319  0.83187118  1
  Pr  Pr30  1  0.66815033  0.37357973  0.66577110  1
  Pr  Pr31  1  0.00542682  0.87538255  0.33897932  1
  Pr  Pr32  1  0.00206004  0.37495329  0.33807973  1
  Pr  Pr33  1  0.49945251  0.12619993  0.83405794  1
  Pr  Pr34  1  0.33577305  0.12359693  0.99362254  1
  Pr  Pr35  1  0.66876209  0.12547139  0.32952042  1
  Pr  Pr36  1  0.17468130  0.87323838  0.16563537  1
  Pr  Pr37  1  0.33138527  0.37366844  0.66447714  1
  Pr  Pr38  1  0.16716753  0.37483080  0.83074959  1
  Pr  Pr39  1  0.83895090  0.87244753  0.16777007  1
  Pr  Pr40  1  0.49894431  0.87729582  0.49598406  1
  Pr  Pr41  1  0.83566651  0.37754453  0.16850676  1
  Pr  Pr42  1  0.66722231  0.87612979  0.66581900  1
  Pr  Pr43  1  0.82995018  0.62649790  0.50578848  1
  Pr  Pr44  1  0.33269782  0.87586803  0.66461508  1
  Pr  Pr45  1  0.50540436  0.12441411  0.16794585  1
  Pr  Pr46  1  -0.00240114  0.62412636  0.99729931  1
  Pr  Pr47  1  0.65971462  0.62446092  0.99790180  1
  Pr  Pr48  1  0.17114451  0.87525878  0.83003711  1
  Pr  Pr49  1  0.84035457  0.87502572  0.49842551  1
  Pr  Pr50  1  0.00039830  0.12686640  0.33583384  1
  Pr  Pr51  1  0.33308294  0.62243246  0.66235815  1
  Pr  Pr52  1  0.50086910  0.37585347  0.15946446  1
  Pr  Pr53  1  0.67302558  0.87547687  0.00375314  1
  Pr  Pr54  1  0.66420078  0.62022650  0.66059068  1
  Pr  Pr55  1  0.83335869  0.37394497  0.82923387  1
  Pr  Pr56  1  0.00032754  0.12586715  0.99652165  1
  Pr  Pr57  1  0.00036393  0.37254219  0.66790968  1
  Pr  Pr58  1  -0.00315979  0.37351708  0.00111998  1
  Pr  Pr59  1  0.49506659  0.62417079  0.83244542  1
  Pr  Pr60  1  0.16325873  0.37536414  0.16641830  1
  Pr  Pr61  1  0.00083814  0.12385366  0.66475641  1
  Pr  Pr62  1  0.33317605  0.87335649  0.33467685  1
  Pr  Pr63  1  0.16052402  0.62679655  0.83718808  1
  Pr  Pr64  1  0.83279351  0.62721093  0.17031554  1
  Pr  Pr65  1  0.16547591  0.37520924  0.50160446  1
  Pr  Pr66  1  0.50091593  0.87582341  0.83161062  1
  Pr  Pr67  1  0.66976519  0.37383996  -0.00019399  1
  Pr  Pr68  1  0.49760699  0.37395013  0.49761053  1
  Pr  Pr69  1  0.49236255  0.62778952  0.16963111  1
  Pr  Pr70  1  0.50353768  0.87724829  0.16149645  1
  Pr  Pr71  1  0.33156174  0.37481104  0.00101991  1
  Mn  Mn72  1  0.00037623  0.00190234  0.16988801  1
  Mn  Mn73  1  0.00136690  0.00095157  0.50148484  1
  Mn  Mn74  1  0.00216309  0.00170281  0.83543008  1
  Mn  Mn75  1  -0.00200695  0.49724183  0.16622473  1
  Mn  Mn76  1  -0.00274286  0.49828441  0.50158280  1
  Mn  Mn77  1  0.00019832  0.49849306  0.83544563  1
  Mn  Mn78  1  0.33541584  0.00053491  0.16263358  1
  Mn  Mn79  1  0.33327657  -0.00244457  0.49951786  1
  Mn  Mn80  1  0.33449630  -0.00079717  0.83407762  1
  Mn  Mn81  1  0.33324491  0.49765234  0.16576435  1
  Mn  Mn82  1  0.33310838  0.49961486  0.49896464  1
  Mn  Mn83  1  0.33167836  0.50017778  0.83140716  1
  Mn  Mn84  1  0.66863518  0.00009721  0.16426433  1
  Mn  Mn85  1  0.66724285  -0.00035514  0.50040887  1
  Mn  Mn86  1  0.66458417  -0.00208015  0.83508547  1
  Mn  Mn87  1  0.66712356  0.49878153  0.16478398  1
  Mn  Mn88  1  0.66590256  0.49725860  0.49950861  1
  Mn  Mn89  1  0.66555139  0.50143483  0.83240745  1
  Mn  Mn90  1  -0.00071249  0.24955418  0.16682076  1
  Mn  Mn91  1  -0.00009400  0.25099068  0.50208516  1
  Mn  Mn92  1  0.00187246  0.25005866  0.83540196  1
  Mn  Mn93  1  0.00048916  0.75121450  0.16826737  1
  Mn  Mn94  1  -0.00011145  0.75078728  0.50049254  1
  Mn  Mn95  1  0.00000827  0.74973991  0.83614819  1
  Mn  Mn96  1  0.33391115  0.25090395  0.16317339  1
  Mn  Mn97  1  0.33337389  0.25256581  0.49924478  1
  Mn  Mn98  1  0.33305578  0.25020234  0.83342728  1
  Mn  Mn99  1  0.33445970  0.75153825  0.16469383  1
  Mn  Mn100  1  0.33343709  0.74981327  0.50016346  1
  Mn  Mn101  1  0.33385897  0.75021978  0.83253978  1
  Mn  Mn102  1  0.66799378  0.25122093  0.16560470  1
  Mn  Mn103  1  0.66493829  0.25129722  0.49905510  1
  Mn  Mn104  1  0.66597859  0.25057532  0.83384115  1
  Mn  Mn105  1  0.66706768  0.75001822  0.16362372  1
  Mn  Mn106  1  0.66718344  0.75102766  0.50222456  1
  Mn  Mn107  1  0.66332863  0.75068754  0.83395638  1
  Mn  Mn108  1  0.16788220  0.25055133  0.00132484  1
  Mn  Mn109  1  0.16673280  0.25014253  0.33297545  1
  Mn  Mn110  1  0.16612262  0.25081605  0.66872111  1
  Mn  Mn111  1  0.16721101  0.75098043  0.00023839  1
  Mn  Mn112  1  0.16661448  0.75229367  0.33335043  1
  Mn  Mn113  1  0.16876010  0.74978717  0.66867864  1
  Mn  Mn114  1  0.50026067  0.25031280  -0.00116029  1
  Mn  Mn115  1  0.50076559  0.25105401  0.32832462  1
  Mn  Mn116  1  0.50038572  0.25154607  0.66500732  1
  Mn  Mn117  1  0.50034201  0.74895803  -0.00176933  1
  Mn  Mn118  1  0.49907003  0.75095112  0.33031139  1
  Mn  Mn119  1  0.50053967  0.75057493  0.66722012  1
  Mn  Mn120  1  0.83250390  0.25171412  0.00155059  1
  Mn  Mn121  1  0.83355626  0.24992274  0.33279952  1
  Mn  Mn122  1  0.83307968  0.25070690  0.66800023  1
  Mn  Mn123  1  0.83229314  0.74866388  0.00176240  1
  Mn  Mn124  1  0.83534134  0.75011858  0.33436619  1
  Mn  Mn125  1  0.82969252  0.75166558  0.66788642  1
  Mn  Mn126  1  0.16910293  0.00039628  0.00222952  1
  Mn  Mn127  1  0.16704180  0.00059771  0.33407965  1
  Mn  Mn128  1  0.16762271  -0.00097186  0.66912214  1
  Mn  Mn129  1  0.16593876  0.49817175  -0.00021533  1
  Mn  Mn130  1  0.16635995  0.49750337  0.33308222  1
  Mn  Mn131  1  0.16627978  0.49891211  0.66836484  1
  Mn  Mn132  1  0.50117441  -0.00018658  -0.00211213  1
  Mn  Mn133  1  0.50105276  -0.00030976  0.32980168  1
  Mn  Mn134  1  0.50079907  -0.00305244  0.66629563  1
  Mn  Mn135  1  0.49963980  0.50035868  -0.00155431  1
  Mn  Mn136  1  0.49866752  0.49919801  0.32814456  1
  Mn  Mn137  1  0.49999086  0.49990192  0.66433737  1
  Mn  Mn138  1  0.83342600  0.00051264  0.00186512  1
  Mn  Mn139  1  0.83534604  0.00173703  0.33375167  1
  Mn  Mn140  1  0.83166806  0.00062645  0.66774309  1
  Mn  Mn141  1  0.83181044  0.49882042  0.00146244  1
  Mn  Mn142  1  0.83334161  0.49835964  0.33465092  1
  Mn  Mn143  1  0.83187531  0.49726853  0.66644106  1
  O  O144  1  0.16943613  0.13045262  0.02960439  1
  O  O145  1  0.16191570  0.12751147  0.34563423  1
  O  O146  1  0.16102638  0.12725904  0.68374042  1
  O  O147  1  0.16811443  0.62431464  0.01379463  1
  O  O148  1  0.17500687  0.62401478  0.34220318  1
  O  O149  1  0.17636019  0.62269616  0.69221286  1
  O  O150  1  0.49307085  0.12769771  0.02450963  1
  O  O151  1  0.50676096  0.12579831  0.34180537  1
  O  O152  1  0.50448426  0.12182039  0.68983100  1
  O  O153  1  0.50102381  0.62392234  0.02596759  1
  O  O154  1  0.49319866  0.62413726  0.34028328  1
  O  O155  1  0.49917616  0.62666181  0.69005472  1
  O  O156  1  0.83579326  0.13089362  0.02411826  1
  O  O157  1  0.82526030  0.12639847  0.34605989  1
  O  O158  1  0.82934937  0.12715416  0.67989749  1
  O  O159  1  0.83234462  0.62161487  0.02646957  1
  O  O160  1  0.83261974  0.62102107  0.35856612  1
  O  O161  1  0.82262196  0.62282033  0.67522058  1
  O  O162  1  0.16450437  0.37133671  0.31030185  1
  O  O163  1  0.16539146  0.37615760  0.64761684  1
  O  O164  1  0.16848583  0.37369188  0.97326702  1
  O  O165  1  0.16492497  0.87903246  0.31012358  1
  O  O166  1  0.17281969  0.87280893  0.65579240  1
  O  O167  1  0.17017187  0.87163867  0.97399426  1
  O  O168  1  0.50087605  0.37531676  0.30283314  1
  O  O169  1  0.50457687  0.37851895  0.64387488  1
  O  O170  1  0.50343472  0.37562869  0.98567603  1
  O  O171  1  0.49393694  0.87532984  0.30551759  1
  O  O172  1  0.50294480  0.87110711  0.64097594  1
  O  O173  1  0.50495098  0.87124942  0.97519352  1
  O  O174  1  0.83698016  0.37263278  0.31068721  1
  O  O175  1  0.83626104  0.37400733  0.65141699  1
  O  O176  1  0.83416040  0.37622767  0.97347328  1
  O  O177  1  0.84386803  0.87973978  0.31055717  1
  O  O178  1  0.82526804  0.87658459  0.64475655  1
  O  O179  1  0.82819477  0.87055001  0.97709066  1
  O  O180  1  -0.00628222  0.37059440  0.19408523  1
  O  O181  1  0.00071055  0.37313684  0.52286641  1
  O  O182  1  0.00163169  0.37435297  0.85896293  1
  O  O183  1  -0.01025287  0.88236985  0.19336524  1
  O  O184  1  -0.00687222  0.87742797  0.50945877  1
  O  O185  1  -0.00054177  0.87478222  0.84511393  1
  O  O186  1  0.34195189  0.37367914  0.18905621  1
  O  O187  1  0.33553318  0.37899160  0.51937212  1
  O  O188  1  0.32728965  0.37688577  0.85884965  1
  O  O189  1  0.33613338  0.87636477  0.18806308  1
  O  O190  1  0.33874778  0.87001853  0.51921707  1
  O  O191  1  0.33401559  0.87357758  0.85499889  1
  O  O192  1  0.65924219  0.37401741  0.19120222  1
  O  O193  1  0.65452190  0.37415259  0.52098567  1
  O  O194  1  0.66906100  0.37748326  0.85645936  1
  O  O195  1  0.65727641  0.87510218  0.17576902  1
  O  O196  1  0.66350023  0.87379530  0.52138118  1
  O  O197  1  0.65485412  0.87231731  0.86285631  1
  O  O198  1  0.00596391  0.12781182  0.13867877  1
  O  O199  1  0.00193040  0.12763198  0.48106862  1
  O  O200  1  0.00357476  0.12902826  0.81026189  1
  O  O201  1  -0.00468324  0.61901987  0.14106053  1
  O  O202  1  -0.00931441  0.62379071  0.49093569  1
  O  O203  1  0.00667394  0.62206873  0.82321307  1
  O  O204  1  0.33052400  0.12708479  0.13797157  1
  O  O205  1  0.33307481  0.12802957  0.49013185  1
  O  O206  1  0.34050665  0.12363551  0.82017111  1
  O  O207  1  0.33842828  0.62417297  0.14152555  1
  O  O208  1  0.33245756  0.62320941  0.47525581  1
  O  O209  1  0.33611280  0.62582264  0.80578449  1
  O  O210  1  0.67035693  0.12685336  0.14516336  1
  O  O211  1  0.66622347  0.12784491  0.47431333  1
  O  O212  1  0.66096545  0.12202110  0.80946894  1
  O  O213  1  0.67817090  0.62356783  0.14083916  1
  O  O214  1  0.67781331  0.62361525  0.49130203  1
  O  O215  1  0.66220209  0.62810781  0.80538426  1
  O  O216  1  0.07715131  0.02196065  0.25617242  1
  O  O217  1  0.07837099  0.01354606  0.59169179  1
  O  O218  1  0.08317984  0.02180238  0.92717373  1
  O  O219  1  0.08151456  0.50029781  0.24917219  1
  O  O220  1  0.08101908  0.50288604  0.58688163  1
  O  O221  1  0.08299427  0.51669018  0.91872467  1
  O  O222  1  0.42404980  0.01621616  0.23771240  1
  O  O223  1  0.41999466  0.00033419  0.58220582  1
  O  O224  1  0.41923225  0.01905070  0.91548274  1
  O  O225  1  0.41362883  0.51981751  0.24680208  1
  O  O226  1  0.41370044  0.51410148  0.58483890  1
  O  O227  1  0.41278425  0.52219680  0.91529987  1
  O  O228  1  0.75128000  0.01634602  0.24964271  1
  O  O229  1  0.74366406  0.01335304  0.59206305  1
  O  O230  1  0.74383750  0.00668329  0.92074040  1
  O  O231  1  0.75039940  0.50944557  0.24690100  1
  O  O232  1  0.74279062  0.50644878  0.58933272  1
  O  O233  1  0.73994365  0.51454738  0.92678196  1
  O  O234  1  0.24811451  0.23946071  0.24166937  1
  O  O235  1  0.24963441  0.25286336  0.58493512  1
  O  O236  1  0.25497290  0.23281948  0.92479198  1
  O  O237  1  0.25121380  0.74504996  0.24964072  1
  O  O238  1  0.25427139  0.73482621  0.58840117  1
  O  O239  1  0.24697222  0.72792624  0.91000980  1
  O  O240  1  0.58976349  0.22865543  0.24915829  1
  O  O241  1  0.58593654  0.23423411  0.58540318  1
  O  O242  1  0.57931622  0.23035699  0.91371213  1
  O  O243  1  0.57449038  0.73662388  0.23429536  1
  O  O244  1  0.58627233  0.73342180  0.59080637  1
  O  O245  1  0.57476341  0.72217891  0.90972091  1
  O  O246  1  0.91795439  0.22456005  0.24675482  1
  O  O247  1  0.92205340  0.23750633  0.59263032  1
  O  O248  1  0.92378034  0.23783007  0.92486429  1
  O  O249  1  0.90994688  0.73300706  0.24467127  1
  O  O250  1  0.90476311  0.74240355  0.57248787  1
  O  O251  1  0.91690316  0.73251196  0.92412007  1
  O  O252  1  0.08013526  0.47322439  0.08391800  1
  O  O253  1  0.08364923  0.47847694  0.41888361  1
  O  O254  1  0.08452713  0.47815843  0.75432685  1
  O  O255  1  0.09145876  0.98395410  0.09916759  1
  O  O256  1  0.08476790  0.98371022  0.41639863  1
  O  O257  1  0.09300019  0.98705624  0.76011613  1
  O  O258  1  0.41659461  0.47952387  0.08241010  1
  O  O259  1  0.41559100  0.47691963  0.41289522  1
  O  O260  1  0.41060148  0.48639834  0.74369141  1
  O  O261  1  0.42162707  0.98071704  0.08052040  1
  O  O262  1  0.41571718  0.97864420  0.41203339  1
  O  O263  1  0.41884718  0.97558846  0.74993377  1
  O  O264  1  0.75211252  0.47122714  0.08640154  1
  O  O265  1  0.74786048  0.47732184  0.41819452  1
  O  O266  1  0.75268147  0.47728769  0.75377319  1
  O  O267  1  0.75307448  0.97843213  0.08656200  1
  O  O268  1  0.75840360  0.98271997  0.42153537  1
  O  O269  1  0.74667841  0.97523143  0.75464954  1
  O  O270  1  0.24930522  0.27976178  0.08398526  1
  O  O271  1  0.25033226  0.27379825  0.41724658  1
  O  O272  1  0.24753554  0.27162996  0.75299785  1
  O  O273  1  0.25573501  0.76709981  0.08034063  1
  O  O274  1  0.25439233  0.76722791  0.41049357  1
  O  O275  1  0.25705198  0.77184229  0.74942953  1
  O  O276  1  0.58271800  0.26879693  0.08457236  1
  O  O277  1  0.58001743  0.27378658  0.41490497  1
  O  O278  1  0.58969219  0.26410719  0.74337520  1
  O  O279  1  0.59212894  0.76264151  0.06946001  1
  O  O280  1  0.58235724  0.76391372  0.42066310  1
  O  O281  1  0.58305368  0.77480218  0.75011525  1
  O  O282  1  0.91572547  0.27373855  0.08567888  1
  O  O283  1  0.92191167  0.26352137  0.41160152  1
  O  O284  1  0.91778876  0.27151335  0.75451487  1
  O  O285  1  0.91404805  0.76293503  0.08829645  1
  O  O286  1  0.92157284  0.77111670  0.41104843  1
  O  O287  1  0.91024302  0.76189611  0.75281775  1
  O  O288  1  0.25054033  0.47622539  0.08384903  1
  O  O289  1  0.24748349  0.47650209  0.41903539  1
  O  O290  1  0.24892676  0.47474156  0.75157997  1
  O  O291  1  0.25238927  0.97920666  0.08301824  1
  O  O292  1  0.25351200  0.98040815  0.41043473  1
  O  O293  1  0.25390067  0.97972568  0.75208753  1
  O  O294  1  0.59136077  0.48232370  0.07601169  1
  O  O295  1  0.58228576  0.48043636  0.41147637  1
  O  O296  1  0.59083724  0.48758107  0.74105629  1
  O  O297  1  0.58439648  0.98418864  0.07857411  1
  O  O298  1  0.57869657  0.98304262  0.41911183  1
  O  O299  1  0.58270368  0.97469609  0.75073040  1
  O  O300  1  0.91659119  0.47355581  0.08230687  1
  O  O301  1  0.92080046  0.47744236  0.41172182  1
  O  O302  1  0.91838638  0.47869463  0.75144273  1
  O  O303  1  0.91251727  0.98982030  0.09355289  1
  O  O304  1  0.92183400  0.98804978  0.41212578  1
  O  O305  1  0.91093736  0.98936898  0.75362593  1
  O  O306  1  0.08234321  0.27632684  0.08496080  1
  O  O307  1  0.08389953  0.27321439  0.42036558  1
  O  O308  1  0.08305123  0.27511230  0.75300943  1
  O  O309  1  0.09096949  0.76771962  0.09138037  1
  O  O310  1  0.08502404  0.76628497  0.41662331  1
  O  O311  1  0.09586836  0.75872975  0.76276811  1
  O  O312  1  0.41310430  0.27337370  0.07685173  1
  O  O313  1  0.41507328  0.27276824  0.41056958  1
  O  O314  1  0.41274913  0.26707685  0.74289881  1
  O  O315  1  0.42845345  0.76699073  0.08984239  1
  O  O316  1  0.41767466  0.77144502  0.41602326  1
  O  O317  1  0.42132393  0.77154871  0.75448952  1
  O  O318  1  0.75037816  0.27788946  0.08602092  1
  O  O319  1  0.74403232  0.26951140  0.41368876  1
  O  O320  1  0.75142057  0.27191647  0.75279007  1
  O  O321  1  0.75437088  0.77275160  0.08769148  1
  O  O322  1  0.76168627  0.76497459  0.42794824  1
  O  O323  1  0.74722833  0.77728162  0.75793999  1
  O  O324  1  0.24397307  0.01176081  0.24239334  1
  O  O325  1  0.25108780  -0.00014772  0.58541412  1
  O  O326  1  0.25411840  0.01887164  0.91810896  1
  O  O327  1  0.25634876  0.50613122  0.25414807  1
  O  O328  1  0.25436041  0.51059015  0.59008808  1
  O  O329  1  0.24995419  0.52155743  0.91308213  1
  O  O330  1  0.58730812  0.02012145  0.24648781  1
  O  O331  1  0.58754611  0.01239202  0.59116320  1
  O  O332  1  0.57702667  0.02174733  0.91103357  1
  O  O333  1  0.57547526  0.51634919  0.23434410  1
  O  O334  1  0.58359116  0.51558336  0.58269224  1
  O  O335  1  0.57829596  0.52504886  0.91087775  1
  O  O336  1  0.91826296  0.03029865  0.25091010  1
  O  O337  1  0.91814320  0.01373646  0.58718410  1
  O  O338  1  0.91950953  0.01592818  0.92471079  1
  O  O339  1  0.90918002  0.51428422  0.24004773  1
  O  O340  1  0.90576481  0.51066221  0.57682694  1
  O  O341  1  0.92061225  0.51331394  0.92389965  1
  O  O342  1  0.07955794  0.23160578  0.24988704  1
  O  O343  1  0.07789328  0.23941288  0.59295973  1
  O  O344  1  0.08437853  0.23082750  0.92161090  1
  O  O345  1  0.07955174  0.74896994  0.25295767  1
  O  O346  1  0.08206883  0.74350566  0.58618879  1
  O  O347  1  0.08097157  0.72958977  0.92400340  1
  O  O348  1  0.42584388  0.23401081  0.23502558  1
  O  O349  1  0.41969309  0.25162431  0.57829014  1
  O  O350  1  0.41792936  0.23126866  0.91567677  1
  O  O351  1  0.40953281  0.73087990  0.25044089  1
  O  O352  1  0.41250066  0.73413432  0.59228280  1
  O  O353  1  0.41259882  0.72523402  0.91977240  1
  O  O354  1  0.75016899  0.23426642  0.24734048  1
  O  O355  1  0.74318092  0.24406447  0.58911746  1
  O  O356  1  0.74548946  0.24211303  0.92268064  1
  O  O357  1  0.75275398  0.73986431  0.24805849  1
  O  O358  1  0.74344705  0.73624992  0.59138384  1
  O  O359  1  0.73715161  0.73362971  0.92717755  1
