# generated using pymatgen
data_Ba17Sr5La8Pr42Mn72O216
_symmetry_space_group_name_H-M   'P 1'
_cell_length_a   16.67575855
_cell_length_b   15.70100149
_cell_length_c   16.82127437
_cell_angle_alpha   89.98909448
_cell_angle_beta   89.97345136
_cell_angle_gamma   89.99468375
_symmetry_Int_Tables_number   1
_chemical_formula_structural   Ba17Sr5La8Pr42Mn72O216
_chemical_formula_sum   'Ba17 Sr5 La8 Pr42 Mn72 O216'
_cell_volume   4404.24825975
_cell_formula_units_Z   1
loop_
 _symmetry_equiv_pos_site_id
 _symmetry_equiv_pos_as_xyz
  1  'x, y, z'
loop_
 _atom_site_type_symbol
 _atom_site_label
 _atom_site_symmetry_multiplicity
 _atom_site_fract_x
 _atom_site_fract_y
 _atom_site_fract_z
 _atom_site_occupancy
  Ba  Ba0  1  0.50183184  0.37576360  0.49794051  1
  Ba  Ba1  1  0.16638788  0.12527915  0.83530160  1
  Ba  Ba2  1  0.49952053  0.12265133  0.83250859  1
  Ba  Ba3  1  0.50188609  0.87439899  0.16629116  1
  Ba  Ba4  1  0.50241532  0.37432837  0.16521747  1
  Ba  Ba5  1  0.83300583  0.62764176  0.83622406  1
  Ba  Ba6  1  0.66675922  0.12274765  0.66691646  1
  Ba  Ba7  1  0.66806070  0.37639400  0.00333052  1
  Ba  Ba8  1  0.16701999  0.37694217  0.83274427  1
  Ba  Ba9  1  0.16407057  0.62598320  0.49794259  1
  Ba  Ba10  1  0.33261691  0.12315079  0.67138571  1
  Ba  Ba11  1  0.16575705  0.37621734  0.49734393  1
  Ba  Ba12  1  0.16582915  0.12358180  0.16243837  1
  Ba  Ba13  1  0.16691193  0.37526486  0.16475605  1
  Ba  Ba14  1  0.50039279  0.12161208  0.16393063  1
  Ba  Ba15  1  0.16538681  0.87357512  0.49964687  1
  Ba  Ba16  1  0.33527649  0.37452173  0.33250392  1
  Sr  Sr17  1  0.33722222  0.62495139  0.99949465  1
  Sr  Sr18  1  0.66638593  0.87499778  0.67183834  1
  Sr  Sr19  1  0.32922889  0.87397037  0.66845150  1
  Sr  Sr20  1  0.00073630  0.12617204  0.99661926  1
  Sr  Sr21  1  0.83243801  0.87354424  0.83045530  1
  La  La22  1  -0.00208236  0.87741510  0.33567395  1
  La  La23  1  -0.00214734  0.87282792  0.66911179  1
  La  La24  1  0.00315734  0.62538816  0.32986232  1
  La  La25  1  0.83448415  0.87618219  0.16669204  1
  La  La26  1  0.83318771  0.12619366  0.16730124  1
  La  La27  1  0.00277559  0.12410968  0.32928311  1
  La  La28  1  0.50145751  0.87802089  0.50032921  1
  La  La29  1  0.66511205  0.12481538  0.33445056  1
  Pr  Pr30  1  0.83213040  0.37196093  0.50063246  1
  Pr  Pr31  1  0.83057459  0.12119888  0.83905476  1
  Pr  Pr32  1  0.83208689  0.62436561  0.17055360  1
  Pr  Pr33  1  0.66144411  0.62653392  1.00125111  1
  Pr  Pr34  1  0.83491306  0.37539398  0.83257107  1
  Pr  Pr35  1  0.49367836  0.62538394  0.50250678  1
  Pr  Pr36  1  0.49285872  0.12686332  0.50728352  1
  Pr  Pr37  1  0.66776538  0.37436315  0.33472419  1
  Pr  Pr38  1  0.32956779  0.62451421  0.66349708  1
  Pr  Pr39  1  0.66343973  0.12393579  0.99761230  1
  Pr  Pr40  1  0.00131770  0.37133976  0.33443934  1
  Pr  Pr41  1  0.33022469  0.62247334  0.33248522  1
  Pr  Pr42  1  0.16899690  0.62706663  0.83220169  1
  Pr  Pr43  1  0.83016166  0.62471445  0.50644844  1
  Pr  Pr44  1  0.17246184  0.12623697  0.50318145  1
  Pr  Pr45  1  0.32725031  0.87718394  -0.00043502  1
  Pr  Pr46  1  0.82900789  0.87577229  0.50160095  1
  Pr  Pr47  1  0.17379677  0.62288442  0.16757443  1
  Pr  Pr48  1  0.33115129  0.12692544  0.33375450  1
  Pr  Pr49  1  0.66643483  0.87513883  0.33609201  1
  Pr  Pr50  1  0.33348013  0.13187571  0.99546024  1
  Pr  Pr51  1  0.49808205  0.62411125  0.16888827  1
  Pr  Pr52  1  0.33102810  0.37630696  0.66736078  1
  Pr  Pr53  1  0.49906126  0.37587099  0.83142601  1
  Pr  Pr54  1  -0.00202612  0.87720298  -0.00361345  1
  Pr  Pr55  1  0.33417851  0.37154552  0.00530952  1
  Pr  Pr56  1  0.33670661  0.87843993  0.33761693  1
  Pr  Pr57  1  0.49954177  0.87506732  0.83151591  1
  Pr  Pr58  1  0.16275338  0.87194762  0.16393064  1
  Pr  Pr59  1  0.16411901  0.87539170  0.82560934  1
  Pr  Pr60  1  0.66890001  0.87440420  0.00058549  1
  Pr  Pr61  1  0.66596052  0.37656806  0.67445373  1
  Pr  Pr62  1  0.66297978  0.62975461  0.66576673  1
  Pr  Pr63  1  0.83437925  0.12419510  0.50546325  1
  Pr  Pr64  1  0.66347007  0.62571466  0.33342365  1
  Pr  Pr65  1  0.00100855  0.37406726  0.00024285  1
  Pr  Pr66  1  0.00310772  0.12652705  0.66595478  1
  Pr  Pr67  1  -0.00009326  0.37805429  0.66766204  1
  Pr  Pr68  1  0.00482904  0.62447409  0.99617292  1
  Pr  Pr69  1  0.50022053  0.63014098  0.83462001  1
  Pr  Pr70  1  -0.00257659  0.62350848  0.66262848  1
  Pr  Pr71  1  0.83610359  0.37426365  0.16474629  1
  Mn  Mn72  1  -0.00087795  -0.00114769  0.16585460  1
  Mn  Mn73  1  -0.00273929  0.00131617  0.50001258  1
  Mn  Mn74  1  -0.00233129  -0.00044388  0.83259086  1
  Mn  Mn75  1  -0.00162341  0.50168843  0.16381719  1
  Mn  Mn76  1  -0.00495056  0.49909994  0.49709606  1
  Mn  Mn77  1  0.00006163  0.50166648  0.83273093  1
  Mn  Mn78  1  0.33178821  -0.00246244  0.16720606  1
  Mn  Mn79  1  0.33368631  -0.00306612  0.50069655  1
  Mn  Mn80  1  0.33258218  -0.00403563  0.83545541  1
  Mn  Mn81  1  0.33512365  0.50177671  0.16358311  1
  Mn  Mn82  1  0.33315218  0.50221611  0.49947740  1
  Mn  Mn83  1  0.33566675  0.50319880  0.83336916  1
  Mn  Mn84  1  0.66990793  -0.00112650  0.16715389  1
  Mn  Mn85  1  0.66723822  -0.00177548  0.50009683  1
  Mn  Mn86  1  0.66774170  -0.00193876  0.83451345  1
  Mn  Mn87  1  0.66925425  0.50301327  0.16893210  1
  Mn  Mn88  1  0.66801611  0.50134099  0.50195983  1
  Mn  Mn89  1  0.66642494  0.50212641  0.83538590  1
  Mn  Mn90  1  -0.00121657  0.24899250  0.16545428  1
  Mn  Mn91  1  -0.00195153  0.24790358  0.49846216  1
  Mn  Mn92  1  -0.00330157  0.25129518  0.83230014  1
  Mn  Mn93  1  -0.00095011  0.74999675  0.16331502  1
  Mn  Mn94  1  -0.00467272  0.75054444  0.49860994  1
  Mn  Mn95  1  0.00020937  0.74884579  0.83262599  1
  Mn  Mn96  1  0.33413616  0.24694555  0.16602954  1
  Mn  Mn97  1  0.33333792  0.25002458  0.50063939  1
  Mn  Mn98  1  0.33461752  0.25409864  0.83441101  1
  Mn  Mn99  1  0.33372737  0.75128910  0.16627164  1
  Mn  Mn100  1  0.33439217  0.75100325  0.50046184  1
  Mn  Mn101  1  0.33203009  0.74968869  0.83330318  1
  Mn  Mn102  1  0.66896092  0.24763282  0.16785426  1
  Mn  Mn103  1  0.66805794  0.25034282  0.50052846  1
  Mn  Mn104  1  0.66731574  0.25076428  0.83553224  1
  Mn  Mn105  1  0.66980752  0.74971272  0.16799794  1
  Mn  Mn106  1  0.66627636  0.75011264  0.50077928  1
  Mn  Mn107  1  0.66634535  0.74949251  0.83419780  1
  Mn  Mn108  1  0.16525856  0.25092373  -0.00145955  1
  Mn  Mn109  1  0.16542138  0.24799723  0.33320708  1
  Mn  Mn110  1  0.16552328  0.25047791  0.66489465  1
  Mn  Mn111  1  0.16680687  0.74983810  -0.00256044  1
  Mn  Mn112  1  0.16707690  0.74983795  0.32890755  1
  Mn  Mn113  1  0.16426754  0.74953874  0.66679475  1
  Mn  Mn114  1  0.50088783  0.24966673  -0.00167346  1
  Mn  Mn115  1  0.50244136  0.24750407  0.33447778  1
  Mn  Mn116  1  0.50084636  0.25176733  0.66565048  1
  Mn  Mn117  1  0.50017962  0.75118468  -0.00006889  1
  Mn  Mn118  1  0.50094633  0.74960856  0.33485049  1
  Mn  Mn119  1  0.49771897  0.75091808  0.66762559  1
  Mn  Mn120  1  0.83397869  0.24956796  0.00074851  1
  Mn  Mn121  1  0.83242814  0.24991397  0.33476513  1
  Mn  Mn122  1  0.83437943  0.25070355  0.66837277  1
  Mn  Mn123  1  0.83490504  0.75118103  0.00267970  1
  Mn  Mn124  1  0.83360189  0.74927055  0.33582377  1
  Mn  Mn125  1  0.83184364  0.74948652  0.66756406  1
  Mn  Mn126  1  0.16604705  -0.00296218  -0.00139408  1
  Mn  Mn127  1  0.16637485  -0.00145218  0.33239652  1
  Mn  Mn128  1  0.16470917  0.00043365  0.66542321  1
  Mn  Mn129  1  0.16812775  0.50363920  -0.00170267  1
  Mn  Mn130  1  0.16529345  0.50074547  0.33071442  1
  Mn  Mn131  1  0.16490878  0.50038213  0.66575009  1
  Mn  Mn132  1  0.50009670  -0.00444440  -0.00193310  1
  Mn  Mn133  1  0.50156774  -0.00062851  0.33566675  1
  Mn  Mn134  1  0.49917736  -0.00293887  0.66619853  1
  Mn  Mn135  1  0.49945244  0.50356384  -0.00148973  1
  Mn  Mn136  1  0.50300799  0.50220905  0.33444996  1
  Mn  Mn137  1  0.50013309  0.50132190  0.66749913  1
  Mn  Mn138  1  0.83399558  -0.00212309  0.00062134  1
  Mn  Mn139  1  0.83237846  0.00012609  0.33517885  1
  Mn  Mn140  1  0.83445533  -0.00015801  0.66882324  1
  Mn  Mn141  1  0.83527235  0.50211094  0.00242101  1
  Mn  Mn142  1  0.83362615  0.50029457  0.33623373  1
  Mn  Mn143  1  0.83107285  0.50036796  0.66755389  1
  O  O144  1  0.16765365  0.12229626  0.00628532  1
  O  O145  1  0.16223715  0.12034059  0.35619704  1
  O  O146  1  0.15904291  0.12571610  0.67676819  1
  O  O147  1  0.15686107  0.62950944  0.02569577  1
  O  O148  1  0.16387514  0.62690121  0.34075852  1
  O  O149  1  0.16180294  0.62503536  0.68663719  1
  O  O150  1  0.48912736  0.11783995  0.00418754  1
  O  O151  1  0.50938174  0.11875623  0.36000315  1
  O  O152  1  0.49903232  0.12500440  0.67343365  1
  O  O153  1  0.50004683  0.63004329  0.02417023  1
  O  O154  1  0.50974244  0.62816702  0.35870236  1
  O  O155  1  0.49810041  0.62569218  0.69223027  1
  O  O156  1  0.83109431  0.12059975  0.02363105  1
  O  O157  1  0.83235780  0.12211708  0.36244718  1
  O  O158  1  0.84059584  0.13014379  0.69458057  1
  O  O159  1  0.84068703  0.62766021  0.02676418  1
  O  O160  1  0.83705875  0.62186246  0.36444417  1
  O  O161  1  0.83625971  0.62353464  0.68092309  1
  O  O162  1  0.15781673  0.37687911  0.32260158  1
  O  O163  1  0.16581213  0.37626631  0.65420797  1
  O  O164  1  0.16930165  0.37981436  0.98988544  1
  O  O165  1  0.16702860  0.87319480  0.30946525  1
  O  O166  1  0.16119213  0.87386295  0.65708999  1
  O  O167  1  0.17034816  0.86999120  0.96999836  1
  O  O168  1  0.50870751  0.37940507  0.32248595  1
  O  O169  1  0.50953105  0.37882025  0.65272128  1
  O  O170  1  0.49715431  0.38099175  0.97850699  1
  O  O171  1  0.49889118  0.87278805  0.32158765  1
  O  O172  1  0.50228275  0.87069931  0.64306829  1
  O  O173  1  0.51682505  0.87080519  0.97918632  1
  O  O174  1  0.82951855  0.37858465  0.30636874  1
  O  O175  1  0.83109984  0.37642221  0.64317688  1
  O  O176  1  0.83858138  0.37848519  0.97659528  1
  O  O177  1  0.83126365  0.87713213  0.30883869  1
  O  O178  1  0.83791766  0.87116093  0.64461431  1
  O  O179  1  0.83456085  0.87460436  0.97883228  1
  O  O180  1  -0.00823061  0.37711143  0.19165575  1
  O  O181  1  -0.00746169  0.37312291  0.52392782  1
  O  O182  1  -0.00849762  0.37821558  0.85581169  1
  O  O183  1  -0.00013030  0.87217889  0.19261842  1
  O  O184  1  -0.00774549  0.87968096  0.52502161  1
  O  O185  1  0.00303482  0.87186104  0.85208888  1
  O  O186  1  0.33426193  0.37686305  0.17155130  1
  O  O187  1  0.33361877  0.37948478  0.51895236  1
  O  O188  1  0.34001656  0.38317441  0.85919539  1
  O  O189  1  0.32660089  0.87294894  0.19454272  1
  O  O190  1  0.34025771  0.87274902  0.51726856  1
  O  O191  1  0.31640806  0.86960114  0.85475293  1
  O  O192  1  0.67443680  0.37989761  0.19071751  1
  O  O193  1  0.67217281  0.38109401  0.52999509  1
  O  O194  1  0.66484182  0.37856957  0.84742318  1
  O  O195  1  0.67453645  0.87231815  0.19329783  1
  O  O196  1  0.66817503  0.87248906  0.52253503  1
  O  O197  1  0.66244793  0.87216905  0.85615958  1
  O  O198  1  -0.00913883  0.12333518  0.14819891  1
  O  O199  1  -0.01293923  0.12383390  0.47167574  1
  O  O200  1  -0.00949559  0.12649580  0.81078726  1
  O  O201  1  -0.01071964  0.62777796  0.13808235  1
  O  O202  1  -0.01441188  0.62197143  0.47424425  1
  O  O203  1  0.00472555  0.62508342  0.80736098  1
  O  O204  1  0.33341854  0.11839966  0.14262571  1
  O  O205  1  0.33474661  0.11926730  0.48178777  1
  O  O206  1  0.33660980  0.12300104  0.83283000  1
  O  O207  1  0.33819827  0.62864076  0.14823834  1
  O  O208  1  0.33969252  0.62897573  0.47945369  1
  O  O209  1  0.34264253  0.62669512  0.80590793  1
  O  O210  1  0.67796172  0.11926989  0.14324965  1
  O  O211  1  0.67718326  0.11989601  0.47704631  1
  O  O212  1  0.67584398  0.12457653  0.82406456  1
  O  O213  1  0.67781501  0.62802969  0.14480661  1
  O  O214  1  0.67497339  0.62600746  0.47543906  1
  O  O215  1  0.66259427  0.62484394  0.80956987  1
  O  O216  1  0.07984819  0.01064282  0.25117864  1
  O  O217  1  0.08038590  0.02385773  0.57614011  1
  O  O218  1  0.08022184  0.00392768  0.91655359  1
  O  O219  1  0.08267774  0.52362936  0.23958367  1
  O  O220  1  0.07179906  0.51414777  0.58392748  1
  O  O221  1  0.08820892  0.52320343  0.91231588  1
  O  O222  1  0.41375552  0.01264369  0.26040656  1
  O  O223  1  0.41972372  0.01033363  0.57725653  1
  O  O224  1  0.42084919  -0.01457392  0.91301979  1
  O  O225  1  0.41902031  0.52314918  0.25029089  1
  O  O226  1  0.41468196  0.52206957  0.58720027  1
  O  O227  1  0.42247291  0.52409137  0.90932620  1
  O  O228  1  0.75478332  0.02143422  0.25065051  1
  O  O229  1  0.75907687  0.01091892  0.57583634  1
  O  O230  1  0.75043443  0.01630176  0.92208073  1
  O  O231  1  0.74787892  0.52566156  0.26009028  1
  O  O232  1  0.74420844  0.52471457  0.58969542  1
  O  O233  1  0.74685854  0.51930834  0.92754398  1
  O  O234  1  0.25233180  0.23318016  0.25406309  1
  O  O235  1  0.24653016  0.23716251  0.57926980  1
  O  O236  1  0.25431346  0.24438948  0.91986482  1
  O  O237  1  0.25145005  0.72707452  0.24668472  1
  O  O238  1  0.25241675  0.73578560  0.58964478  1
  O  O239  1  0.25133103  0.72417298  0.91714826  1
  O  O240  1  0.58901533  0.23566610  0.25229709  1
  O  O241  1  0.58121570  0.23364943  0.57468107  1
  O  O242  1  0.58547422  0.23704414  0.91845886  1
  O  O243  1  0.58422076  0.72749090  0.24678085  1
  O  O244  1  0.58171862  0.72560104  0.58016526  1
  O  O245  1  0.58260337  0.72538111  0.91612170  1
  O  O246  1  0.91296254  0.23162290  0.24981324  1
  O  O247  1  0.91915079  0.22886138  0.58568020  1
  O  O248  1  0.90818790  0.23312056  0.90951635  1
  O  O249  1  0.91801976  0.72954032  0.25155703  1
  O  O250  1  0.91142857  0.72916992  0.58109493  1
  O  O251  1  0.92657387  0.73729908  0.92399527  1
  O  O252  1  0.07325141  0.48896790  0.07311072  1
  O  O253  1  0.07159626  0.49094287  0.40655711  1
  O  O254  1  0.07501370  0.48640365  0.74385702  1
  O  O255  1  0.08304633  0.97394981  0.07954409  1
  O  O256  1  0.07366262  0.98507975  0.41084191  1
  O  O257  1  0.07731588  0.98443303  0.74695891  1
  O  O258  1  0.41423055  0.48904329  0.07580003  1
  O  O259  1  0.42154985  0.50069325  0.41784054  1
  O  O260  1  0.41813449  0.47566022  0.74900644  1
  O  O261  1  0.40940733  0.97882595  0.07615273  1
  O  O262  1  0.41916171  0.98114423  0.41962697  1
  O  O263  1  0.41437600  0.97720604  0.75216205  1
  O  O264  1  0.76084759  0.48914304  0.09789441  1
  O  O265  1  0.75545442  0.47692751  0.42387351  1
  O  O266  1  0.75088796  0.47963195  0.75267336  1
  O  O267  1  0.75283607  0.97476366  0.08393293  1
  O  O268  1  0.74736650  0.97424531  0.41367340  1
  O  O269  1  0.75158021  0.98615020  0.75354225  1
  O  O270  1  0.25513908  0.25661531  0.07614968  1
  O  O271  1  0.24900779  0.24843569  0.41686341  1
  O  O272  1  0.25765270  0.26656076  0.74670053  1
  O  O273  1  0.24339840  0.77072555  0.08459960  1
  O  O274  1  0.25960685  0.76233039  0.40846961  1
  O  O275  1  0.24235947  0.75773653  0.75655263  1
  O  O276  1  0.58808087  0.24933788  0.07922184  1
  O  O277  1  0.59378539  0.26177048  0.40905881  1
  O  O278  1  0.58541759  0.26881724  0.74886078  1
  O  O279  1  0.59482889  0.76098718  0.07833360  1
  O  O280  1  0.58854213  0.76946378  0.41427983  1
  O  O281  1  0.57797804  0.76376893  0.75190034  1
  O  O282  1  0.91876953  0.27188548  0.08001093  1
  O  O283  1  0.91357727  0.27298565  0.41703778  1
  O  O284  1  0.91520595  0.27955832  0.74865109  1
  O  O285  1  0.91649126  0.77719048  0.08540641  1
  O  O286  1  0.91301693  0.77606549  0.41725542  1
  O  O287  1  0.91953041  0.76394977  0.74636565  1
  O  O288  1  0.25037788  0.49733439  0.07910578  1
  O  O289  1  0.25355102  0.49940501  0.41351365  1
  O  O290  1  0.25820227  0.49145323  0.74595073  1
  O  O291  1  0.24336970  0.97192447  0.08656166  1
  O  O292  1  0.25606542  0.98476111  0.41228019  1
  O  O293  1  0.24521239  0.98559901  0.75741169  1
  O  O294  1  0.58623398  0.50145329  0.08347700  1
  O  O295  1  0.59736679  0.48899685  0.40914398  1
  O  O296  1  0.58447123  0.48506545  0.74883464  1
  O  O297  1  0.58991262  0.98829067  0.07909875  1
  O  O298  1  0.58653596  0.97613157  0.41638003  1
  O  O299  1  0.58062814  0.98104366  0.75362534  1
  O  O300  1  0.91644727  0.47529505  0.08476043  1
  O  O301  1  0.91499915  0.46952163  0.41475743  1
  O  O302  1  0.91413657  0.47909559  0.74824722  1
  O  O303  1  0.91654554  0.97704304  0.08282713  1
  O  O304  1  0.90962525  0.97650286  0.42171745  1
  O  O305  1  0.91767235  0.97954210  0.74865404  1
  O  O306  1  0.07838371  0.26330961  0.07876773  1
  O  O307  1  0.07366719  0.25970052  0.41080928  1
  O  O308  1  0.07278860  0.26293771  0.74019018  1
  O  O309  1  0.07830128  0.77571769  0.07440346  1
  O  O310  1  0.07461274  0.76139916  0.40525933  1
  O  O311  1  0.08141970  0.76809631  0.75071144  1
  O  O312  1  0.41499717  0.26024581  0.07714799  1
  O  O313  1  0.42007687  0.24835686  0.41929875  1
  O  O314  1  0.41832271  0.27541007  0.75199230  1
  O  O315  1  0.41089337  0.76978319  0.07755041  1
  O  O316  1  0.42309183  0.76654862  0.42144723  1
  O  O317  1  0.41431626  0.77293884  0.75229657  1
  O  O318  1  0.76078349  0.26372939  0.09427142  1
  O  O319  1  0.75094722  0.27502077  0.41817820  1
  O  O320  1  0.75223519  0.27307260  0.75225516  1
  O  O321  1  0.75571559  0.77087798  0.09114645  1
  O  O322  1  0.75025086  0.77191434  0.42010326  1
  O  O323  1  0.74747824  0.76161888  0.74927707  1
  O  O324  1  0.25373807  0.01594108  0.25565831  1
  O  O325  1  0.24604578  0.01203369  0.57708534  1
  O  O326  1  0.26122996  0.01034889  0.93038909  1
  O  O327  1  0.25236608  0.51958235  0.24731038  1
  O  O328  1  0.25340387  0.51545083  0.58709621  1
  O  O329  1  0.25077585  0.52494071  0.91073721  1
  O  O330  1  0.59203895  0.00970672  0.25743569  1
  O  O331  1  0.58069306  0.01242323  0.57328387  1
  O  O332  1  0.59098117  0.01204191  0.92215074  1
  O  O333  1  0.58371609  0.52668275  0.24756148  1
  O  O334  1  0.58114517  0.52828637  0.58140585  1
  O  O335  1  0.58191015  0.52570474  0.91613004  1
  O  O336  1  0.91557292  0.01754647  0.25583615  1
  O  O337  1  0.91948182  0.02451295  0.58612223  1
  O  O338  1  0.91334057  0.01638729  0.91464362  1
  O  O339  1  0.91481667  0.52409969  0.25056600  1
  O  O340  1  0.91084417  0.51728801  0.58039914  1
  O  O341  1  0.92519414  0.51790330  0.92306573  1
  O  O342  1  0.07629456  0.23681386  0.25314513  1
  O  O343  1  0.08126624  0.22695265  0.57451683  1
  O  O344  1  0.07528025  0.24576440  0.91741600  1
  O  O345  1  0.08655520  0.72991824  0.23529796  1
  O  O346  1  0.07267848  0.73539126  0.58790615  1
  O  O347  1  0.08792662  0.72713723  0.91133716  1
  O  O348  1  0.41503379  0.23104384  0.25641885  1
  O  O349  1  0.41602737  0.24153711  0.58419853  1
  O  O350  1  0.41414307  0.24640834  0.91938890  1
  O  O351  1  0.41818860  0.72794012  0.25464448  1
  O  O352  1  0.41611268  0.72640286  0.58581520  1
  O  O353  1  0.42134498  0.74212745  0.90990427  1
  O  O354  1  0.74955703  0.22778022  0.25656551  1
  O  O355  1  0.75876764  0.23537815  0.57952998  1
  O  O356  1  0.74936773  0.23075567  0.92244105  1
  O  O357  1  0.75092210  0.72648461  0.25576010  1
  O  O358  1  0.74724381  0.72929904  0.58470006  1
  O  O359  1  0.74417288  0.73668649  0.93004985  1
