# generated using pymatgen
data_Ba17Sr5La8Pr42Mn72O216
_symmetry_space_group_name_H-M   'P 1'
_cell_length_a   16.67199458
_cell_length_b   15.70497213
_cell_length_c   16.81285014
_cell_angle_alpha   90.00292085
_cell_angle_beta   90.02966930
_cell_angle_gamma   89.99493093
_symmetry_Int_Tables_number   1
_chemical_formula_structural   Ba17Sr5La8Pr42Mn72O216
_chemical_formula_sum   'Ba17 Sr5 La8 Pr42 Mn72 O216'
_cell_volume   4402.16191039
_cell_formula_units_Z   1
loop_
 _symmetry_equiv_pos_site_id
 _symmetry_equiv_pos_as_xyz
  1  'x, y, z'
loop_
 _atom_site_type_symbol
 _atom_site_label
 _atom_site_symmetry_multiplicity
 _atom_site_fract_x
 _atom_site_fract_y
 _atom_site_fract_z
 _atom_site_occupancy
  Ba  Ba0  1  0.50404130  0.12417018  0.82837902  1
  Ba  Ba1  1  0.66329117  0.37605044  0.33169943  1
  Ba  Ba2  1  0.33206949  0.37292636  0.00264179  1
  Ba  Ba3  1  0.83481799  0.12520664  0.50210263  1
  Ba  Ba4  1  0.00041101  0.87491422  0.66884755  1
  Ba  Ba5  1  0.33580854  0.12578157  0.66560432  1
  Ba  Ba6  1  0.16634082  0.62535548  0.17055047  1
  Ba  Ba7  1  0.33400324  0.87592329  0.00105745  1
  Ba  Ba8  1  0.50109529  0.87427373  0.82864982  1
  Ba  Ba9  1  0.00168840  0.62593555  0.33371113  1
  Ba  Ba10  1  0.16898739  0.12485664  0.50383453  1
  Ba  Ba11  1  -0.00474197  0.37690442  0.00112158  1
  Ba  Ba12  1  0.49938126  0.37549474  0.16271721  1
  Ba  Ba13  1  0.66441785  0.62690953  0.32755477  1
  Ba  Ba14  1  -0.00046688  0.62433056  1.00205055  1
  Ba  Ba15  1  0.83613565  0.12367318  0.16975420  1
  Ba  Ba16  1  0.66797058  0.12457402  0.33266689  1
  Sr  Sr17  1  0.66418891  0.37449290  0.00373205  1
  Sr  Sr18  1  0.00578562  0.12463663  0.33494793  1
  Sr  Sr19  1  0.16930825  0.62591753  0.50205810  1
  Sr  Sr20  1  0.16969607  0.12369211  0.83444533  1
  Sr  Sr21  1  0.00425765  0.12269421  0.66388431  1
  La  La22  1  0.15709640  0.37463879  0.83456876  1
  La  La23  1  0.66757488  0.12203960  0.66134820  1
  La  La24  1  0.16131975  0.87286642  0.16889951  1
  La  La25  1  0.66521297  0.62458541  0.99994383  1
  La  La26  1  0.15904106  0.37263992  0.50196251  1
  La  La27  1  0.16518847  0.87491565  0.83219816  1
  La  La28  1  0.82718933  0.37492776  0.16649936  1
  La  La29  1  0.50436294  0.12638900  0.50289102  1
  Pr  Pr30  1  -0.00815897  0.36801672  0.67116503  1
  Pr  Pr31  1  0.17280876  0.12545255  0.17272097  1
  Pr  Pr32  1  0.83270405  0.62742131  0.83812311  1
  Pr  Pr33  1  0.15824398  0.37578455  0.16589256  1
  Pr  Pr34  1  0.34281674  0.12600586  0.99448619  1
  Pr  Pr35  1  0.33916181  0.12507983  0.33576881  1
  Pr  Pr36  1  0.66259017  0.37456812  0.66612713  1
  Pr  Pr37  1  0.32203037  0.37509649  0.67018694  1
  Pr  Pr38  1  0.49707636  0.62520200  0.83377224  1
  Pr  Pr39  1  0.33429094  0.62290286  0.99728055  1
  Pr  Pr40  1  0.82801493  0.37694047  0.83513459  1
  Pr  Pr41  1  0.49207400  0.37507820  0.49007807  1
  Pr  Pr42  1  0.83043962  0.37407398  0.49747314  1
  Pr  Pr43  1  0.00059846  0.87562494  0.33892188  1
  Pr  Pr44  1  0.33319474  0.62430427  0.33134753  1
  Pr  Pr45  1  0.66466631  0.62931364  0.66210930  1
  Pr  Pr46  1  0.83985972  0.12355885  0.83637912  1
  Pr  Pr47  1  0.83403260  0.87216180  0.83081496  1
  Pr  Pr48  1  0.00734851  0.12702299  0.99930718  1
  Pr  Pr49  1  0.16679287  0.62742144  0.83945549  1
  Pr  Pr50  1  0.32608388  0.37647138  0.33365219  1
  Pr  Pr51  1  -0.00083143  0.87575363  0.00052903  1
  Pr  Pr52  1  0.00136312  0.62394387  0.66323889  1
  Pr  Pr53  1  0.16348852  0.87855412  0.50209719  1
  Pr  Pr54  1  0.32869777  0.87654755  0.67220888  1
  Pr  Pr55  1  0.50216104  0.87511325  0.15913929  1
  Pr  Pr56  1  -0.00507190  0.37508093  0.33333948  1
  Pr  Pr57  1  0.67012053  0.87622536  0.66708526  1
  Pr  Pr58  1  0.50411910  0.12599727  0.16136327  1
  Pr  Pr59  1  0.83813733  0.87602975  0.49832628  1
  Pr  Pr60  1  0.33037899  0.87344428  0.33427226  1
  Pr  Pr61  1  0.49209756  0.62316847  0.16209684  1
  Pr  Pr62  1  0.66811200  0.87790999  -0.00073256  1
  Pr  Pr63  1  0.50159666  0.62316974  0.49611856  1
  Pr  Pr64  1  0.67195448  0.12891791  0.99757376  1
  Pr  Pr65  1  0.83737641  0.87513067  0.16991548  1
  Pr  Pr66  1  0.33698106  0.62596584  0.66418778  1
  Pr  Pr67  1  0.83202720  0.62330144  0.50157609  1
  Pr  Pr68  1  0.49385171  0.37442762  0.83042361  1
  Pr  Pr69  1  0.83567450  0.61819052  0.16891734  1
  Pr  Pr70  1  0.49954291  0.87559811  0.49453226  1
  Pr  Pr71  1  0.67345876  0.87629435  0.33257831  1
  Mn  Mn72  1  0.00227333  -0.00046074  0.16837632  1
  Mn  Mn73  1  0.00082388  0.00033887  0.50229311  1
  Mn  Mn74  1  0.00140174  0.00195065  0.83594872  1
  Mn  Mn75  1  -0.00103813  0.49968792  0.16924740  1
  Mn  Mn76  1  -0.00088411  0.50091557  0.50289625  1
  Mn  Mn77  1  -0.00268315  0.49925299  0.83004643  1
  Mn  Mn78  1  0.33426250  0.00097365  0.16829892  1
  Mn  Mn79  1  0.33581983  -0.00449414  0.50089973  1
  Mn  Mn80  1  0.33274569  0.00067412  0.83503406  1
  Mn  Mn81  1  0.33118869  0.49915275  0.16726777  1
  Mn  Mn82  1  0.33179429  0.50187577  0.50146757  1
  Mn  Mn83  1  0.33130315  0.49863128  0.83125784  1
  Mn  Mn84  1  0.66628448  -0.00254485  0.16532297  1
  Mn  Mn85  1  0.66659821  -0.00386394  0.49939516  1
  Mn  Mn86  1  0.67087697  0.00004419  0.83154368  1
  Mn  Mn87  1  0.66624604  0.50210953  0.16304155  1
  Mn  Mn88  1  0.66548496  0.50280653  0.50065530  1
  Mn  Mn89  1  0.66513580  0.49965964  0.83167968  1
  Mn  Mn90  1  0.00067875  0.24850438  0.16843884  1
  Mn  Mn91  1  -0.00121141  0.25129240  0.50288470  1
  Mn  Mn92  1  -0.00116486  0.24802889  0.83447903  1
  Mn  Mn93  1  -0.00199243  0.75176869  0.16850486  1
  Mn  Mn94  1  0.00102232  0.74787338  0.50163937  1
  Mn  Mn95  1  -0.00056521  0.74892745  0.83377411  1
  Mn  Mn96  1  0.33289470  0.24666852  0.16778535  1
  Mn  Mn97  1  0.33351056  0.25273382  0.50018338  1
  Mn  Mn98  1  0.33166573  0.25035545  0.83474655  1
  Mn  Mn99  1  0.33387157  0.75176515  0.16769701  1
  Mn  Mn100  1  0.33419190  0.74930625  0.50119575  1
  Mn  Mn101  1  0.33239109  0.74924897  0.83116379  1
  Mn  Mn102  1  0.66681628  0.24957329  0.16432752  1
  Mn  Mn103  1  0.66614393  0.25209585  0.50128463  1
  Mn  Mn104  1  0.66852272  0.25277861  0.83187951  1
  Mn  Mn105  1  0.66711619  0.75261781  0.16400456  1
  Mn  Mn106  1  0.66675787  0.75012382  0.49765065  1
  Mn  Mn107  1  0.66701027  0.74758626  0.83075666  1
  Mn  Mn108  1  0.16635956  0.24771666  0.00388520  1
  Mn  Mn109  1  0.16799531  0.25025629  0.33449197  1
  Mn  Mn110  1  0.16468367  0.25065058  0.66834925  1
  Mn  Mn111  1  0.16670481  0.75086741  0.00111466  1
  Mn  Mn112  1  0.16837111  0.75163707  0.33753533  1
  Mn  Mn113  1  0.16754776  0.74645372  0.66848955  1
  Mn  Mn114  1  0.50328029  0.24953954  -0.00320419  1
  Mn  Mn115  1  0.49733826  0.24829388  0.33121585  1
  Mn  Mn116  1  0.50132047  0.25480307  0.66187533  1
  Mn  Mn117  1  0.50159685  0.74970370  -0.00314338  1
  Mn  Mn118  1  0.49799709  0.75201666  0.32745266  1
  Mn  Mn119  1  0.50006447  0.74822738  0.66177211  1
  Mn  Mn120  1  0.83281909  0.24904806  0.00034223  1
  Mn  Mn121  1  0.83568010  0.24993985  0.33339673  1
  Mn  Mn122  1  0.83096696  0.25166859  0.66907767  1
  Mn  Mn123  1  0.83212496  0.75271904  0.00169841  1
  Mn  Mn124  1  0.83330517  0.75132256  0.33361860  1
  Mn  Mn125  1  0.83277752  0.74713987  0.66772694  1
  Mn  Mn126  1  0.16640171  -0.00005961  0.00347106  1
  Mn  Mn127  1  0.16938557  0.00040815  0.33480418  1
  Mn  Mn128  1  0.16725427  -0.00053769  0.66867652  1
  Mn  Mn129  1  0.16688969  0.50006076  0.00078209  1
  Mn  Mn130  1  0.16661523  0.49810274  0.33717111  1
  Mn  Mn131  1  0.16441386  0.50112792  0.66827258  1
  Mn  Mn132  1  0.50355006  -0.00096167  -0.00246732  1
  Mn  Mn133  1  0.49842101  -0.00177915  0.32898806  1
  Mn  Mn134  1  0.50107177  -0.00234020  0.66119446  1
  Mn  Mn135  1  0.50047756  0.50241969  -0.00368176  1
  Mn  Mn136  1  0.49620502  0.50123998  0.33090884  1
  Mn  Mn137  1  0.49990257  0.50006409  0.66324955  1
  Mn  Mn138  1  0.83472697  -0.00041038  0.00025319  1
  Mn  Mn139  1  0.83753003  0.00033620  0.33395244  1
  Mn  Mn140  1  0.83358295  -0.00094238  0.66890933  1
  Mn  Mn141  1  0.82972315  0.50145491  -0.00027265  1
  Mn  Mn142  1  0.83308888  0.49980903  0.33505745  1
  Mn  Mn143  1  0.83119456  0.50094346  0.66795456  1
  O  O144  1  0.15646261  0.12119019  0.02989610  1
  O  O145  1  0.17024833  0.12506911  0.34847096  1
  O  O146  1  0.16424734  0.12865843  0.68026393  1
  O  O147  1  0.17450564  0.62486036  0.01209323  1
  O  O148  1  0.17446890  0.62547064  0.35254058  1
  O  O149  1  0.16657374  0.62243469  0.69537932  1
  O  O150  1  0.50199780  0.12038037  0.01404872  1
  O  O151  1  0.49395872  0.11925746  0.35970183  1
  O  O152  1  0.50809404  0.12654835  0.67034087  1
  O  O153  1  0.49498788  0.62847432  0.01512355  1
  O  O154  1  0.49318569  0.62806149  0.35404732  1
  O  O155  1  0.50125468  0.62270197  0.69170888  1
  O  O156  1  0.82773198  0.12245313  0.01408311  1
  O  O157  1  0.83471715  0.12331621  0.34382128  1
  O  O158  1  0.82391524  0.12749899  0.69177390  1
  O  O159  1  0.82602804  0.63257451  0.02552076  1
  O  O160  1  0.83145687  0.62721126  0.35453462  1
  O  O161  1  0.83136355  0.62332695  0.69634672  1
  O  O162  1  0.17532330  0.37190072  0.31018244  1
  O  O163  1  0.16738230  0.37939186  0.64795925  1
  O  O164  1  0.16637304  0.37556861  0.97899742  1
  O  O165  1  0.17293966  0.87794772  0.31384419  1
  O  O166  1  0.17371233  0.86796508  0.64823265  1
  O  O167  1  0.16070201  0.87638344  0.97606668  1
  O  O168  1  0.49034451  0.37834623  0.32149782  1
  O  O169  1  0.50883514  0.38094055  0.63383827  1
  O  O170  1  0.50582468  0.38031405  0.97753221  1
  O  O171  1  0.48908705  0.87500168  0.30091832  1
  O  O172  1  0.50089937  0.86959251  0.63980936  1
  O  O173  1  0.50892131  0.87217246  0.98623171  1
  O  O174  1  0.84108624  0.37517744  0.31556766  1
  O  O175  1  0.83565054  0.38039168  0.64031880  1
  O  O176  1  0.82832200  0.37222138  0.97879376  1
  O  O177  1  0.84341422  0.87506684  0.31633854  1
  O  O178  1  0.82694373  0.86797383  0.64270504  1
  O  O179  1  0.83292446  0.87614293  0.97237022  1
  O  O180  1  0.00174283  0.37354563  0.18685237  1
  O  O181  1  -0.00374709  0.38098306  0.52770093  1
  O  O182  1  -0.00041061  0.37433339  0.84552100  1
  O  O183  1  -0.00395391  0.87571550  0.19243750  1
  O  O184  1  -0.00094772  0.87164092  0.51237710  1
  O  O185  1  -0.00045796  0.87802571  0.85612473  1
  O  O186  1  0.33304843  0.36984178  0.18993857  1
  O  O187  1  0.34439769  0.38207288  0.52544581  1
  O  O188  1  0.33912498  0.37637809  0.84480731  1
  O  O189  1  0.34325620  0.87669386  0.19012728  1
  O  O190  1  0.34474350  0.86858207  0.52880759  1
  O  O191  1  0.32855000  0.87401388  0.84274546  1
  O  O192  1  0.66940541  0.37743387  0.17052027  1
  O  O193  1  0.66621668  0.38153338  0.52141483  1
  O  O194  1  0.66914019  0.37825919  0.85613680  1
  O  O195  1  0.65047124  0.87446085  0.18659341  1
  O  O196  1  0.66320664  0.86999030  0.52373067  1
  O  O197  1  0.67330921  0.86967316  0.85570131  1
  O  O198  1  0.00800309  0.12182792  0.14446572  1
  O  O199  1  0.00171370  0.12269540  0.48766078  1
  O  O200  1  -0.00776330  0.12585716  0.81367326  1
  O  O201  1  -0.00657807  0.62769310  0.15886495  1
  O  O202  1  -0.00513647  0.62403326  0.48746231  1
  O  O203  1  -0.00493872  0.62094462  0.80830921  1
  O  O204  1  0.32100260  0.12161464  0.14065663  1
  O  O205  1  0.33861304  0.12126741  0.48037132  1
  O  O206  1  0.33167091  0.12725293  0.82451323  1
  O  O207  1  0.33439612  0.62972450  0.14273241  1
  O  O208  1  0.33169402  0.62636542  0.47386141  1
  O  O209  1  0.33124477  0.62174893  0.80746842  1
  O  O210  1  0.66419840  0.11920584  0.14504672  1
  O  O211  1  0.66032977  0.12195893  0.49156517  1
  O  O212  1  0.67662075  0.13003572  0.80458852  1
  O  O213  1  0.68344043  0.63097092  0.14648106  1
  O  O214  1  0.66894750  0.62731864  0.48204909  1
  O  O215  1  0.67121281  0.62323805  0.80363342  1
  O  O216  1  0.09535690  0.01149170  0.24209633  1
  O  O217  1  0.08661776  0.00184202  0.58183738  1
  O  O218  1  0.08296555  0.01987111  0.91994819  1
  O  O219  1  0.08516953  0.49986986  0.25352006  1
  O  O220  1  0.08468242  0.52071668  0.58378722  1
  O  O221  1  0.08906811  0.51301822  0.90341010  1
  O  O222  1  0.41694128  0.02888151  0.24822417  1
  O  O223  1  0.42758895  0.01063732  0.57001704  1
  O  O224  1  0.41714914  0.01170523  0.91905094  1
  O  O225  1  0.41590874  0.52366477  0.24599045  1
  O  O226  1  0.42130332  0.52722414  0.57702112  1
  O  O227  1  0.41900809  0.52053208  0.90829160  1
  O  O228  1  0.74937829  -0.00664631  0.24902660  1
  O  O229  1  0.74526679  0.00784520  0.59088489  1
  O  O230  1  0.75693989  0.01922213  0.91313990  1
  O  O231  1  0.75532987  0.50961381  0.24366115  1
  O  O232  1  0.75088990  0.52504616  0.58708371  1
  O  O233  1  0.74746172  0.52417412  0.91266860  1
  O  O234  1  0.26146630  0.22967252  0.26172840  1
  O  O235  1  0.25617043  0.25185108  0.58888931  1
  O  O236  1  0.25346983  0.22934543  0.93258535  1
  O  O237  1  0.25658648  0.74167941  0.26039212  1
  O  O238  1  0.25414539  0.72844661  0.59037842  1
  O  O239  1  0.25169087  0.73048626  0.91433224  1
  O  O240  1  0.58090346  0.23563246  0.24746954  1
  O  O241  1  0.59238988  0.23855525  0.59122975  1
  O  O242  1  0.59604084  0.23329811  0.91940173  1
  O  O243  1  0.57188523  0.73410950  0.23105656  1
  O  O244  1  0.57837389  0.72650727  0.57588421  1
  O  O245  1  0.58122465  0.72543001  0.90533176  1
  O  O246  1  0.93103860  0.24115095  0.25991156  1
  O  O247  1  0.92012714  0.24135255  0.59784368  1
  O  O248  1  0.92132000  0.22756429  0.92334735  1
  O  O249  1  0.90358412  0.73737303  0.24094712  1
  O  O250  1  0.91247624  0.72611481  0.58579427  1
  O  O251  1  0.90913884  0.73663174  0.91318751  1
  O  O252  1  0.08206437  0.48794256  0.08761960  1
  O  O253  1  0.08127062  0.47628451  0.41747422  1
  O  O254  1  0.07504996  0.48011673  0.74206486  1
  O  O255  1  0.07746164  0.97302420  0.08037583  1
  O  O256  1  0.08343877  0.97904784  0.41321154  1
  O  O257  1  0.08653464  0.98683162  0.75751589  1
  O  O258  1  0.41423609  0.49907314  0.07722482  1
  O  O259  1  0.40612273  0.48575348  0.41159918  1
  O  O260  1  0.41241789  0.48044511  0.74030537  1
  O  O261  1  0.42218043  0.99198132  0.08952884  1
  O  O262  1  0.41358330  0.97373856  0.41117500  1
  O  O263  1  0.41540018  0.98525991  0.73645757  1
  O  O264  1  0.74907304  0.48746102  0.08094476  1
  O  O265  1  0.75471662  0.48668002  0.42426515  1
  O  O266  1  0.74719868  0.47559547  0.74800213  1
  O  O267  1  0.74937330  0.97608207  0.08087417  1
  O  O268  1  0.75072042  0.97541812  0.41998226  1
  O  O269  1  0.75104611  0.97350474  0.75071414  1
  O  O270  1  0.23773600  0.26292115  0.10031747  1
  O  O271  1  0.24500724  0.27377795  0.42405092  1
  O  O272  1  0.24237661  0.27113917  0.75667356  1
  O  O273  1  0.24710735  0.76909202  0.09102696  1
  O  O274  1  0.25071013  0.77634631  0.42405753  1
  O  O275  1  0.24927989  0.76653708  0.75116826  1
  O  O276  1  0.58134493  0.25089988  0.08196607  1
  O  O277  1  0.57131593  0.26235316  0.42648291  1
  O  O278  1  0.57856349  0.27667574  0.75273245  1
  O  O279  1  0.59696482  0.75997613  0.06994021  1
  O  O280  1  0.58297099  0.77437813  0.40465899  1
  O  O281  1  0.59120181  0.76213685  0.73608049  1
  O  O282  1  0.90727433  0.26369034  0.09163909  1
  O  O283  1  0.91520224  0.27230184  0.42439580  1
  O  O284  1  0.90496090  0.27067728  0.75894242  1
  O  O285  1  0.91732055  0.77560595  0.07942637  1
  O  O286  1  0.91763947  0.76803564  0.41473872  1
  O  O287  1  0.91175199  0.76377986  0.75345884  1
  O  O288  1  0.24444948  0.48252007  0.09534887  1
  O  O289  1  0.24400283  0.47596919  0.42673934  1
  O  O290  1  0.24183410  0.47778289  0.75698997  1
  O  O291  1  0.24007941  0.98143505  0.09837533  1
  O  O292  1  0.25038181  0.97448770  0.42348960  1
  O  O293  1  0.24721827  0.98271287  0.75410734  1
  O  O294  1  0.58527039  0.50563643  0.07690876  1
  O  O295  1  0.57097413  0.49152813  0.42321374  1
  O  O296  1  0.57913015  0.47674586  0.75095265  1
  O  O297  1  0.58614844  0.98120345  0.07993329  1
  O  O298  1  0.58184971  0.97335615  0.41022408  1
  O  O299  1  0.59043281  0.98603931  0.73882695  1
  O  O300  1  0.90787008  0.49219743  0.09267736  1
  O  O301  1  0.91529154  0.47983563  0.42181308  1
  O  O302  1  0.91170751  0.47590850  0.74953064  1
  O  O303  1  0.91432517  0.97709879  0.08513478  1
  O  O304  1  0.91707131  0.98072621  0.42156656  1
  O  O305  1  0.90865788  0.98613940  0.76227854  1
  O  O306  1  0.07951350  0.26453004  0.08228293  1
  O  O307  1  0.08002648  0.27361886  0.40969685  1
  O  O308  1  0.07722869  0.26890507  0.74707169  1
  O  O309  1  0.08000484  0.77098328  0.08472380  1
  O  O310  1  0.08846328  0.77084980  0.41966407  1
  O  O311  1  0.08979442  0.76045657  0.75630805  1
  O  O312  1  0.41197585  0.24742714  0.08014435  1
  O  O313  1  0.40485366  0.26645609  0.40618618  1
  O  O314  1  0.41579539  0.27505624  0.73638168  1
  O  O315  1  0.42622226  0.76205972  0.09153071  1
  O  O316  1  0.41712764  0.77141173  0.41536041  1
  O  O317  1  0.41182137  0.75918575  0.74077119  1
  O  O318  1  0.74461512  0.25874044  0.07465539  1
  O  O319  1  0.74964192  0.26583974  0.42209297  1
  O  O320  1  0.74491104  0.28092087  0.74698515  1
  O  O321  1  0.75376705  0.78224053  0.08708124  1
  O  O322  1  0.75480154  0.77521270  0.41946577  1
  O  O323  1  0.75151652  0.76990598  0.75120153  1
  O  O324  1  0.25957188  0.01678307  0.26064824  1
  O  O325  1  0.25654450  -0.00124140  0.58682063  1
  O  O326  1  0.25093954  0.01886008  0.93080488  1
  O  O327  1  0.25880529  0.51095440  0.26425031  1
  O  O328  1  0.25774387  0.51653060  0.59363461  1
  O  O329  1  0.25516961  0.51982433  0.91842281  1
  O  O330  1  0.57610045  0.01539273  0.24228422  1
  O  O331  1  0.58301151  0.00893957  0.57767638  1
  O  O332  1  0.59684761  0.01337785  0.91939032  1
  O  O333  1  0.57891143  0.51646315  0.24117781  1
  O  O334  1  0.58554340  0.52692211  0.58631666  1
  O  O335  1  0.58177782  0.52636313  0.91081601  1
  O  O336  1  0.92875877  0.00941725  0.25639672  1
  O  O337  1  0.91594267  0.00747364  0.58960627  1
  O  O338  1  0.92340107  0.02008530  0.92454598  1
  O  O339  1  0.91501204  0.50928681  0.25112754  1
  O  O340  1  0.91438762  0.52523169  0.58781876  1
  O  O341  1  0.90803762  0.51425883  0.91086607  1
  O  O342  1  0.09683030  0.23729522  0.24277531  1
  O  O343  1  0.08513695  0.24881596  0.58212808  1
  O  O344  1  0.08663879  0.23213328  0.91527535  1
  O  O345  1  0.08271755  0.75112379  0.25529051  1
  O  O346  1  0.08332923  0.72962260  0.59024605  1
  O  O347  1  0.08572627  0.73583751  0.91375418  1
  O  O348  1  0.41957609  0.22025756  0.24353093  1
  O  O349  1  0.42970723  0.24101463  0.56756040  1
  O  O350  1  0.42289512  0.24221712  0.91248676  1
  O  O351  1  0.41297684  0.72459749  0.25138499  1
  O  O352  1  0.41846899  0.72050018  0.57930328  1
  O  O353  1  0.41370997  0.72812064  0.91325585  1
  O  O354  1  0.75402455  0.24947813  0.24377496  1
  O  O355  1  0.74940682  0.24315323  0.58799659  1
  O  O356  1  0.75889227  0.23139668  0.90792304  1
  O  O357  1  0.74439034  0.75496972  0.25331007  1
  O  O358  1  0.75039197  0.72602977  0.58776355  1
  O  O359  1  0.74652945  0.72911333  0.91887763  1
