# generated using pymatgen
data_Ba17Sr5La8Pr42Mn72O216
_symmetry_space_group_name_H-M   'P 1'
_cell_length_a   16.68474946
_cell_length_b   15.71068316
_cell_length_c   16.82555784
_cell_angle_alpha   89.99025792
_cell_angle_beta   90.00586819
_cell_angle_gamma   90.02921240
_symmetry_Int_Tables_number   1
_chemical_formula_structural   Ba17Sr5La8Pr42Mn72O216
_chemical_formula_sum   'Ba17 Sr5 La8 Pr42 Mn72 O216'
_cell_volume   4410.46283147
_cell_formula_units_Z   1
loop_
 _symmetry_equiv_pos_site_id
 _symmetry_equiv_pos_as_xyz
  1  'x, y, z'
loop_
 _atom_site_type_symbol
 _atom_site_label
 _atom_site_symmetry_multiplicity
 _atom_site_fract_x
 _atom_site_fract_y
 _atom_site_fract_z
 _atom_site_occupancy
  Ba  Ba0  1  0.66606220  0.37620696  0.00152779  1
  Ba  Ba1  1  0.16367419  0.87571794  0.83469272  1
  Ba  Ba2  1  0.00240343  0.62794852  0.33550299  1
  Ba  Ba3  1  0.66761948  0.62413604  0.99707331  1
  Ba  Ba4  1  0.33291305  0.37324370  0.66388246  1
  Ba  Ba5  1  0.50212809  0.62470788  0.83249079  1
  Ba  Ba6  1  0.16275484  0.37490842  0.83079100  1
  Ba  Ba7  1  -0.00259898  0.87549292  0.00007669  1
  Ba  Ba8  1  0.33131695  0.87603560  0.00298673  1
  Ba  Ba9  1  0.49710004  0.87386987  0.16818366  1
  Ba  Ba10  1  0.50288391  0.12567016  0.50131422  1
  Ba  Ba11  1  0.83065687  0.37616467  0.16693094  1
  Ba  Ba12  1  0.16601853  0.37597150  0.16767415  1
  Ba  Ba13  1  0.16846978  0.12637116  0.16682388  1
  Ba  Ba14  1  0.33467936  0.12636456  1.00279979  1
  Ba  Ba15  1  0.16712209  0.62367571  0.83108593  1
  Ba  Ba16  1  0.33728439  0.62401346  0.66601668  1
  Sr  Sr17  1  0.49023358  0.37415479  0.49783189  1
  Sr  Sr18  1  -0.00433459  0.87597440  0.33083651  1
  Sr  Sr19  1  0.33818657  0.62248147  0.33357904  1
  Sr  Sr20  1  0.00465776  0.12633136  1.00074471  1
  Sr  Sr21  1  -0.00601437  0.37543798  0.66958915  1
  La  La22  1  0.17350317  0.62656931  0.16713640  1
  La  La23  1  0.50380466  0.12191650  0.16851809  1
  La  La24  1  0.66989016  0.62575163  0.33158127  1
  La  La25  1  0.66044948  0.37198972  0.66769994  1
  La  La26  1  0.50418370  0.12792279  0.83594163  1
  La  La27  1  0.67310313  0.12461944  0.32977951  1
  La  La28  1  0.00816879  0.12379817  0.66732823  1
  La  La29  1  0.65793273  0.87423275  0.33455122  1
  Pr  Pr30  1  0.82594889  0.87450290  0.49553789  1
  Pr  Pr31  1  -0.00071248  0.37689046  0.00215141  1
  Pr  Pr32  1  0.49176705  0.87373195  0.83632147  1
  Pr  Pr33  1  0.82761452  0.87107870  0.16309382  1
  Pr  Pr34  1  0.67293697  0.12534869  1.00026852  1
  Pr  Pr35  1  0.84853987  0.62606522  0.50391716  1
  Pr  Pr36  1  0.16081788  0.87346877  0.15960494  1
  Pr  Pr37  1  -0.00499027  0.37206104  0.33513853  1
  Pr  Pr38  1  0.16135732  0.38005939  0.49747341  1
  Pr  Pr39  1  0.82854831  0.37460491  0.83197545  1
  Pr  Pr40  1  0.32420380  0.87821467  0.33329117  1
  Pr  Pr41  1  0.83764229  0.62498347  0.83339162  1
  Pr  Pr42  1  0.34428239  0.12804003  0.32633982  1
  Pr  Pr43  1  0.15901033  0.87253563  0.49880037  1
  Pr  Pr44  1  0.84165275  0.12516573  0.16699174  1
  Pr  Pr45  1  0.17152983  0.12539051  0.49879908  1
  Pr  Pr46  1  0.67742690  0.12541431  0.66193195  1
  Pr  Pr47  1  0.82803838  0.37480896  0.49328487  1
  Pr  Pr48  1  0.66048618  0.87251830  0.00166985  1
  Pr  Pr49  1  0.50212431  0.62643888  0.16364236  1
  Pr  Pr50  1  0.01375962  0.62445026  0.66160509  1
  Pr  Pr51  1  0.84390909  0.12287174  0.50025436  1
  Pr  Pr52  1  0.65405532  0.37652928  0.33695097  1
  Pr  Pr53  1  0.33063342  0.37723192  -0.00096670  1
  Pr  Pr54  1  0.17659299  0.62512118  0.50431399  1
  Pr  Pr55  1  0.49482312  0.37584942  0.16755896  1
  Pr  Pr56  1  0.48790686  0.87527707  0.49586467  1
  Pr  Pr57  1  0.00596629  0.12462826  0.32839247  1
  Pr  Pr58  1  0.32949044  0.87692816  0.67216816  1
  Pr  Pr59  1  0.67601328  0.62335102  0.66359335  1
  Pr  Pr60  1  0.00315308  0.62336632  1.00071754  1
  Pr  Pr61  1  -0.01084645  0.87263768  0.67374921  1
  Pr  Pr62  1  0.17306294  0.12790088  0.84043467  1
  Pr  Pr63  1  0.84160498  0.12540255  0.83545743  1
  Pr  Pr64  1  0.83829537  0.62348603  0.16552523  1
  Pr  Pr65  1  0.49525862  0.37716086  0.83283147  1
  Pr  Pr66  1  0.32207089  0.37336412  0.34038353  1
  Pr  Pr67  1  0.82479980  0.87682238  0.83150802  1
  Pr  Pr68  1  0.33433109  0.12633561  0.66891332  1
  Pr  Pr69  1  0.51096430  0.62376200  0.50817820  1
  Pr  Pr70  1  0.33554425  0.62514342  0.99420173  1
  Pr  Pr71  1  0.65501921  0.87834743  0.66810088  1
  Mn  Mn72  1  -0.00083538  -0.00072040  0.16830161  1
  Mn  Mn73  1  0.00107746  -0.00089330  0.49989511  1
  Mn  Mn74  1  -0.00213587  -0.00025590  0.83233931  1
  Mn  Mn75  1  -0.00009644  0.50122716  0.16771005  1
  Mn  Mn76  1  -0.00025837  0.49789498  0.50193098  1
  Mn  Mn77  1  -0.00396116  0.50062323  0.83206545  1
  Mn  Mn78  1  0.33326921  0.00069010  0.17001087  1
  Mn  Mn79  1  0.33055764  0.00103367  0.50156158  1
  Mn  Mn80  1  0.33433680  0.00056842  0.83271790  1
  Mn  Mn81  1  0.33579311  0.49971553  0.16728243  1
  Mn  Mn82  1  0.33434704  0.50048893  0.49674899  1
  Mn  Mn83  1  0.33355292  0.49951480  0.83344541  1
  Mn  Mn84  1  0.66929739  -0.00058050  0.16578174  1
  Mn  Mn85  1  0.66835454  0.00006700  0.49994736  1
  Mn  Mn86  1  0.66559330  0.00199039  0.83272225  1
  Mn  Mn87  1  0.66526159  0.50184314  0.16966157  1
  Mn  Mn88  1  0.66911326  0.49915232  0.49937451  1
  Mn  Mn89  1  0.66774858  0.49798817  0.82963490  1
  Mn  Mn90  1  -0.00097321  0.25107653  0.16661752  1
  Mn  Mn91  1  -0.00035154  0.24925914  0.50197805  1
  Mn  Mn92  1  -0.00225820  0.24991984  0.83252290  1
  Mn  Mn93  1  -0.00112840  0.74938669  0.16703567  1
  Mn  Mn94  1  0.00144859  0.75365407  0.50131264  1
  Mn  Mn95  1  -0.00355654  0.74916180  0.83230204  1
  Mn  Mn96  1  0.33606903  0.25281470  0.16792207  1
  Mn  Mn97  1  0.33058574  0.24695032  0.49940878  1
  Mn  Mn98  1  0.33506073  0.24968310  0.83311386  1
  Mn  Mn99  1  0.33370803  0.74674949  0.16920235  1
  Mn  Mn100  1  0.33377805  0.75172740  0.49832591  1
  Mn  Mn101  1  0.33282553  0.75013568  0.83358812  1
  Mn  Mn102  1  0.66700931  0.24920025  0.16786092  1
  Mn  Mn103  1  0.66839110  0.24955167  0.49918697  1
  Mn  Mn104  1  0.66752816  0.24842907  0.83201955  1
  Mn  Mn105  1  0.66635126  0.74837024  0.16693381  1
  Mn  Mn106  1  0.66835313  0.75123418  0.50093277  1
  Mn  Mn107  1  0.66659066  0.75299333  0.83069478  1
  Mn  Mn108  1  0.16544157  0.25117909  -0.00070395  1
  Mn  Mn109  1  0.16484474  0.25059276  0.33646983  1
  Mn  Mn110  1  0.16474283  0.24749924  0.66632807  1
  Mn  Mn111  1  0.16574695  0.74797648  0.00136653  1
  Mn  Mn112  1  0.16781134  0.75085496  0.33234658  1
  Mn  Mn113  1  0.16792102  0.75249390  0.66346066  1
  Mn  Mn114  1  0.50196394  0.25029961  0.00211287  1
  Mn  Mn115  1  0.50124090  0.25076788  0.33349855  1
  Mn  Mn116  1  0.50151864  0.24898715  0.66823793  1
  Mn  Mn117  1  0.49948745  0.75043576  0.00025734  1
  Mn  Mn118  1  0.49785342  0.74838802  0.33744826  1
  Mn  Mn119  1  0.50292713  0.75184883  0.66479950  1
  Mn  Mn120  1  0.83509387  0.24821048  -0.00067344  1
  Mn  Mn121  1  0.83219167  0.24930782  0.33430272  1
  Mn  Mn122  1  0.83455555  0.24930874  0.66397091  1
  Mn  Mn123  1  0.83284527  0.75054829  -0.00255345  1
  Mn  Mn124  1  0.83197525  0.75081946  0.33263656  1
  Mn  Mn125  1  0.83181868  0.75107061  0.66592821  1
  Mn  Mn126  1  0.16498319  0.00139352  0.00072020  1
  Mn  Mn127  1  0.16556196  -0.00236774  0.33457856  1
  Mn  Mn128  1  0.16592334  0.00161602  0.66526250  1
  Mn  Mn129  1  0.16664242  0.49907513  0.00059672  1
  Mn  Mn130  1  0.16574638  0.50341046  0.33318249  1
  Mn  Mn131  1  0.16722571  0.49715663  0.66433196  1
  Mn  Mn132  1  0.50261074  0.00310302  0.00117715  1
  Mn  Mn133  1  0.50043876  -0.00118217  0.33583306  1
  Mn  Mn134  1  0.50046737  0.00117041  0.66796402  1
  Mn  Mn135  1  0.49891084  0.49683802  0.00086796  1
  Mn  Mn136  1  0.49827064  0.50207571  0.33574828  1
  Mn  Mn137  1  0.50358952  0.49868478  0.66535471  1
  Mn  Mn138  1  0.83264488  -0.00029764  -0.00066618  1
  Mn  Mn139  1  0.83317668  -0.00187351  0.33286064  1
  Mn  Mn140  1  0.83321303  0.00023312  0.66481495  1
  Mn  Mn141  1  0.83482080  0.50165111  -0.00170600  1
  Mn  Mn142  1  0.83201075  0.50155834  0.33456925  1
  Mn  Mn143  1  0.83425932  0.49870215  0.66472363  1
  O  O144  1  0.16528663  0.12692117  0.00557725  1
  O  O145  1  0.15646589  0.12498494  0.35600774  1
  O  O146  1  0.15935824  0.12242898  0.69340869  1
  O  O147  1  0.17151104  0.62228295  0.01943805  1
  O  O148  1  0.16848915  0.62925095  0.36070924  1
  O  O149  1  0.16126079  0.62547880  0.66941150  1
  O  O150  1  0.50820552  0.12715186  0.02410366  1
  O  O151  1  0.49852930  0.12495242  0.34409031  1
  O  O152  1  0.49992817  0.12300858  0.69057433  1
  O  O153  1  0.49255610  0.61930397  0.01877854  1
  O  O154  1  0.50144201  0.62749844  0.36492221  1
  O  O155  1  0.51048520  0.62655212  0.67362519  1
  O  O156  1  0.82745960  0.12147468  0.02299846  1
  O  O157  1  0.82748804  0.12275545  0.35846393  1
  O  O158  1  0.82760894  0.12346026  0.69104452  1
  O  O159  1  0.83797004  0.62749686  0.02045479  1
  O  O160  1  0.82566534  0.62640779  0.36051672  1
  O  O161  1  0.82385305  0.62988384  0.69008258  1
  O  O162  1  0.17115054  0.37489266  0.32530527  1
  O  O163  1  0.16259700  0.36990137  0.64246430  1
  O  O164  1  0.16024629  0.37508306  0.98944342  1
  O  O165  1  0.17543206  0.87328945  0.30469324  1
  O  O166  1  0.17461758  0.87940757  0.64312386  1
  O  O167  1  0.16380749  0.87516091  0.99760494  1
  O  O168  1  0.50477050  0.37467458  0.31212709  1
  O  O169  1  0.50681543  0.37226208  0.64760828  1
  O  O170  1  0.49688968  0.37232332  0.97794990  1
  O  O171  1  0.50358377  0.87317334  0.32483385  1
  O  O172  1  0.50459464  0.87802874  0.63904177  1
  O  O173  1  0.50700681  0.88128371  0.98175422  1
  O  O174  1  0.84492761  0.37553958  0.32483749  1
  O  O175  1  0.83428812  0.36946473  0.63723842  1
  O  O176  1  0.84103848  0.37487638  0.97617670  1
  O  O177  1  0.83089627  0.87577023  0.30821431  1
  O  O178  1  0.83989562  0.87630041  0.63804234  1
  O  O179  1  0.82743449  0.87648617  0.97449375  1
  O  O180  1  -0.00131382  0.37731642  0.19017877  1
  O  O181  1  -0.00489329  0.37261035  0.52117279  1
  O  O182  1  -0.01004831  0.37617740  0.85721552  1
  O  O183  1  0.00653184  0.87345997  0.18119779  1
  O  O184  1  0.00444916  0.87834315  0.52986002  1
  O  O185  1  -0.00793986  0.87416811  0.84198116  1
  O  O186  1  0.34211869  0.37769518  0.19624442  1
  O  O187  1  0.32866329  0.37217983  0.50511757  1
  O  O188  1  0.34317740  0.37351510  0.85154150  1
  O  O189  1  0.32766961  0.87346977  0.18926260  1
  O  O190  1  0.33785127  0.87834087  0.52745133  1
  O  O191  1  0.33954413  0.87697405  0.84141851  1
  O  O192  1  0.66251427  0.37772538  0.19223535  1
  O  O193  1  0.67897954  0.37512833  0.52355894  1
  O  O194  1  0.67871022  0.37207743  0.84391994  1
  O  O195  1  0.67716002  0.87478157  0.19039704  1
  O  O196  1  0.67792193  0.87572341  0.52556907  1
  O  O197  1  0.67526457  0.88259932  0.85896769  1
  O  O198  1  -0.00894950  0.12533261  0.15539945  1
  O  O199  1  -0.00149093  0.12204798  0.47123576  1
  O  O200  1  -0.00915157  0.12286794  0.80867256  1
  O  O201  1  -0.01066032  0.62459181  0.14704845  1
  O  O202  1  -0.00088160  0.62652561  0.49264804  1
  O  O203  1  -0.01164650  0.62632014  0.80492963  1
  O  O204  1  0.34051652  0.12861542  0.16314478  1
  O  O205  1  0.32462527  0.12213527  0.47071032  1
  O  O206  1  0.33305710  0.12397693  0.81471377  1
  O  O207  1  0.33304431  0.61903200  0.14109430  1
  O  O208  1  0.32888369  0.62697950  0.48290115  1
  O  O209  1  0.33445559  0.62435111  0.82843335  1
  O  O210  1  0.66103340  0.12191292  0.14590289  1
  O  O211  1  0.67235043  0.12311280  0.47417534  1
  O  O212  1  0.65930054  0.12380583  0.80343062  1
  O  O213  1  0.65270130  0.62483393  0.15595585  1
  O  O214  1  0.66042485  0.62651075  0.47757779  1
  O  O215  1  0.67229795  0.62368518  0.80669219  1
  O  O216  1  0.08271586  0.01184795  0.25365491  1
  O  O217  1  0.09051111  0.02213759  0.57449764  1
  O  O218  1  0.08409463  0.01727475  0.90462127  1
  O  O219  1  0.09132312  0.51922569  0.24589623  1
  O  O220  1  0.09168478  0.51257020  0.57138451  1
  O  O221  1  0.07661569  0.51361440  0.91901825  1
  O  O222  1  0.41996788  0.01378392  0.25069038  1
  O  O223  1  0.41378876  0.01723530  0.58626943  1
  O  O224  1  0.42809154  0.01329411  0.90769705  1
  O  O225  1  0.42740574  0.52034438  0.23745793  1
  O  O226  1  0.42877709  0.51184948  0.57089870  1
  O  O227  1  0.41211888  0.50876467  0.92466689  1
  O  O228  1  0.75820836  0.02249294  0.24062668  1
  O  O229  1  0.76006534  0.02097715  0.57420568  1
  O  O230  1  0.75248882  0.02651703  0.90711535  1
  O  O231  1  0.75147036  0.52300939  0.24721124  1
  O  O232  1  0.76175776  0.52280972  0.57044097  1
  O  O233  1  0.75986086  0.51232623  0.90298000  1
  O  O234  1  0.26213722  0.24002946  0.26504291  1
  O  O235  1  0.25079193  0.22227591  0.58823193  1
  O  O236  1  0.25146014  0.24297039  0.91512126  1
  O  O237  1  0.25683182  0.72792953  0.25616535  1
  O  O238  1  0.25344737  0.74002004  0.57913584  1
  O  O239  1  0.25367017  0.73754798  0.92713969  1
  O  O240  1  0.59440551  0.23339177  0.26163431  1
  O  O241  1  0.59654134  0.23422133  0.59689055  1
  O  O242  1  0.59249951  0.22917648  0.92468709  1
  O  O243  1  0.58909540  0.73655327  0.26534117  1
  O  O244  1  0.60033828  0.73624417  0.59452662  1
  O  O245  1  0.58791243  0.74912073  0.91866221  1
  O  O246  1  0.91855555  0.23029455  0.25943701  1
  O  O247  1  0.92403786  0.22219973  0.58936737  1
  O  O248  1  0.91861780  0.22850048  0.91806723  1
  O  O249  1  0.91602126  0.73872494  0.24992894  1
  O  O250  1  0.92538396  0.73180456  0.59833161  1
  O  O251  1  0.91997180  0.72746274  0.92048194  1
  O  O252  1  0.07871946  0.49362639  0.07884267  1
  O  O253  1  0.07265660  0.47652802  0.41321474  1
  O  O254  1  0.07139732  0.49272891  0.74144987  1
  O  O255  1  0.08011461  0.99254338  0.08681431  1
  O  O256  1  0.08012085  0.97629185  0.41492458  1
  O  O257  1  0.07127522  0.98427204  0.73512070  1
  O  O258  1  0.41329157  0.47293031  0.08296119  1
  O  O259  1  0.40638067  0.48269054  0.40385055  1
  O  O260  1  0.42047148  0.48702782  0.75387548  1
  O  O261  1  0.41904288  0.99759976  0.08627785  1
  O  O262  1  0.40794954  0.98123737  0.41586952  1
  O  O263  1  0.41527720  0.98078662  0.74517481  1
  O  O264  1  0.75184668  0.49798322  0.08286730  1
  O  O265  1  0.74117752  0.47877385  0.40879715  1
  O  O266  1  0.74346352  0.48067821  0.73468100  1
  O  O267  1  0.74510778  0.97798922  0.07691556  1
  O  O268  1  0.74423779  0.97680782  0.40722488  1
  O  O269  1  0.74041880  0.97993285  0.74178715  1
  O  O270  1  0.25433097  0.26529988  0.08397089  1
  O  O271  1  0.23661593  0.26330134  0.42799116  1
  O  O272  1  0.24590059  0.25144001  0.74926575  1
  O  O273  1  0.23984733  0.75851875  0.09744094  1
  O  O274  1  0.24505406  0.77665876  0.41989220  1
  O  O275  1  0.24990302  0.76370754  0.74538885  1
  O  O276  1  0.57348406  0.26429425  0.09794867  1
  O  O277  1  0.57831285  0.26963479  0.42088580  1
  O  O278  1  0.57725652  0.26957155  0.76221184  1
  O  O279  1  0.58260756  0.76167680  0.08582909  1
  O  O280  1  0.57482397  0.76994579  0.43329616  1
  O  O281  1  0.57830401  0.77755528  0.75525429  1
  O  O282  1  0.91556247  0.26269551  0.08223791  1
  O  O283  1  0.90881186  0.26311982  0.42692099  1
  O  O284  1  0.90412246  0.26584410  0.75749465  1
  O  O285  1  0.90461764  0.76448511  0.09003274  1
  O  O286  1  0.90811153  0.76629625  0.43137144  1
  O  O287  1  0.90092724  0.77074323  0.75724298  1
  O  O288  1  0.25626893  0.48398503  0.08272348  1
  O  O289  1  0.24158693  0.48649097  0.42049552  1
  O  O290  1  0.24758164  0.49147417  0.74755277  1
  O  O291  1  0.24557794  0.98903360  0.09657578  1
  O  O292  1  0.24145826  0.97569334  0.42461795  1
  O  O293  1  0.25276136  0.99097737  0.74369380  1
  O  O294  1  0.57303697  0.48698454  0.09574562  1
  O  O295  1  0.57914170  0.48064214  0.42712916  1
  O  O296  1  0.58238339  0.47719095  0.75243381  1
  O  O297  1  0.58812448  0.98437425  0.08262844  1
  O  O298  1  0.57998331  0.97880428  0.42625314  1
  O  O299  1  0.57638054  0.97504413  0.76029901  1
  O  O300  1  0.92072189  0.48623417  0.07647680  1
  O  O301  1  0.90769361  0.48846223  0.43002145  1
  O  O302  1  0.90271536  0.48213266  0.75991324  1
  O  O303  1  0.90499621  0.98560890  0.09772939  1
  O  O304  1  0.90740081  0.98109986  0.42741057  1
  O  O305  1  0.90616474  0.98132130  0.75375258  1
  O  O306  1  0.07576856  0.26255492  0.07605540  1
  O  O307  1  0.07415037  0.27240948  0.41524818  1
  O  O308  1  0.07154723  0.25881837  0.74028808  1
  O  O309  1  0.07946006  0.75056652  0.08182297  1
  O  O310  1  0.08144867  0.77392383  0.41127774  1
  O  O311  1  0.06971716  0.76155669  0.73677901  1
  O  O312  1  0.41338211  0.27401451  0.07980895  1
  O  O313  1  0.40574500  0.26129879  0.40206518  1
  O  O314  1  0.41839738  0.25813987  0.75060065  1
  O  O315  1  0.41267118  0.75158162  0.08247692  1
  O  O316  1  0.40747823  0.77398854  0.40997077  1
  O  O317  1  0.41675855  0.77027964  0.74009195  1
  O  O318  1  0.74524148  0.25355980  0.07826329  1
  O  O319  1  0.74299027  0.27168834  0.40625307  1
  O  O320  1  0.74315621  0.26397060  0.73614421  1
  O  O321  1  0.74575482  0.77000106  0.07433252  1
  O  O322  1  0.73910181  0.77152548  0.40848927  1
  O  O323  1  0.74085872  0.77599557  0.73661821  1
  O  O324  1  0.25963986  0.01608159  0.26683305  1
  O  O325  1  0.25179282  0.02763619  0.58587440  1
  O  O326  1  0.24951660  0.01243917  0.91142130  1
  O  O327  1  0.25717324  0.51675619  0.24966303  1
  O  O328  1  0.25118897  0.50911561  0.57695620  1
  O  O329  1  0.25384034  0.50563030  0.92269340  1
  O  O330  1  0.59362830  0.01335828  0.25484161  1
  O  O331  1  0.59629843  0.01510408  0.59744306  1
  O  O332  1  0.59117562  0.02386214  0.92025504  1
  O  O333  1  0.58862386  0.51768761  0.26468754  1
  O  O334  1  0.59865270  0.51669528  0.58925010  1
  O  O335  1  0.58277154  0.50225185  0.91480784  1
  O  O336  1  0.92104069  0.01918497  0.25993137  1
  O  O337  1  0.92525036  0.02291087  0.58794002  1
  O  O338  1  0.91562647  0.01795786  0.91778520  1
  O  O339  1  0.91376889  0.51623149  0.25094462  1
  O  O340  1  0.92500256  0.52139698  0.59489265  1
  O  O341  1  0.91916502  0.52567808  0.91814142  1
  O  O342  1  0.08018873  0.24061012  0.25650443  1
  O  O343  1  0.08899492  0.22532699  0.57493383  1
  O  O344  1  0.08518140  0.23330987  0.90596812  1
  O  O345  1  0.09517563  0.73557846  0.24107061  1
  O  O346  1  0.09278186  0.73776284  0.57242501  1
  O  O347  1  0.08036094  0.73314882  0.91716547  1
  O  O348  1  0.43141089  0.23616038  0.24046660  1
  O  O349  1  0.41331525  0.23337424  0.58284069  1
  O  O350  1  0.42906144  0.23506971  0.91086930  1
  O  O351  1  0.42394025  0.72774786  0.24556731  1
  O  O352  1  0.43357133  0.73888719  0.56850138  1
  O  O353  1  0.41920532  0.74360125  0.91599699  1
  O  O354  1  0.75561359  0.22721727  0.24452004  1
  O  O355  1  0.76159404  0.22576611  0.57362429  1
  O  O356  1  0.75633656  0.22736520  0.90726171  1
  O  O357  1  0.75480375  0.72710622  0.23951828  1
  O  O358  1  0.76253402  0.72994782  0.57074558  1
  O  O359  1  0.76032124  0.73756683  0.90177920  1
