# generated using pymatgen
data_Ba17Sr5La8Pr42Mn72O216
_symmetry_space_group_name_H-M   'P 1'
_cell_length_a   16.67746366
_cell_length_b   15.71205836
_cell_length_c   16.81849080
_cell_angle_alpha   90.00038695
_cell_angle_beta   89.99546557
_cell_angle_gamma   90.02976295
_symmetry_Int_Tables_number   1
_chemical_formula_structural   Ba17Sr5La8Pr42Mn72O216
_chemical_formula_sum   'Ba17 Sr5 La8 Pr42 Mn72 O216'
_cell_volume   4407.07101515
_cell_formula_units_Z   1
loop_
 _symmetry_equiv_pos_site_id
 _symmetry_equiv_pos_as_xyz
  1  'x, y, z'
loop_
 _atom_site_type_symbol
 _atom_site_label
 _atom_site_symmetry_multiplicity
 _atom_site_fract_x
 _atom_site_fract_y
 _atom_site_fract_z
 _atom_site_occupancy
  Ba  Ba0  1  0.66820408  0.37584501  0.66471092  1
  Ba  Ba1  1  0.66357331  0.12484672  0.33340069  1
  Ba  Ba2  1  0.17015318  0.37736454  0.50047995  1
  Ba  Ba3  1  0.82927880  0.12398348  0.83144805  1
  Ba  Ba4  1  0.83489341  0.37706785  0.16431122  1
  Ba  Ba5  1  0.00264561  0.87526498  0.66928361  1
  Ba  Ba6  1  0.49751175  0.12433661  0.16817745  1
  Ba  Ba7  1  0.83079488  0.12306547  0.49883231  1
  Ba  Ba8  1  0.83411291  0.87255227  0.83019751  1
  Ba  Ba9  1  0.17001645  0.37686079  0.83060034  1
  Ba  Ba10  1  0.17107839  0.87260324  0.83067701  1
  Ba  Ba11  1  0.33591118  0.37648103  0.66839544  1
  Ba  Ba12  1  0.16135293  0.12250449  0.16790285  1
  Ba  Ba13  1  0.83255062  0.37606081  0.83070645  1
  Ba  Ba14  1  0.00172912  0.37514911  0.66664974  1
  Ba  Ba15  1  0.50035579  0.62739969  0.50257397  1
  Ba  Ba16  1  0.66782598  0.37498904  0.33211846  1
  Sr  Sr17  1  0.33790512  0.87600870  0.33414237  1
  Sr  Sr18  1  0.16401120  0.62380665  0.83045313  1
  Sr  Sr19  1  0.66551233  0.12590130  0.66627818  1
  Sr  Sr20  1  0.16417725  0.62485567  0.50147600  1
  Sr  Sr21  1  0.49764069  0.12729867  0.83598263  1
  La  La22  1  0.33813220  0.37346373  0.33936717  1
  La  La23  1  0.66063684  0.12710358  0.99481678  1
  La  La24  1  0.32719790  0.12300866  0.33137015  1
  La  La25  1  -0.00741045  0.12563912  0.33065029  1
  La  La26  1  0.83405717  0.62322796  0.49982407  1
  La  La27  1  -0.00652197  0.12574745  0.99810766  1
  La  La28  1  0.32561600  0.12315188  0.99715721  1
  La  La29  1  -0.00501905  0.62337818  0.99617196  1
  Pr  Pr30  1  0.34168862  0.87149995  0.67014712  1
  Pr  Pr31  1  0.49801104  0.12567201  0.50522197  1
  Pr  Pr32  1  0.50780356  0.87486834  0.49910799  1
  Pr  Pr33  1  0.00400411  0.37332293  0.34008364  1
  Pr  Pr34  1  0.83708503  0.87289949  0.16082437  1
  Pr  Pr35  1  0.50957427  0.37427026  0.16658897  1
  Pr  Pr36  1  0.82678228  0.12528022  0.16903652  1
  Pr  Pr37  1  0.67165629  0.87651803  0.66626195  1
  Pr  Pr38  1  0.31994146  0.62793822  0.33355353  1
  Pr  Pr39  1  0.00960258  0.37427329  0.00018045  1
  Pr  Pr40  1  0.50405433  0.37376877  0.83172686  1
  Pr  Pr41  1  0.49221903  0.62606325  0.17527929  1
  Pr  Pr42  1  0.82525370  0.62369746  0.16807425  1
  Pr  Pr43  1  0.17326188  0.37542103  0.16443753  1
  Pr  Pr44  1  0.00499012  0.62521082  0.66954141  1
  Pr  Pr45  1  0.50554312  0.87718451  0.83392299  1
  Pr  Pr46  1  -0.00656489  0.62255438  0.33264223  1
  Pr  Pr47  1  0.17685900  0.87128997  0.49926900  1
  Pr  Pr48  1  0.32865923  0.12464248  0.66883595  1
  Pr  Pr49  1  -0.00627587  0.12525933  0.67070783  1
  Pr  Pr50  1  0.32332192  0.62741156  0.99766103  1
  Pr  Pr51  1  0.83760120  0.87692954  0.49709304  1
  Pr  Pr52  1  0.00892854  0.87421671  0.00009802  1
  Pr  Pr53  1  0.83720935  0.36974908  0.49492684  1
  Pr  Pr54  1  0.49617677  0.62334698  0.83485331  1
  Pr  Pr55  1  0.83584201  0.62325920  0.82746122  1
  Pr  Pr56  1  0.15826299  0.12652061  0.83548198  1
  Pr  Pr57  1  0.66866494  0.87796978  0.33347452  1
  Pr  Pr58  1  0.67157180  0.37163731  0.00019781  1
  Pr  Pr59  1  0.16109958  0.12421546  0.50104406  1
  Pr  Pr60  1  0.65867825  0.62400085  0.32904266  1
  Pr  Pr61  1  0.50700620  0.87672495  0.16650316  1
  Pr  Pr62  1  0.00530718  0.87501519  0.33924448  1
  Pr  Pr63  1  0.34291003  0.87435528  0.00357526  1
  Pr  Pr64  1  0.15533626  0.62853470  0.16901735  1
  Pr  Pr65  1  0.34142188  0.37625982  0.00275909  1
  Pr  Pr66  1  0.66949084  0.62672326  0.66302478  1
  Pr  Pr67  1  0.67293655  0.87777333  0.00036825  1
  Pr  Pr68  1  0.50599924  0.37443848  0.49973576  1
  Pr  Pr69  1  0.32413141  0.62503113  0.66497704  1
  Pr  Pr70  1  0.17840544  0.87458752  0.16265414  1
  Pr  Pr71  1  0.66346080  0.62421140  0.99549675  1
  Mn  Mn72  1  -0.00186040  -0.00439128  0.16752818  1
  Mn  Mn73  1  0.00219455  -0.00204461  0.50069331  1
  Mn  Mn74  1  0.00037839  -0.00094320  0.83482566  1
  Mn  Mn75  1  0.00076079  0.50118162  0.16634794  1
  Mn  Mn76  1  0.00069429  0.50306656  0.49872456  1
  Mn  Mn77  1  0.00068244  0.50174430  0.83369038  1
  Mn  Mn78  1  0.33409351  -0.00130966  0.16786755  1
  Mn  Mn79  1  0.33427268  -0.00080200  0.50114723  1
  Mn  Mn80  1  0.33481328  -0.00065184  0.83350956  1
  Mn  Mn81  1  0.33277694  0.50210766  0.16831128  1
  Mn  Mn82  1  0.33526542  0.50175615  0.50048062  1
  Mn  Mn83  1  0.33444160  0.50335294  0.83602543  1
  Mn  Mn84  1  0.66717975  -0.00256095  0.16600102  1
  Mn  Mn85  1  0.66547492  -0.00085170  0.50096831  1
  Mn  Mn86  1  0.66412350  -0.00042196  0.83282100  1
  Mn  Mn87  1  0.66329714  0.50219109  0.16218218  1
  Mn  Mn88  1  0.66815754  0.50143966  0.49808996  1
  Mn  Mn89  1  0.66456117  0.50437631  0.83180832  1
  Mn  Mn90  1  0.00012947  0.25193999  0.16692948  1
  Mn  Mn91  1  0.00179939  0.24740502  0.49996584  1
  Mn  Mn92  1  -0.00092163  0.25002209  0.83427825  1
  Mn  Mn93  1  -0.00134370  0.75085225  0.16832128  1
  Mn  Mn94  1  0.00132439  0.75027514  0.50026361  1
  Mn  Mn95  1  0.00094992  0.74788076  0.83424497  1
  Mn  Mn96  1  0.33321138  0.25199300  0.16884513  1
  Mn  Mn97  1  0.33465145  0.24791252  0.49989641  1
  Mn  Mn98  1  0.33425225  0.24864736  0.83491302  1
  Mn  Mn99  1  0.33412499  0.74926699  0.16660936  1
  Mn  Mn100  1  0.33445170  0.75061135  0.50088390  1
  Mn  Mn101  1  0.33599428  0.74922583  0.83497110  1
  Mn  Mn102  1  0.66642584  0.24965290  0.16465349  1
  Mn  Mn103  1  0.66574982  0.24977770  0.50007368  1
  Mn  Mn104  1  0.66400835  0.24919515  0.83236025  1
  Mn  Mn105  1  0.66456774  0.74907173  0.16442074  1
  Mn  Mn106  1  0.66995446  0.75158488  0.49708453  1
  Mn  Mn107  1  0.66443466  0.74894214  0.83118457  1
  Mn  Mn108  1  0.16834819  0.25101235  0.00091392  1
  Mn  Mn109  1  0.16569530  0.24982262  0.33230823  1
  Mn  Mn110  1  0.16824976  0.24659659  0.66825384  1
  Mn  Mn111  1  0.16722770  0.74938479  0.00066745  1
  Mn  Mn112  1  0.16457803  0.75124938  0.33300082  1
  Mn  Mn113  1  0.16860287  0.75007388  0.66446337  1
  Mn  Mn114  1  0.49819147  0.25168439  0.00041693  1
  Mn  Mn115  1  0.49791495  0.24897484  0.33525687  1
  Mn  Mn116  1  0.49937102  0.24814565  0.66878115  1
  Mn  Mn117  1  0.50129152  0.74801959  0.00308218  1
  Mn  Mn118  1  0.49781595  0.75131810  0.33432302  1
  Mn  Mn119  1  0.50190916  0.75093175  0.66960768  1
  Mn  Mn120  1  0.83384075  0.25061292  0.00055462  1
  Mn  Mn121  1  0.83411153  0.24989486  0.33034822  1
  Mn  Mn122  1  0.83273027  0.24937913  0.66447123  1
  Mn  Mn123  1  0.83351851  0.74819677  -0.00127733  1
  Mn  Mn124  1  0.83193401  0.75002663  0.33078588  1
  Mn  Mn125  1  0.83431812  0.74842704  0.66304052  1
  Mn  Mn126  1  0.16717287  -0.00137032  -0.00041467  1
  Mn  Mn127  1  0.16569518  -0.00367050  0.33441612  1
  Mn  Mn128  1  0.16967194  0.00127512  0.66644628  1
  Mn  Mn129  1  0.16824920  0.50071878  0.00187927  1
  Mn  Mn130  1  0.16549017  0.50295818  0.33065554  1
  Mn  Mn131  1  0.16752660  0.50136554  0.66646074  1
  Mn  Mn132  1  0.49966469  -0.00120041  -0.00026654  1
  Mn  Mn133  1  0.49775652  -0.00251275  0.33584424  1
  Mn  Mn134  1  0.49903963  0.00007851  0.66799872  1
  Mn  Mn135  1  0.49930841  0.50320121  0.00285388  1
  Mn  Mn136  1  0.49692842  0.50225645  0.33419577  1
  Mn  Mn137  1  0.50103827  0.50232916  0.66922143  1
  Mn  Mn138  1  0.83417161  -0.00302949  0.00146373  1
  Mn  Mn139  1  0.83370726  -0.00330491  0.32867228  1
  Mn  Mn140  1  0.83291213  0.00054281  0.66466231  1
  Mn  Mn141  1  0.83290470  0.50263119  -0.00161527  1
  Mn  Mn142  1  0.83294998  0.50154962  0.33300470  1
  Mn  Mn143  1  0.83397996  0.50298429  0.66352877  1
  O  O144  1  0.16952090  0.12509600  0.01258923  1
  O  O145  1  0.16858737  0.11765263  0.35478858  1
  O  O146  1  0.17734773  0.12194733  0.69018622  1
  O  O147  1  0.17113438  0.62481906  0.02732072  1
  O  O148  1  0.16985756  0.62867150  0.35176095  1
  O  O149  1  0.16999093  0.62814925  0.67826946  1
  O  O150  1  0.50711678  0.12464415  0.01171660  1
  O  O151  1  0.49325105  0.11852487  0.35770179  1
  O  O152  1  0.49831362  0.12201246  0.68671228  1
  O  O153  1  0.51101119  0.62627206  0.03313478  1
  O  O154  1  0.50728895  0.62781912  0.34402334  1
  O  O155  1  0.51184562  0.63085570  0.69201109  1
  O  O156  1  0.84109654  0.11847661  0.02455589  1
  O  O157  1  0.83869005  0.12250333  0.34041229  1
  O  O158  1  0.83585827  0.12407510  0.67120050  1
  O  O159  1  0.84121448  0.62684570  0.02556958  1
  O  O160  1  0.83091611  0.62845197  0.35561645  1
  O  O161  1  0.82502339  0.62733757  0.68193218  1
  O  O162  1  0.16009394  0.38190127  0.30806403  1
  O  O163  1  0.16756321  0.37084093  0.65824951  1
  O  O164  1  0.16378500  0.37726825  0.98775459  1
  O  O165  1  0.15723134  0.87224212  0.30528285  1
  O  O166  1  0.17351885  0.87686892  0.64371904  1
  O  O167  1  0.16176882  0.87261228  0.98796598  1
  O  O168  1  0.48983357  0.38118907  0.31109445  1
  O  O169  1  0.49830739  0.37305124  0.64361018  1
  O  O170  1  0.49117495  0.38087472  0.97523777  1
  O  O171  1  0.49934380  0.87211156  0.31086027  1
  O  O172  1  0.49206705  0.87444571  0.64169520  1
  O  O173  1  0.49267963  0.86954342  0.97697878  1
  O  O174  1  0.84507842  0.37638785  0.32188983  1
  O  O175  1  0.83633216  0.38106292  0.64286271  1
  O  O176  1  0.82075193  0.38154625  0.98872169  1
  O  O177  1  0.83375182  0.87033069  0.30328454  1
  O  O178  1  0.82981561  0.87080657  0.64351515  1
  O  O179  1  0.82289187  0.87083661  0.98576159  1
  O  O180  1  0.00699691  0.38326815  0.19506755  1
  O  O181  1  -0.00961682  0.37752701  0.50644660  1
  O  O182  1  0.00057576  0.37818983  0.85306951  1
  O  O183  1  -0.01001005  0.87106083  0.19750567  1
  O  O184  1  -0.00963252  0.87330804  0.51372922  1
  O  O185  1  0.00191823  0.87207688  0.85296446  1
  O  O186  1  0.32615560  0.38220695  0.19502979  1
  O  O187  1  0.33716502  0.37421497  0.51010794  1
  O  O188  1  0.33935132  0.38016451  0.85891690  1
  O  O189  1  0.33054156  0.87192427  0.18364876  1
  O  O190  1  0.32662736  0.87674703  0.52760506  1
  O  O191  1  0.33955560  0.87234878  0.85998461  1
  O  O192  1  0.66445792  0.37945653  0.17325894  1
  O  O193  1  0.65927891  0.37676064  0.50733273  1
  O  O194  1  0.66110329  0.38196725  0.85716550  1
  O  O195  1  0.67086423  0.87021109  0.18910374  1
  O  O196  1  0.66323246  0.87371003  0.52183703  1
  O  O197  1  0.66359112  0.87105794  0.85824721  1
  O  O198  1  -0.00610075  0.11672241  0.14078030  1
  O  O199  1  0.00928431  0.11898042  0.47393991  1
  O  O200  1  0.00504269  0.12339838  0.82304298  1
  O  O201  1  0.00414520  0.62737633  0.13926910  1
  O  O202  1  0.00015860  0.62925855  0.47420465  1
  O  O203  1  -0.00032242  0.62546864  0.81929454  1
  O  O204  1  0.33284117  0.12196569  0.14443081  1
  O  O205  1  0.34264579  0.12151061  0.47317467  1
  O  O206  1  0.34055354  0.12005021  0.81403425  1
  O  O207  1  0.34143092  0.62539685  0.13959448  1
  O  O208  1  0.33331850  0.62673753  0.47591800  1
  O  O209  1  0.34504947  0.62826703  0.81071447  1
  O  O210  1  0.66998277  0.11982351  0.14360086  1
  O  O211  1  0.65908434  0.12173579  0.49046801  1
  O  O212  1  0.65770668  0.12052686  0.82202632  1
  O  O213  1  0.65629193  0.62747353  0.14091607  1
  O  O214  1  0.67541087  0.62981232  0.47080996  1
  O  O215  1  0.65287328  0.62878435  0.80580432  1
  O  O216  1  0.06723064  0.01159581  0.26322231  1
  O  O217  1  0.08343424  0.02241861  0.58867051  1
  O  O218  1  0.07766345  0.01501146  0.92688112  1
  O  O219  1  0.07710079  0.52977650  0.25269098  1
  O  O220  1  0.07886608  0.51751432  0.58421909  1
  O  O221  1  0.07710265  0.51436221  0.92963265  1
  O  O222  1  0.40806754  0.01172760  0.26160317  1
  O  O223  1  0.40794751  0.01904702  0.59256118  1
  O  O224  1  0.40499100  0.01285235  0.92925355  1
  O  O225  1  0.40533766  0.52649190  0.25883503  1
  O  O226  1  0.41409851  0.52104660  0.59692123  1
  O  O227  1  0.41213368  0.52800917  0.93028113  1
  O  O228  1  0.74825091  0.01040656  0.24802279  1
  O  O229  1  0.74338650  0.00272765  0.58567301  1
  O  O230  1  0.73903703  0.01260561  0.92931821  1
  O  O231  1  0.74222310  0.52402280  0.25048357  1
  O  O232  1  0.74981259  0.52230473  0.58160352  1
  O  O233  1  0.74546877  0.52926577  0.91314325  1
  O  O234  1  0.24291531  0.24035723  0.24621880  1
  O  O235  1  0.24819909  0.22483147  0.57617492  1
  O  O236  1  0.24549984  0.23009582  0.91143961  1
  O  O237  1  0.24129997  0.73161363  0.23954926  1
  O  O238  1  0.24732757  0.73426281  0.57641532  1
  O  O239  1  0.25027961  0.72998570  0.91239130  1
  O  O240  1  0.57669965  0.24713546  0.24453502  1
  O  O241  1  0.57468974  0.23518318  0.58012349  1
  O  O242  1  0.57753706  0.24436301  0.91514180  1
  O  O243  1  0.57757113  0.73435427  0.24168068  1
  O  O244  1  0.59175324  0.73959354  0.58779943  1
  O  O245  1  0.57799588  0.72841410  0.91692071  1
  O  O246  1  0.91138457  0.22994371  0.24169430  1
  O  O247  1  0.92225395  0.23589152  0.58081459  1
  O  O248  1  0.91605299  0.24014436  0.92023765  1
  O  O249  1  0.91018190  0.72274985  0.24285758  1
  O  O250  1  0.91786648  0.72632652  0.58133348  1
  O  O251  1  0.91346176  0.72942041  0.91399522  1
  O  O252  1  0.09346503  0.48345393  0.09354410  1
  O  O253  1  0.08108692  0.48917298  0.41094718  1
  O  O254  1  0.08372766  0.50085532  0.75177358  1
  O  O255  1  0.08619881  0.97289144  0.09449987  1
  O  O256  1  0.09131410  0.97336607  0.42525639  1
  O  O257  1  0.09081690  0.99809170  0.75607641  1
  O  O258  1  0.42279390  0.47840097  0.09525944  1
  O  O259  1  0.42326673  0.48155235  0.42321018  1
  O  O260  1  0.42592367  0.48930192  0.76729663  1
  O  O261  1  0.42442984  0.97649488  0.08941933  1
  O  O262  1  0.42470641  0.97648907  0.43079952  1
  O  O263  1  0.42373686  0.97521396  0.75803119  1
  O  O264  1  0.74688070  0.50043968  0.07939684  1
  O  O265  1  0.76035486  0.48483043  0.42548008  1
  O  O266  1  0.74878804  0.50122352  0.74981485  1
  O  O267  1  0.75580147  0.97823041  0.08897885  1
  O  O268  1  0.75490382  0.97566443  0.41475371  1
  O  O269  1  0.74595034  0.98594102  0.74874694  1
  O  O270  1  0.25854362  0.27142294  0.07732721  1
  O  O271  1  0.25943067  0.25868962  0.40726407  1
  O  O272  1  0.25716474  0.25187553  0.74706161  1
  O  O273  1  0.25972167  0.76740851  0.07667895  1
  O  O274  1  0.25149151  0.76917195  0.40876424  1
  O  O275  1  0.26329210  0.76113736  0.73891654  1
  O  O276  1  0.58612005  0.27035349  0.07575550  1
  O  O277  1  0.57933563  0.26103621  0.41898487  1
  O  O278  1  0.58102782  0.26559059  0.75221351  1
  O  O279  1  0.58796814  0.77932710  0.07919058  1
  O  O280  1  0.58942775  0.77153428  0.41264776  1
  O  O281  1  0.58405457  0.78045305  0.74942194  1
  O  O282  1  0.92966012  0.26783424  0.07564603  1
  O  O283  1  0.92305985  0.26063594  0.40892009  1
  O  O284  1  0.92041189  0.25124480  0.74687152  1
  O  O285  1  0.92529667  0.77294072  0.08058540  1
  O  O286  1  0.91890632  0.76817173  0.41326926  1
  O  O287  1  0.91547934  0.74808071  0.74773004  1
  O  O288  1  0.25875038  0.47983845  0.07876376  1
  O  O289  1  0.25776661  0.49014184  0.39945915  1
  O  O290  1  0.25668561  0.50136374  0.74918548  1
  O  O291  1  0.25737454  0.97996994  0.07471273  1
  O  O292  1  0.25375033  0.97940958  0.41632538  1
  O  O293  1  0.26569104  0.98495121  0.73747755  1
  O  O294  1  0.58525744  0.47532762  0.07522629  1
  O  O295  1  0.58543800  0.49346553  0.41300023  1
  O  O296  1  0.57921786  0.48302717  0.75562569  1
  O  O297  1  0.58967901  0.97571528  0.07819113  1
  O  O298  1  0.58734768  0.97572415  0.41267149  1
  O  O299  1  0.58548456  0.97425882  0.74367890  1
  O  O300  1  0.93133804  0.48454810  0.07429100  1
  O  O301  1  0.92239378  0.49133267  0.41120427  1
  O  O302  1  0.91651040  0.50384367  0.74535945  1
  O  O303  1  0.92252639  0.96938479  0.08014043  1
  O  O304  1  0.92070772  0.97981624  0.40708303  1
  O  O305  1  0.92074945  0.99798977  0.74648550  1
  O  O306  1  0.09034926  0.27215796  0.09081673  1
  O  O307  1  0.08639972  0.26225388  0.41830458  1
  O  O308  1  0.08661328  0.24721921  0.75428853  1
  O  O309  1  0.09017916  0.77026058  0.09857867  1
  O  O310  1  0.08679167  0.77421368  0.42150007  1
  O  O311  1  0.08630381  0.75134624  0.75087254  1
  O  O312  1  0.42284084  0.27644753  0.09222292  1
  O  O313  1  0.42341322  0.26894627  0.42602841  1
  O  O314  1  0.42413550  0.26508754  0.76184165  1
  O  O315  1  0.42493407  0.76998732  0.09173594  1
  O  O316  1  0.42173964  0.77143961  0.42742709  1
  O  O317  1  0.42565775  0.77045530  0.76150766  1
  O  O318  1  0.75024975  0.25432453  0.08125700  1
  O  O319  1  0.75841762  0.26326478  0.41812777  1
  O  O320  1  0.74781163  0.25474219  0.75124165  1
  O  O321  1  0.75190551  0.76249460  0.08619187  1
  O  O322  1  0.75251239  0.77937970  0.41457872  1
  O  O323  1  0.74301901  0.76078130  0.73822837  1
  O  O324  1  0.24485653  0.00715197  0.24906055  1
  O  O325  1  0.24598352  0.02488772  0.57444948  1
  O  O326  1  0.24528941  0.01950977  0.90578160  1
  O  O327  1  0.24145402  0.52772299  0.23849711  1
  O  O328  1  0.25132360  0.51701653  0.57990834  1
  O  O329  1  0.24925576  0.52124547  0.91800015  1
  O  O330  1  0.57995516  0.00008956  0.24536775  1
  O  O331  1  0.57004619  0.01061911  0.57666531  1
  O  O332  1  0.57574946  0.00574934  0.91282149  1
  O  O333  1  0.57382927  0.51578786  0.24132316  1
  O  O334  1  0.58963373  0.51654897  0.58442487  1
  O  O335  1  0.57896172  0.52499611  0.91668004  1
  O  O336  1  0.90766087  0.01637291  0.23852197  1
  O  O337  1  0.91940564  0.01065077  0.57992706  1
  O  O338  1  0.91780652  0.00726831  0.92262136  1
  O  O339  1  0.91149937  0.52665222  0.24291619  1
  O  O340  1  0.91653423  0.52557203  0.57951750  1
  O  O341  1  0.91165372  0.52097055  0.91195172  1
  O  O342  1  0.07027963  0.23502738  0.25988879  1
  O  O343  1  0.08360598  0.22436121  0.58658474  1
  O  O344  1  0.07791155  0.23603637  0.92531528  1
  O  O345  1  0.07307529  0.72732603  0.25828635  1
  O  O346  1  0.08029077  0.73510676  0.58441209  1
  O  O347  1  0.07581248  0.73474994  0.92966037  1
  O  O348  1  0.40454169  0.23596840  0.26299144  1
  O  O349  1  0.41238086  0.22586051  0.58873769  1
  O  O350  1  0.40489778  0.23591933  0.93179197  1
  O  O351  1  0.40696425  0.72864602  0.25546086  1
  O  O352  1  0.40994116  0.73482887  0.59949222  1
  O  O353  1  0.41405764  0.72488382  0.92870366  1
  O  O354  1  0.75078800  0.23687970  0.24579614  1
  O  O355  1  0.74946951  0.24784787  0.57963091  1
  O  O356  1  0.73879355  0.23764256  0.92395441  1
  O  O357  1  0.74194759  0.72312752  0.24871605  1
  O  O358  1  0.75474213  0.73179169  0.57475612  1
  O  O359  1  0.74566601  0.72276910  0.91245883  1
