# generated using pymatgen
data_Ba17Sr5La8Pr42Mn72O216
_symmetry_space_group_name_H-M   'P 1'
_cell_length_a   16.67418480
_cell_length_b   15.70874457
_cell_length_c   16.81882984
_cell_angle_alpha   89.99958325
_cell_angle_beta   89.99769222
_cell_angle_gamma   90.01427153
_symmetry_Int_Tables_number   1
_chemical_formula_structural   Ba17Sr5La8Pr42Mn72O216
_chemical_formula_sum   'Ba17 Sr5 La8 Pr42 Mn72 O216'
_cell_volume   4405.36453744
_cell_formula_units_Z   1
loop_
 _symmetry_equiv_pos_site_id
 _symmetry_equiv_pos_as_xyz
  1  'x, y, z'
loop_
 _atom_site_type_symbol
 _atom_site_label
 _atom_site_symmetry_multiplicity
 _atom_site_fract_x
 _atom_site_fract_y
 _atom_site_fract_z
 _atom_site_occupancy
  Ba  Ba0  1  0.33581910  0.37512275  0.33335520  1
  Ba  Ba1  1  0.16724109  0.37651573  0.16750830  1
  Ba  Ba2  1  0.66841158  0.37497802  -0.00095914  1
  Ba  Ba3  1  0.33595955  0.87390546  0.66923858  1
  Ba  Ba4  1  0.16496156  0.12683294  0.50321569  1
  Ba  Ba5  1  0.66584325  0.12627249  0.66293579  1
  Ba  Ba6  1  0.16470127  0.12485237  0.83406916  1
  Ba  Ba7  1  0.33073272  0.12484541  0.66626589  1
  Ba  Ba8  1  0.83575612  0.37748692  0.83327665  1
  Ba  Ba9  1  0.83276892  0.37532180  0.16238974  1
  Ba  Ba10  1  0.66433935  0.62725246  0.32965017  1
  Ba  Ba11  1  0.33803178  0.87450613  0.00244114  1
  Ba  Ba12  1  -0.00103511  0.37690803  0.33243476  1
  Ba  Ba13  1  -0.00110513  0.12350347  0.99877163  1
  Ba  Ba14  1  0.83051442  0.12326221  0.49698230  1
  Ba  Ba15  1  0.16268077  0.62420262  0.50175926  1
  Ba  Ba16  1  0.83612259  0.87552388  0.49692798  1
  Sr  Sr17  1  0.00046699  0.37291312  0.00595599  1
  Sr  Sr18  1  0.49517266  0.62480378  0.83575052  1
  Sr  Sr19  1  0.49835004  0.12696294  0.50451774  1
  Sr  Sr20  1  0.66427535  0.12203409  0.33405597  1
  Sr  Sr21  1  -0.00328743  0.62698306  0.33013117  1
  La  La22  1  0.49650890  0.12470131  0.83458143  1
  La  La23  1  0.67158588  0.87309398  -0.00358158  1
  La  La24  1  0.50138408  0.37669860  0.83275915  1
  La  La25  1  0.32754455  0.62560459  0.66714180  1
  La  La26  1  0.16176309  0.62544246  0.17251220  1
  La  La27  1  0.67284254  0.87617326  0.33527933  1
  La  La28  1  0.32845813  0.12679565  0.99750727  1
  La  La29  1  0.66466064  0.62190863  0.99772216  1
  Pr  Pr30  1  0.17380422  0.87938712  0.83272863  1
  Pr  Pr31  1  0.50328198  0.37089905  0.49843989  1
  Pr  Pr32  1  0.49502186  0.62689040  0.17036113  1
  Pr  Pr33  1  0.50631285  0.87967045  0.50205564  1
  Pr  Pr34  1  0.17405699  0.87406626  0.16812071  1
  Pr  Pr35  1  0.82821886  0.61976641  0.16665755  1
  Pr  Pr36  1  0.00704537  0.87538362  0.66461926  1
  Pr  Pr37  1  -0.01044991  0.62661943  0.66312926  1
  Pr  Pr38  1  0.50284628  0.37619687  0.16416679  1
  Pr  Pr39  1  0.84163958  0.87427330  0.82424645  1
  Pr  Pr40  1  0.49650271  0.12311320  0.16984486  1
  Pr  Pr41  1  0.17510431  0.37465925  0.49449013  1
  Pr  Pr42  1  -0.00420872  0.12575254  0.66487346  1
  Pr  Pr43  1  0.66409106  0.62085702  0.65929787  1
  Pr  Pr44  1  0.32884899  0.62378066  1.00001485  1
  Pr  Pr45  1  0.83208745  0.62485514  0.49574195  1
  Pr  Pr46  1  0.33144088  0.12701682  0.33659001  1
  Pr  Pr47  1  0.33500457  0.37438359  0.00854624  1
  Pr  Pr48  1  0.67244044  0.87765850  0.66641984  1
  Pr  Pr49  1  0.17557113  0.87558252  0.50093269  1
  Pr  Pr50  1  0.50633750  0.87243494  0.82736092  1
  Pr  Pr51  1  -0.00482425  0.12151585  0.32730952  1
  Pr  Pr52  1  0.49603939  0.62378166  0.50304773  1
  Pr  Pr53  1  0.83819753  0.86989335  0.16332338  1
  Pr  Pr54  1  0.00935528  0.87437903  0.00022723  1
  Pr  Pr55  1  0.66973540  0.36978548  0.66791306  1
  Pr  Pr56  1  0.51078946  0.87519156  0.16546367  1
  Pr  Pr57  1  0.32785767  0.62250010  0.33351505  1
  Pr  Pr58  1  0.16499126  0.62989973  0.83660342  1
  Pr  Pr59  1  0.83175080  0.37289117  0.49461902  1
  Pr  Pr60  1  0.33297059  0.37421550  0.66625371  1
  Pr  Pr61  1  0.16587173  0.37309553  0.83770882  1
  Pr  Pr62  1  0.66689081  0.12739606  0.99574546  1
  Pr  Pr63  1  -0.00268885  0.62137400  1.00043801  1
  Pr  Pr64  1  0.66857641  0.37345447  0.33274609  1
  Pr  Pr65  1  0.82771719  0.62449123  0.83331008  1
  Pr  Pr66  1  0.33886686  0.87404584  0.34163373  1
  Pr  Pr67  1  0.00382268  0.37625832  0.66832842  1
  Pr  Pr68  1  0.16206451  0.12609346  0.16970172  1
  Pr  Pr69  1  0.82601271  0.13031068  0.16710998  1
  Pr  Pr70  1  0.01224161  0.87393962  0.33755109  1
  Pr  Pr71  1  0.83043808  0.12560437  0.83428117  1
  Mn  Mn72  1  -0.00091932  -0.00390914  0.16634687  1
  Mn  Mn73  1  0.00228270  -0.00070065  0.49864131  1
  Mn  Mn74  1  -0.00094176  -0.00231763  0.83284841  1
  Mn  Mn75  1  -0.00005045  0.50212371  0.16513515  1
  Mn  Mn76  1  -0.00344694  0.50105353  0.50232827  1
  Mn  Mn77  1  0.00190815  0.50185057  0.83271532  1
  Mn  Mn78  1  0.33450907  0.00050265  0.17055366  1
  Mn  Mn79  1  0.33592494  -0.00078481  0.50136615  1
  Mn  Mn80  1  0.33619446  0.00051575  0.83651715  1
  Mn  Mn81  1  0.33500943  0.50195956  0.16654394  1
  Mn  Mn82  1  0.33499583  0.50215466  0.50218596  1
  Mn  Mn83  1  0.33161601  0.49951620  0.83544046  1
  Mn  Mn84  1  0.66773751  -0.00165524  0.16415152  1
  Mn  Mn85  1  0.66569165  -0.00013764  0.49895301  1
  Mn  Mn86  1  0.66738198  -0.00065467  0.83348789  1
  Mn  Mn87  1  0.66361816  0.50089232  0.16508261  1
  Mn  Mn88  1  0.66505555  0.50039210  0.49742565  1
  Mn  Mn89  1  0.66477707  0.50078027  0.82869669  1
  Mn  Mn90  1  -0.00000198  0.24819866  0.16534770  1
  Mn  Mn91  1  -0.00209806  0.25141828  0.50155124  1
  Mn  Mn92  1  -0.00028256  0.25299519  0.83351413  1
  Mn  Mn93  1  -0.00000999  0.75241747  0.16609579  1
  Mn  Mn94  1  0.00018000  0.74930606  0.49879498  1
  Mn  Mn95  1  0.00081778  0.74838766  0.83313301  1
  Mn  Mn96  1  0.33414511  0.24731781  0.16689956  1
  Mn  Mn97  1  0.33536471  0.25038176  0.50124500  1
  Mn  Mn98  1  0.33367411  0.25366197  0.83632972  1
  Mn  Mn99  1  0.33576803  0.75096726  0.17088643  1
  Mn  Mn100  1  0.33553620  0.74915779  0.50193469  1
  Mn  Mn101  1  0.33491847  0.74825187  0.83570691  1
  Mn  Mn102  1  0.66352243  0.24665539  0.16655607  1
  Mn  Mn103  1  0.66547775  0.25120440  0.49901458  1
  Mn  Mn104  1  0.66631695  0.25013761  0.83171503  1
  Mn  Mn105  1  0.66712565  0.75170664  0.16379355  1
  Mn  Mn106  1  0.66499127  0.74886014  0.49801190  1
  Mn  Mn107  1  0.66654969  0.74714230  0.83098708  1
  Mn  Mn108  1  0.16637903  0.25094946  0.00152158  1
  Mn  Mn109  1  0.16454663  0.24930205  0.33564264  1
  Mn  Mn110  1  0.16411789  0.25420329  0.66699314  1
  Mn  Mn111  1  0.16725432  0.74974490  0.00350466  1
  Mn  Mn112  1  0.16903554  0.74989997  0.33360020  1
  Mn  Mn113  1  0.16466283  0.74952573  0.67032411  1
  Mn  Mn114  1  0.50061000  0.24850328  0.00163764  1
  Mn  Mn115  1  0.50130721  0.24743227  0.33331167  1
  Mn  Mn116  1  0.49807231  0.25321591  0.66657153  1
  Mn  Mn117  1  0.50114057  0.74988482  -0.00035692  1
  Mn  Mn118  1  0.49852740  0.75177313  0.33457908  1
  Mn  Mn119  1  0.50250356  0.74643427  0.66797857  1
  Mn  Mn120  1  0.83372362  0.24751036  -0.00063283  1
  Mn  Mn121  1  0.83190739  0.24926705  0.33178669  1
  Mn  Mn122  1  0.83529901  0.25129674  0.66450232  1
  Mn  Mn123  1  0.83462585  0.75049508  -0.00415660  1
  Mn  Mn124  1  0.83573213  0.74998616  0.32896033  1
  Mn  Mn125  1  0.83141368  0.74911361  0.66498656  1
  Mn  Mn126  1  0.16860867  -0.00282353  0.00306735  1
  Mn  Mn127  1  0.16860343  0.00099073  0.33438974  1
  Mn  Mn128  1  0.16515402  -0.00011645  0.66721802  1
  Mn  Mn129  1  0.16637672  0.50327072  0.00058103  1
  Mn  Mn130  1  0.16468526  0.50046498  0.33562457  1
  Mn  Mn131  1  0.16450221  0.49929155  0.66979714  1
  Mn  Mn132  1  0.50284427  -0.00094309  0.00096513  1
  Mn  Mn133  1  0.49928691  0.00036618  0.33349753  1
  Mn  Mn134  1  0.50209756  -0.00098481  0.66677171  1
  Mn  Mn135  1  0.49884386  0.50236777  0.00024198  1
  Mn  Mn136  1  0.50026262  0.50003398  0.33438772  1
  Mn  Mn137  1  0.49856197  0.50083963  0.66740768  1
  Mn  Mn138  1  0.83279668  -0.00496602  -0.00229902  1
  Mn  Mn139  1  0.83372677  0.00018260  0.32693650  1
  Mn  Mn140  1  0.83547209  -0.00154557  0.66601326  1
  Mn  Mn141  1  0.83420094  0.50351598  -0.00133174  1
  Mn  Mn142  1  0.83224280  0.50074726  0.33210136  1
  Mn  Mn143  1  0.83226160  0.50133573  0.66289684  1
  O  O144  1  0.17190356  0.11967631  0.02213754  1
  O  O145  1  0.15525913  0.12309121  0.34634342  1
  O  O146  1  0.15835507  0.12749052  0.67803581  1
  O  O147  1  0.16703499  0.62908965  0.02666874  1
  O  O148  1  0.16731560  0.62562785  0.34342023  1
  O  O149  1  0.16993085  0.62279317  0.69321292  1
  O  O150  1  0.50958624  0.12079105  0.02609671  1
  O  O151  1  0.49634296  0.12281142  0.35565854  1
  O  O152  1  0.49956561  0.12970811  0.68792167  1
  O  O153  1  0.50159998  0.62551679  0.02665803  1
  O  O154  1  0.49635858  0.62955632  0.35941864  1
  O  O155  1  0.51067346  0.62249540  0.68807655  1
  O  O156  1  0.82570936  0.11321113  0.02181528  1
  O  O157  1  0.83796343  0.12282213  0.34076997  1
  O  O158  1  0.84078706  0.12058282  0.69048477  1
  O  O159  1  0.83344290  0.63143341  0.02182678  1
  O  O160  1  0.83427306  0.62603355  0.35160930  1
  O  O161  1  0.83050087  0.62628393  0.69049943  1
  O  O162  1  0.16921439  0.37670596  0.32751129  1
  O  O163  1  0.15720907  0.37956645  0.64005252  1
  O  O164  1  0.17408247  0.38193228  0.98253521  1
  O  O165  1  0.17647809  0.87605605  0.31150232  1
  O  O166  1  0.15949689  0.87245868  0.64492086  1
  O  O167  1  0.16477637  0.87037612  0.97785463  1
  O  O168  1  0.50517949  0.37044338  0.30694848  1
  O  O169  1  0.49050988  0.38059025  0.64296432  1
  O  O170  1  0.49171452  0.37757734  0.97784714  1
  O  O171  1  0.48972633  0.87552971  0.30625520  1
  O  O172  1  0.50614742  0.86838427  0.64769400  1
  O  O173  1  0.50539641  0.87551043  0.97156720  1
  O  O174  1  0.82648030  0.37518203  0.32050636  1
  O  O175  1  0.83626995  0.38168928  0.64042442  1
  O  O176  1  0.83972891  0.38153665  0.99147207  1
  O  O177  1  0.82900466  0.87586690  0.30737238  1
  O  O178  1  0.83185763  0.87124073  0.65493857  1
  O  O179  1  0.82999673  0.87101837  0.96651895  1
  O  O180  1  -0.00260052  0.37547122  0.17067440  1
  O  O181  1  -0.01595807  0.37861942  0.52568657  1
  O  O182  1  0.00322279  0.38292056  0.85512016  1
  O  O183  1  -0.01298165  0.87377466  0.19346290  1
  O  O184  1  0.00451249  0.87255493  0.51969410  1
  O  O185  1  -0.01157273  0.86958691  0.85832087  1
  O  O186  1  0.33972531  0.37451281  0.17687100  1
  O  O187  1  0.33370378  0.38029382  0.51922129  1
  O  O188  1  0.33327129  0.37915706  0.86440968  1
  O  O189  1  0.32665842  0.87600260  0.19727404  1
  O  O190  1  0.32825702  0.87197428  0.51062583  1
  O  O191  1  0.33385392  0.87345606  0.84529873  1
  O  O192  1  0.65796171  0.37259564  0.18769075  1
  O  O193  1  0.66707091  0.38032789  0.52314565  1
  O  O194  1  0.66080923  0.37633010  0.84332144  1
  O  O195  1  0.66283124  0.87542753  0.19061368  1
  O  O196  1  0.66029942  0.86985387  0.52130752  1
  O  O197  1  0.66153852  0.87260735  0.85441419  1
  O  O198  1  0.01308152  0.11839083  0.15714318  1
  O  O199  1  0.00204487  0.12285742  0.47495797  1
  O  O200  1  -0.00418257  0.12177391  0.81009673  1
  O  O201  1  0.01058154  0.63283051  0.14454301  1
  O  O202  1  -0.00566899  0.62759460  0.48068618  1
  O  O203  1  0.01270975  0.62674464  0.80468674  1
  O  O204  1  0.34185878  0.12288042  0.14096790  1
  O  O205  1  0.33903115  0.12174087  0.48278901  1
  O  O206  1  0.34055581  0.12760072  0.82364857  1
  O  O207  1  0.34415247  0.62742990  0.14348111  1
  O  O208  1  0.34195505  0.62716565  0.47787306  1
  O  O209  1  0.32954125  0.62128422  0.80970832  1
  O  O210  1  0.66556931  0.11855619  0.14006961  1
  O  O211  1  0.66052720  0.12734510  0.48550292  1
  O  O212  1  0.67055823  0.12325384  0.81971346  1
  O  O213  1  0.66439527  0.63059805  0.14406241  1
  O  O214  1  0.65988071  0.62472048  0.48371708  1
  O  O215  1  0.67261374  0.62547358  0.80351488  1
  O  O216  1  0.07649165  0.00511515  0.26036868  1
  O  O217  1  0.07385599  0.01065006  0.59451185  1
  O  O218  1  0.07823792  -0.00133311  0.91851467  1
  O  O219  1  0.08205462  0.51603163  0.24812507  1
  O  O220  1  0.06963930  0.51606326  0.59802816  1
  O  O221  1  0.08209355  0.52649119  0.91836244  1
  O  O222  1  0.40877036  0.02374100  0.25911563  1
  O  O223  1  0.41759585  0.00424201  0.58349330  1
  O  O224  1  0.41691264  0.02213840  0.92774123  1
  O  O225  1  0.41317095  0.52266392  0.25528174  1
  O  O226  1  0.41339054  0.52614152  0.58999848  1
  O  O227  1  0.40890990  0.52144812  0.92483723  1
  O  O228  1  0.74660425  0.01752907  0.24583656  1
  O  O229  1  0.74721195  0.00168708  0.58994505  1
  O  O230  1  0.74079990  0.01531626  0.92402387  1
  O  O231  1  0.74912078  0.51388369  0.24475824  1
  O  O232  1  0.74844104  0.52424822  0.57709262  1
  O  O233  1  0.75072429  0.52206334  0.91286696  1
  O  O234  1  0.25007214  0.22521051  0.24641606  1
  O  O235  1  0.24677489  0.25299183  0.58411200  1
  O  O236  1  0.25384599  0.24010958  0.92013972  1
  O  O237  1  0.24869937  0.72697761  0.24801613  1
  O  O238  1  0.24968892  0.73578501  0.58849352  1
  O  O239  1  0.24715508  0.72796790  0.91942036  1
  O  O240  1  0.57931329  0.22507350  0.24767087  1
  O  O241  1  0.57860898  0.25053127  0.57976580  1
  O  O242  1  0.58174326  0.23164590  0.91752413  1
  O  O243  1  0.56931377  0.73877341  0.24133645  1
  O  O244  1  0.57797990  0.72816877  0.57916483  1
  O  O245  1  0.58518982  0.72906119  0.91056821  1
  O  O246  1  0.91632795  0.22948986  0.24709684  1
  O  O247  1  0.91687752  0.23004898  0.58435027  1
  O  O248  1  0.91023958  0.23291571  0.90767709  1
  O  O249  1  0.91050350  0.72898671  0.23516679  1
  O  O250  1  0.90711451  0.72820756  0.57867084  1
  O  O251  1  0.91287122  0.72244724  0.90927780  1
  O  O252  1  0.08412675  0.49539982  0.08050273  1
  O  O253  1  0.08461807  0.48312925  0.43215314  1
  O  O254  1  0.08973489  0.47614195  0.75764685  1
  O  O255  1  0.08731715  0.97301980  0.09171366  1
  O  O256  1  0.09486109  0.97311868  0.42283970  1
  O  O257  1  0.08454693  0.97390912  0.75522583  1
  O  O258  1  0.42152455  0.48180425  0.08777247  1
  O  O259  1  0.42787985  0.48645181  0.42700766  1
  O  O260  1  0.41588461  0.47946581  0.75445000  1
  O  O261  1  0.42981361  0.98328830  0.09747729  1
  O  O262  1  0.42219097  0.97652364  0.42020653  1
  O  O263  1  0.43062119  0.98831584  0.76277492  1
  O  O264  1  0.74727121  0.50175589  0.07997765  1
  O  O265  1  0.74763540  0.48107944  0.41685283  1
  O  O266  1  0.74484747  0.48545232  0.73642766  1
  O  O267  1  0.75769170  0.96947233  0.08408857  1
  O  O268  1  0.74826568  0.98697658  0.40993378  1
  O  O269  1  0.75712432  0.98020767  0.75844098  1
  O  O270  1  0.25768636  0.25981328  0.07924020  1
  O  O271  1  0.25319381  0.25617514  0.41714756  1
  O  O272  1  0.24918380  0.27667903  0.74910043  1
  O  O273  1  0.25039157  0.76322748  0.09067495  1
  O  O274  1  0.25643160  0.76408108  0.41070159  1
  O  O275  1  0.24482935  0.76091388  0.75669156  1
  O  O276  1  0.57699116  0.26492183  0.08860319  1
  O  O277  1  0.58661787  0.27373123  0.41312209  1
  O  O278  1  0.58041087  0.27138718  0.74743606  1
  O  O279  1  0.58977145  0.77218710  0.07576627  1
  O  O280  1  0.58485703  0.77584173  0.41025733  1
  O  O281  1  0.59119111  0.77024478  0.74395384  1
  O  O282  1  0.91497625  0.24719132  0.08349238  1
  O  O283  1  0.91287900  0.26351641  0.42009965  1
  O  O284  1  0.92523652  0.26603598  0.74160821  1
  O  O285  1  0.92274574  0.77138616  0.07253132  1
  O  O286  1  0.92525868  0.76657260  0.40150089  1
  O  O287  1  0.92242641  0.76370904  0.74313281  1
  O  O288  1  0.26095191  0.49338101  0.07387429  1
  O  O289  1  0.25255052  0.49286953  0.42068592  1
  O  O290  1  0.25161797  0.47338187  0.75114292  1
  O  O291  1  0.25005328  0.98419755  0.09275365  1
  O  O292  1  0.25926608  0.98670763  0.40938760  1
  O  O293  1  0.24618715  0.98774080  0.75221217  1
  O  O294  1  0.57968429  0.48583982  0.08425456  1
  O  O295  1  0.58668202  0.47455671  0.41302518  1
  O  O296  1  0.58146252  0.47715839  0.74356139  1
  O  O297  1  0.59213057  0.97451971  0.07503371  1
  O  O298  1  0.58471642  0.97542777  0.40860484  1
  O  O299  1  0.59146803  0.97746184  0.74606012  1
  O  O300  1  0.92018139  0.50552860  0.07934228  1
  O  O301  1  0.90904408  0.48962820  0.42322857  1
  O  O302  1  0.92467118  0.49209063  0.74162895  1
  O  O303  1  0.92142664  0.97272814  0.07210827  1
  O  O304  1  0.93009188  0.98632399  0.39952666  1
  O  O305  1  0.92379821  0.97625569  0.74407979  1
  O  O306  1  0.08693025  0.25558260  0.08654857  1
  O  O307  1  0.08668769  0.27151006  0.43113063  1
  O  O308  1  0.08670132  0.27500897  0.75430480  1
  O  O309  1  0.08671271  0.77711280  0.08949384  1
  O  O310  1  0.09328653  0.77258099  0.41962336  1
  O  O311  1  0.08695903  0.77720938  0.75951381  1
  O  O312  1  0.41903733  0.26689859  0.08464426  1
  O  O313  1  0.42500726  0.26476263  0.42249448  1
  O  O314  1  0.41678409  0.27572896  0.75506672  1
  O  O315  1  0.42684680  0.76828169  0.10143721  1
  O  O316  1  0.42530546  0.77308219  0.42349726  1
  O  O317  1  0.42811457  0.75955995  0.75809747  1
  O  O318  1  0.74632622  0.24975930  0.08162411  1
  O  O319  1  0.74690488  0.26946655  0.41523074  1
  O  O320  1  0.75012500  0.26435008  0.74402809  1
  O  O321  1  0.75640598  0.77183724  0.07945132  1
  O  O322  1  0.74965805  0.76219553  0.41360024  1
  O  O323  1  0.75394759  0.77059023  0.75420027  1
  O  O324  1  0.24585197  0.02801082  0.24929715  1
  O  O325  1  0.24401654  0.00155932  0.57846856  1
  O  O326  1  0.25294843  0.00980927  0.92112999  1
  O  O327  1  0.25152561  0.52185007  0.24360173  1
  O  O328  1  0.25185696  0.51197089  0.59081981  1
  O  O329  1  0.24406141  0.52673597  0.91311845  1
  O  O330  1  0.57282015  0.01371783  0.24151842  1
  O  O331  1  0.57785710  0.00538788  0.57827801  1
  O  O332  1  0.57876430  0.01981995  0.90979830  1
  O  O333  1  0.57337178  0.51534972  0.24262999  1
  O  O334  1  0.57917329  0.51681566  0.57836865  1
  O  O335  1  0.58037898  0.51868811  0.91752359  1
  O  O336  1  0.90884684  0.02039243  0.23613906  1
  O  O337  1  0.91809862  0.01213948  0.58425371  1
  O  O338  1  0.90281555  0.01372497  0.90254206  1
  O  O339  1  0.91395657  0.52009709  0.24434871  1
  O  O340  1  0.90990696  0.52918556  0.58034215  1
  O  O341  1  0.91593149  0.52903917  0.91028940  1
  O  O342  1  0.08026801  0.23437469  0.25321698  1
  O  O343  1  0.07105095  0.24138563  0.59519530  1
  O  O344  1  0.08418452  0.24818303  0.91780855  1
  O  O345  1  0.08314349  0.74570905  0.25280155  1
  O  O346  1  0.07334376  0.73493418  0.59835492  1
  O  O347  1  0.07833861  0.73040653  0.92354895  1
  O  O348  1  0.41425296  0.22597425  0.25236865  1
  O  O349  1  0.41449598  0.24520093  0.58695551  1
  O  O350  1  0.41987505  0.22979297  0.92200591  1
  O  O351  1  0.40778445  0.72830934  0.26267745  1
  O  O352  1  0.41658332  0.72580870  0.59072151  1
  O  O353  1  0.41223404  0.72945717  0.92683242  1
  O  O354  1  0.74630567  0.23243045  0.24725150  1
  O  O355  1  0.74981664  0.24950888  0.58099343  1
  O  O356  1  0.75025908  0.23017308  0.91669246  1
  O  O357  1  0.75290164  0.73874637  0.24190362  1
  O  O358  1  0.74368178  0.72895968  0.58629289  1
  O  O359  1  0.74664134  0.72591952  0.91621218  1
