# generated using pymatgen
data_Ba17Sr5La8Pr42Mn72O216
_symmetry_space_group_name_H-M   'P 1'
_cell_length_a   16.67430156
_cell_length_b   15.70956929
_cell_length_c   16.82126454
_cell_angle_alpha   89.99996721
_cell_angle_beta   89.99071717
_cell_angle_gamma   89.98665616
_symmetry_Int_Tables_number   1
_chemical_formula_structural   Ba17Sr5La8Pr42Mn72O216
_chemical_formula_sum   'Ba17 Sr5 La8 Pr42 Mn72 O216'
_cell_volume   4406.26439541
_cell_formula_units_Z   1
loop_
 _symmetry_equiv_pos_site_id
 _symmetry_equiv_pos_as_xyz
  1  'x, y, z'
loop_
 _atom_site_type_symbol
 _atom_site_label
 _atom_site_symmetry_multiplicity
 _atom_site_fract_x
 _atom_site_fract_y
 _atom_site_fract_z
 _atom_site_occupancy
  Ba  Ba0  1  0.16704497  0.62402985  0.49982292  1
  Ba  Ba1  1  0.83500523  0.87504527  0.49915208  1
  Ba  Ba2  1  0.50078325  0.12715003  0.83482284  1
  Ba  Ba3  1  0.50114460  0.12279676  0.50088584  1
  Ba  Ba4  1  0.66471741  0.37414254  0.66471626  1
  Ba  Ba5  1  0.00251523  0.87611068  0.00224668  1
  Ba  Ba6  1  0.66698272  0.87524374  -0.00156228  1
  Ba  Ba7  1  0.00089903  0.87676383  0.66987930  1
  Ba  Ba8  1  0.83409648  0.87467790  0.83206942  1
  Ba  Ba9  1  0.49884864  0.62289234  0.83400960  1
  Ba  Ba10  1  0.66838568  0.62436123  0.99816172  1
  Ba  Ba11  1  0.83570999  0.62278770  0.83378095  1
  Ba  Ba12  1  0.00152155  0.87671846  0.33497342  1
  Ba  Ba13  1  0.32912482  0.37353578  0.66580007  1
  Ba  Ba14  1  0.33355259  0.62456587  0.66431525  1
  Ba  Ba15  1  0.49881017  0.87754596  0.50184371  1
  Ba  Ba16  1  0.33266370  0.62587387  0.99828871  1
  Sr  Sr17  1  0.33677390  0.62568111  0.32943390  1
  Sr  Sr18  1  0.16637775  0.37483351  0.83348182  1
  Sr  Sr19  1  0.33489034  0.87520559  0.66635955  1
  Sr  Sr20  1  0.16375083  0.37606874  0.16393944  1
  Sr  Sr21  1  0.33699049  0.87592864  -0.00361112  1
  La  La22  1  0.33945074  0.12421121  0.32959183  1
  La  La23  1  0.33339058  0.12346442  0.66455370  1
  La  La24  1  0.16762989  0.12412301  0.17014198  1
  La  La25  1  0.83875986  0.62550148  0.50174896  1
  La  La26  1  0.00263294  0.62813863  0.66870908  1
  La  La27  1  0.33304775  0.12639281  0.99687377  1
  La  La28  1  0.49753947  0.87363041  0.16369983  1
  La  La29  1  0.16845946  0.62366324  0.83241872  1
  Pr  Pr30  1  0.66561443  0.87525887  0.33550585  1
  Pr  Pr31  1  0.00047914  0.12281100  0.33376401  1
  Pr  Pr32  1  0.33329634  0.87472683  0.33621237  1
  Pr  Pr33  1  -0.00060048  0.37764681  0.67172781  1
  Pr  Pr34  1  0.16398417  0.37958570  0.49917181  1
  Pr  Pr35  1  0.48916215  0.37748050  0.16660732  1
  Pr  Pr36  1  0.16778519  0.62715399  0.17180504  1
  Pr  Pr37  1  0.32893608  0.37713950  -0.00285623  1
  Pr  Pr38  1  0.32177434  0.37395108  0.33661761  1
  Pr  Pr39  1  0.84004837  0.12231808  0.16661215  1
  Pr  Pr40  1  0.66977171  0.62892373  0.66693094  1
  Pr  Pr41  1  0.48523423  0.37196671  0.49730686  1
  Pr  Pr42  1  0.67255895  0.12337008  0.33307263  1
  Pr  Pr43  1  0.67365822  0.12626716  0.99621142  1
  Pr  Pr44  1  0.00329240  0.12742926  1.00042105  1
  Pr  Pr45  1  0.17696882  0.87418112  0.16225525  1
  Pr  Pr46  1  0.49171354  0.37778472  0.83148952  1
  Pr  Pr47  1  0.00284276  0.62831317  0.33323994  1
  Pr  Pr48  1  0.83728420  0.12484118  0.50112598  1
  Pr  Pr49  1  0.17232338  0.87430711  0.83081323  1
  Pr  Pr50  1  0.00004348  0.12508770  0.66804174  1
  Pr  Pr51  1  0.67318543  0.12367645  0.66360931  1
  Pr  Pr52  1  0.16300156  0.12497350  0.50298063  1
  Pr  Pr53  1  0.50834736  0.12342048  0.16917920  1
  Pr  Pr54  1  -0.00419901  0.37459443  0.00482579  1
  Pr  Pr55  1  0.17031587  0.87208114  0.49972011  1
  Pr  Pr56  1  0.66365618  0.87738384  0.67198506  1
  Pr  Pr57  1  0.50137891  0.86847025  0.83005018  1
  Pr  Pr58  1  0.50362244  0.62443426  0.50602660  1
  Pr  Pr59  1  0.65604093  0.37688936  -0.00043635  1
  Pr  Pr60  1  0.65223552  0.37414729  0.33904704  1
  Pr  Pr61  1  0.83415145  0.87520498  0.15807961  1
  Pr  Pr62  1  0.82952201  0.37636774  0.83122749  1
  Pr  Pr63  1  0.84092507  0.62726560  0.16506642  1
  Pr  Pr64  1  -0.00588359  0.37455190  0.33904412  1
  Pr  Pr65  1  0.16678189  0.12614381  0.83443941  1
  Pr  Pr66  1  0.82516443  0.37303591  0.16357217  1
  Pr  Pr67  1  0.67227412  0.62525502  0.32949855  1
  Pr  Pr68  1  0.82371518  0.37469971  0.49594311  1
  Pr  Pr69  1  0.50562613  0.62857703  0.16641887  1
  Pr  Pr70  1  0.83678982  0.12587610  0.83307451  1
  Pr  Pr71  1  0.00370966  0.62287273  0.99920538  1
  Mn  Mn72  1  0.00221118  0.00086288  0.16838483  1
  Mn  Mn73  1  0.00194815  0.00214019  0.50093587  1
  Mn  Mn74  1  0.00261345  0.00275589  0.83538505  1
  Mn  Mn75  1  -0.00103041  0.49775729  0.16890587  1
  Mn  Mn76  1  -0.00303053  0.49745148  0.50218592  1
  Mn  Mn77  1  0.00223692  0.49680840  0.83643182  1
  Mn  Mn78  1  0.33605885  0.00192918  0.16421863  1
  Mn  Mn79  1  0.33068634  0.00027987  0.49880024  1
  Mn  Mn80  1  0.33357416  0.00055982  0.83268094  1
  Mn  Mn81  1  0.33195319  0.49977411  0.16708319  1
  Mn  Mn82  1  0.33289111  0.50044947  0.49589745  1
  Mn  Mn83  1  0.33011124  0.49902211  0.83304375  1
  Mn  Mn84  1  0.66831774  0.00183852  0.16682435  1
  Mn  Mn85  1  0.66898464  -0.00013434  0.49956209  1
  Mn  Mn86  1  0.66644027  0.00295583  0.83261775  1
  Mn  Mn87  1  0.66680561  0.49767182  0.16909414  1
  Mn  Mn88  1  0.66463370  0.49973330  0.49683508  1
  Mn  Mn89  1  0.66658124  0.49660996  0.83319104  1
  Mn  Mn90  1  -0.00038639  0.25078339  0.16985619  1
  Mn  Mn91  1  -0.00233882  0.25168188  0.50240001  1
  Mn  Mn92  1  0.00096517  0.25096030  0.83528046  1
  Mn  Mn93  1  0.00135573  0.75026765  0.16761853  1
  Mn  Mn94  1  0.00167422  0.75024200  0.50045584  1
  Mn  Mn95  1  0.00295033  0.74891981  0.83572155  1
  Mn  Mn96  1  0.33326047  0.25097519  0.16504856  1
  Mn  Mn97  1  0.32847670  0.24762925  0.49816622  1
  Mn  Mn98  1  0.33109507  0.24876853  0.83265837  1
  Mn  Mn99  1  0.33503789  0.74896686  0.16590997  1
  Mn  Mn100  1  0.33448864  0.75056543  0.49748869  1
  Mn  Mn101  1  0.33229256  0.75183823  0.83232882  1
  Mn  Mn102  1  0.66630636  0.25194918  0.16647194  1
  Mn  Mn103  1  0.66556192  0.24980815  0.49872861  1
  Mn  Mn104  1  0.66744000  0.25037137  0.83368825  1
  Mn  Mn105  1  0.66863779  0.74853809  0.16861279  1
  Mn  Mn106  1  0.66732353  0.74979728  0.49742302  1
  Mn  Mn107  1  0.66709324  0.74939511  0.83256978  1
  Mn  Mn108  1  0.16563906  0.25106574  0.00185729  1
  Mn  Mn109  1  0.16452666  0.24994018  0.33431958  1
  Mn  Mn110  1  0.16349818  0.24905654  0.66787392  1
  Mn  Mn111  1  0.16795139  0.75054114  0.00097572  1
  Mn  Mn112  1  0.16788691  0.75055966  0.33231435  1
  Mn  Mn113  1  0.16787707  0.75177354  0.66678517  1
  Mn  Mn114  1  0.49868575  0.25058923  0.00335878  1
  Mn  Mn115  1  0.49896336  0.24919637  0.33074459  1
  Mn  Mn116  1  0.50006397  0.24951398  0.66692695  1
  Mn  Mn117  1  0.49952361  0.75246139  -0.00079443  1
  Mn  Mn118  1  0.50089276  0.74884635  0.33391006  1
  Mn  Mn119  1  0.50081316  0.74928945  0.66551756  1
  Mn  Mn120  1  0.83266901  0.25061999  -0.00017439  1
  Mn  Mn121  1  0.83209320  0.25047981  0.33101947  1
  Mn  Mn122  1  0.83488887  0.25203044  0.66601947  1
  Mn  Mn123  1  0.83553326  0.74902563  0.00013018  1
  Mn  Mn124  1  0.83376353  0.74850936  0.33150560  1
  Mn  Mn125  1  0.83338527  0.74844115  0.66520431  1
  Mn  Mn126  1  0.16863085  0.00142616  0.00118217  1
  Mn  Mn127  1  0.16875280  0.00210090  0.33453062  1
  Mn  Mn128  1  0.16686480  0.00216602  0.66779055  1
  Mn  Mn129  1  0.16517614  0.49750080  0.00169800  1
  Mn  Mn130  1  0.16446389  0.49882105  0.33071268  1
  Mn  Mn131  1  0.16467134  0.49796982  0.66730626  1
  Mn  Mn132  1  0.49973949  0.00143003  0.00153486  1
  Mn  Mn133  1  0.50175712  0.00086408  0.33088298  1
  Mn  Mn134  1  0.49962438  0.00090354  0.66977782  1
  Mn  Mn135  1  0.49808413  0.49748210  0.00117669  1
  Mn  Mn136  1  0.49848918  0.50127659  0.33398504  1
  Mn  Mn137  1  0.50168979  0.49833482  0.66518757  1
  Mn  Mn138  1  0.83512162  0.00285163  0.00054535  1
  Mn  Mn139  1  0.83318934  0.00118682  0.33150235  1
  Mn  Mn140  1  0.83350493  0.00223493  0.66631241  1
  Mn  Mn141  1  0.83356787  0.49601819  0.00064702  1
  Mn  Mn142  1  0.83233138  0.49865359  0.33087264  1
  Mn  Mn143  1  0.83345761  0.49906057  0.66459667  1
  O  O144  1  0.16823695  0.12710633  0.02776785  1
  O  O145  1  0.16701390  0.12676698  0.35882185  1
  O  O146  1  0.15937563  0.12664521  0.69091853  1
  O  O147  1  0.16101344  0.61998401  0.02813714  1
  O  O148  1  0.15998088  0.62207662  0.34330670  1
  O  O149  1  0.15874326  0.62281103  0.68522548  1
  O  O150  1  0.49409526  0.12825631  0.02749100  1
  O  O151  1  0.49776445  0.12628706  0.34372648  1
  O  O152  1  0.49321858  0.12496676  0.67755853  1
  O  O153  1  0.49916156  0.61987600  0.02185855  1
  O  O154  1  0.50267897  0.62101092  0.36054058  1
  O  O155  1  0.50471607  0.62325253  0.67436405  1
  O  O156  1  0.82661421  0.12946052  0.02443844  1
  O  O157  1  0.82749839  0.12876231  0.35736541  1
  O  O158  1  0.82812514  0.13011437  0.68810616  1
  O  O159  1  0.83966613  0.61763846  0.02165033  1
  O  O160  1  0.82716275  0.61812468  0.35768489  1
  O  O161  1  0.82638308  0.62174045  0.67531285  1
  O  O162  1  0.16469597  0.37368847  0.31248468  1
  O  O163  1  0.15745915  0.37010772  0.64275165  1
  O  O164  1  0.16067981  0.37222628  0.98195467  1
  O  O165  1  0.17269023  0.87974291  0.30611900  1
  O  O166  1  0.16660155  0.88162765  0.64462701  1
  O  O167  1  0.16820348  0.88125353  0.97677289  1
  O  O168  1  0.50287269  0.37337557  0.30920982  1
  O  O169  1  0.50001932  0.37308461  0.64112780  1
  O  O170  1  0.50359227  0.37066510  0.97836155  1
  O  O171  1  0.50382272  0.87853613  0.30739737  1
  O  O172  1  0.50918805  0.87559606  0.65845310  1
  O  O173  1  0.49973547  0.88255665  0.97779162  1
  O  O174  1  0.84243800  0.37450712  0.30530915  1
  O  O175  1  0.84335539  0.37381630  0.63926242  1
  O  O176  1  0.84473103  0.37035289  0.97573296  1
  O  O177  1  0.82821485  0.87815682  0.30436780  1
  O  O178  1  0.82777864  0.87567287  0.65636206  1
  O  O179  1  0.83620386  0.88097369  0.99475325  1
  O  O180  1  -0.00431301  0.37300450  0.19589919  1
  O  O181  1  -0.00624905  0.37281256  0.52782859  1
  O  O182  1  -0.00100799  0.37155727  0.86204802  1
  O  O183  1  -0.00957901  0.87644129  0.17918104  1
  O  O184  1  0.00697507  0.88055498  0.51157199  1
  O  O185  1  0.00626190  0.87933640  0.84553584  1
  O  O186  1  0.33787652  0.37456737  0.19491797  1
  O  O187  1  0.33345959  0.37260598  0.50672484  1
  O  O188  1  0.33223826  0.37125710  0.85158500  1
  O  O189  1  0.33316004  0.87612746  0.19256391  1
  O  O190  1  0.32672140  0.87856411  0.51344659  1
  O  O191  1  0.32369235  0.87936982  0.84850761  1
  O  O192  1  0.67519106  0.37374715  0.19680688  1
  O  O193  1  0.67257253  0.37358755  0.50865783  1
  O  O194  1  0.67506002  0.37112664  0.85593060  1
  O  O195  1  0.67607532  0.87273727  0.19214041  1
  O  O196  1  0.66986500  0.87313005  0.52391722  1
  O  O197  1  0.66101664  0.87803445  0.83800986  1
  O  O198  1  0.00125837  0.12805318  0.14521333  1
  O  O199  1  0.00242276  0.12991753  0.47584181  1
  O  O200  1  0.00335285  0.12948742  0.81114428  1
  O  O201  1  0.00006388  0.62180113  0.14388624  1
  O  O202  1  -0.00404571  0.61796524  0.47675355  1
  O  O203  1  0.00808718  0.61906082  0.81359516  1
  O  O204  1  0.33348449  0.12757002  0.14029754  1
  O  O205  1  0.32265715  0.12482922  0.47366373  1
  O  O206  1  0.32855722  0.12431724  0.80998658  1
  O  O207  1  0.32816972  0.62388421  0.15417357  1
  O  O208  1  0.34101195  0.62255583  0.48118628  1
  O  O209  1  0.32600547  0.62557990  0.82374237  1
  O  O210  1  0.65832388  0.13198479  0.13850764  1
  O  O211  1  0.67506980  0.12809412  0.47613120  1
  O  O212  1  0.67317555  0.12864353  0.80942638  1
  O  O213  1  0.65671114  0.62083342  0.15470658  1
  O  O214  1  0.66010179  0.62230843  0.47094962  1
  O  O215  1  0.66639534  0.62083941  0.81363266  1
  O  O216  1  0.08356731  0.02328565  0.25698741  1
  O  O217  1  0.08005694  0.02574207  0.58922915  1
  O  O218  1  0.08242229  0.02718110  0.92445726  1
  O  O219  1  0.08465547  0.51969832  0.24507179  1
  O  O220  1  0.07868658  0.50807399  0.58652122  1
  O  O221  1  0.08676711  0.52108350  0.91627621  1
  O  O222  1  0.42104931  0.02110621  0.24283646  1
  O  O223  1  0.40847271  0.01199433  0.58913767  1
  O  O224  1  0.40867801  0.01756423  0.92367271  1
  O  O225  1  0.43079601  0.51837358  0.24041377  1
  O  O226  1  0.42779370  0.50714164  0.56706523  1
  O  O227  1  0.41605291  0.49754686  0.91676528  1
  O  O228  1  0.75256330  0.02880279  0.24663232  1
  O  O229  1  0.75633118  0.02462281  0.57853284  1
  O  O230  1  0.75477188  0.02237457  0.91243058  1
  O  O231  1  0.76113985  0.51960126  0.23903002  1
  O  O232  1  0.75661531  0.51219660  0.56640836  1
  O  O233  1  0.75641561  0.49956540  0.91426902  1
  O  O234  1  0.25804220  0.22981585  0.25260329  1
  O  O235  1  0.24599727  0.22706694  0.58593727  1
  O  O236  1  0.25045608  0.22958416  0.91808924  1
  O  O237  1  0.24579941  0.73703993  0.24368962  1
  O  O238  1  0.24709580  0.74635209  0.57855058  1
  O  O239  1  0.24011690  0.73972497  0.90743222  1
  O  O240  1  0.59382171  0.23146876  0.25848455  1
  O  O241  1  0.59301580  0.23154241  0.58976809  1
  O  O242  1  0.59455609  0.23588680  0.93329594  1
  O  O243  1  0.58763819  0.73044937  0.25534214  1
  O  O244  1  0.58947839  0.72912423  0.58324514  1
  O  O245  1  0.58161750  0.74573914  0.91401145  1
  O  O246  1  0.92170122  0.22512460  0.25702655  1
  O  O247  1  0.91980906  0.22298791  0.58662259  1
  O  O248  1  0.92093701  0.22500049  0.92083526  1
  O  O249  1  0.91782520  0.72535065  0.25035927  1
  O  O250  1  0.91650786  0.73177697  0.58199081  1
  O  O251  1  0.92422196  0.73406411  0.92253761  1
  O  O252  1  0.07213530  0.47969477  0.07868940  1
  O  O253  1  0.07526122  0.47527835  0.41627437  1
  O  O254  1  0.07782864  0.47859824  0.74953603  1
  O  O255  1  0.09463177  0.98829953  0.09515011  1
  O  O256  1  0.09396713  0.99169930  0.42669035  1
  O  O257  1  0.09476130  0.99069582  0.76128455  1
  O  O258  1  0.41119629  0.47498018  0.08042391  1
  O  O259  1  0.40845418  0.47590342  0.40384843  1
  O  O260  1  0.41543666  0.48527083  0.75157019  1
  O  O261  1  0.41876675  0.98095133  0.08570267  1
  O  O262  1  0.41192855  0.98911782  0.40378511  1
  O  O263  1  0.41976555  0.98093989  0.75689882  1
  O  O264  1  0.74588297  0.47334328  0.07713663  1
  O  O265  1  0.73992604  0.47850288  0.40148533  1
  O  O266  1  0.75229614  0.48369480  0.74759490  1
  O  O267  1  0.75364217  0.99199478  0.08827529  1
  O  O268  1  0.74552484  0.98443307  0.40603304  1
  O  O269  1  0.74126980  0.99227035  0.73811679  1
  O  O270  1  0.24970157  0.27012230  0.08377046  1
  O  O271  1  0.24022260  0.27198205  0.42129075  1
  O  O272  1  0.24152284  0.25657937  0.75355229  1
  O  O273  1  0.25261634  0.76983580  0.08191196  1
  O  O274  1  0.25143205  0.76994550  0.41072077  1
  O  O275  1  0.25050183  0.76753568  0.74715516  1
  O  O276  1  0.57596967  0.27606579  0.09592176  1
  O  O277  1  0.57432795  0.26937370  0.42212174  1
  O  O278  1  0.57852759  0.26762063  0.76278394  1
  O  O279  1  0.58003237  0.76410306  0.09406539  1
  O  O280  1  0.58561707  0.76855072  0.41471714  1
  O  O281  1  0.58418338  0.76240756  0.74717039  1
  O  O282  1  0.90903881  0.26720187  0.09017903  1
  O  O283  1  0.91049183  0.27046204  0.42322378  1
  O  O284  1  0.91531392  0.27019484  0.75337633  1
  O  O285  1  0.91517241  0.75781026  0.09068866  1
  O  O286  1  0.91779665  0.75147175  0.41331500  1
  O  O287  1  0.92276165  0.74948779  0.74842406  1
  O  O288  1  0.24763993  0.47805267  0.08221232  1
  O  O289  1  0.24374757  0.47967937  0.41595825  1
  O  O290  1  0.24196882  0.49165753  0.75381129  1
  O  O291  1  0.25321535  0.98313704  0.08436893  1
  O  O292  1  0.25058870  0.97729193  0.41244638  1
  O  O293  1  0.25287601  0.98847342  0.74453757  1
  O  O294  1  0.57660183  0.47640600  0.09376874  1
  O  O295  1  0.57049662  0.47519174  0.42680894  1
  O  O296  1  0.57790605  0.48033841  0.75843486  1
  O  O297  1  0.57771109  0.98606635  0.09446597  1
  O  O298  1  0.58723302  0.98856781  0.41114288  1
  O  O299  1  0.58033173  0.98761945  0.75473689  1
  O  O300  1  0.90915008  0.47616354  0.09415769  1
  O  O301  1  0.90773869  0.47536131  0.42167039  1
  O  O302  1  0.91675422  0.47666959  0.75691930  1
  O  O303  1  0.91426950  0.99763644  0.08748598  1
  O  O304  1  0.91753382  1.00062628  0.41540683  1
  O  O305  1  0.91549448  1.00364159  0.75008182  1
  O  O306  1  0.07378135  0.26602776  0.08103378  1
  O  O307  1  0.07501377  0.27491171  0.41883820  1
  O  O308  1  0.07615295  0.26881908  0.74566987  1
  O  O309  1  0.09316987  0.76411841  0.09577541  1
  O  O310  1  0.09097203  0.76424849  0.42201013  1
  O  O311  1  0.09372018  0.76115169  0.76194464  1
  O  O312  1  0.41065903  0.27749979  0.08045858  1
  O  O313  1  0.40713218  0.26471896  0.40338735  1
  O  O314  1  0.41663858  0.26426960  0.75424351  1
  O  O315  1  0.41967164  0.76569214  0.08766921  1
  O  O316  1  0.41248269  0.76717349  0.40654925  1
  O  O317  1  0.41881188  0.76633711  0.75145449  1
  O  O318  1  0.74102742  0.27482412  0.07613483  1
  O  O319  1  0.74331722  0.27122893  0.40472284  1
  O  O320  1  0.75546432  0.26685765  0.75015951  1
  O  O321  1  0.75594720  0.75801491  0.09114074  1
  O  O322  1  0.74374653  0.76472574  0.40656192  1
  O  O323  1  0.74175067  0.75837197  0.73825753  1
  O  O324  1  0.25236606  0.02425118  0.24905045  1
  O  O325  1  0.24202184  0.02472057  0.58131507  1
  O  O326  1  0.24524464  0.02413248  0.91302460  1
  O  O327  1  0.25207172  0.51317607  0.24956090  1
  O  O328  1  0.24847162  0.50142892  0.57935997  1
  O  O329  1  0.24734185  0.50588603  0.91697009  1
  O  O330  1  0.58975074  0.02194065  0.25286234  1
  O  O331  1  0.59343815  0.01357372  0.59327902  1
  O  O332  1  0.59043647  0.02201201  0.92792373  1
  O  O333  1  0.59263393  0.51357597  0.26577471  1
  O  O334  1  0.59360263  0.52164885  0.58579120  1
  O  O335  1  0.58621125  0.50002258  0.92367277  1
  O  O336  1  0.91732958  0.02509068  0.25186535  1
  O  O337  1  0.91778373  0.02431381  0.58379271  1
  O  O338  1  0.91856515  0.02711627  0.91918406  1
  O  O339  1  0.92350987  0.52454374  0.25871069  1
  O  O340  1  0.92098581  0.52167153  0.58744506  1
  O  O341  1  0.92871249  0.51037757  0.93010292  1
  O  O342  1  0.08612286  0.22616917  0.25122961  1
  O  O343  1  0.08253893  0.22786643  0.58186879  1
  O  O344  1  0.08560725  0.22599136  0.91758703  1
  O  O345  1  0.08038858  0.73140106  0.25260142  1
  O  O346  1  0.07826975  0.73662454  0.59174582  1
  O  O347  1  0.08241838  0.72774158  0.92429662  1
  O  O348  1  0.42503580  0.23063763  0.23837500  1
  O  O349  1  0.41122608  0.23769893  0.57766227  1
  O  O350  1  0.41181061  0.23879649  0.92234639  1
  O  O351  1  0.42375256  0.73200814  0.24454902  1
  O  O352  1  0.42434242  0.73820242  0.57652624  1
  O  O353  1  0.41448045  0.75089028  0.91395688  1
  O  O354  1  0.75693584  0.22759554  0.23734043  1
  O  O355  1  0.75718580  0.23444979  0.57508949  1
  O  O356  1  0.75640517  0.22901285  0.91223550  1
  O  O357  1  0.75370787  0.72331429  0.24700710  1
  O  O358  1  0.75045072  0.72488581  0.57409861  1
  O  O359  1  0.75217087  0.74438153  0.91427947  1
