# generated using pymatgen
data_Ba17Sr5La8Pr42Mn72O216
_symmetry_space_group_name_H-M   'P 1'
_cell_length_a   16.67596341
_cell_length_b   15.70451292
_cell_length_c   16.82061850
_cell_angle_alpha   90.00324879
_cell_angle_beta   90.02719642
_cell_angle_gamma   89.98920281
_symmetry_Int_Tables_number   1
_chemical_formula_structural   Ba17Sr5La8Pr42Mn72O216
_chemical_formula_sum   'Ba17 Sr5 La8 Pr42 Mn72 O216'
_cell_volume   4405.11558373
_cell_formula_units_Z   1
loop_
 _symmetry_equiv_pos_site_id
 _symmetry_equiv_pos_as_xyz
  1  'x, y, z'
loop_
 _atom_site_type_symbol
 _atom_site_label
 _atom_site_symmetry_multiplicity
 _atom_site_fract_x
 _atom_site_fract_y
 _atom_site_fract_z
 _atom_site_occupancy
  Ba  Ba0  1  0.00291820  0.87428668  0.66844790  1
  Ba  Ba1  1  0.00285946  0.37561734  0.66969707  1
  Ba  Ba2  1  0.66812345  0.12345905  0.66488105  1
  Ba  Ba3  1  0.66552082  0.62615922  0.66559200  1
  Ba  Ba4  1  0.33642541  0.37433299  0.66722919  1
  Ba  Ba5  1  0.00187545  0.87484608  0.33597373  1
  Ba  Ba6  1  0.33235398  0.37232942  -0.00044783  1
  Ba  Ba7  1  0.16769411  0.62536576  0.83451456  1
  Ba  Ba8  1  0.83402451  0.12485158  0.83733002  1
  Ba  Ba9  1  0.00025299  0.12415962  0.33277744  1
  Ba  Ba10  1  0.33689579  0.87490618  0.66645143  1
  Ba  Ba11  1  0.82989411  0.62525395  0.83647166  1
  Ba  Ba12  1  0.50080165  0.37667747  0.16176885  1
  Ba  Ba13  1  0.83290826  0.12489801  0.50160604  1
  Ba  Ba14  1  0.33239374  0.12404956  0.66578000  1
  Ba  Ba15  1  0.50088625  0.37615063  0.49544804  1
  Ba  Ba16  1  0.83176658  0.12400315  0.16872848  1
  Sr  Sr17  1  0.32967998  0.62292488  0.66735509  1
  Sr  Sr18  1  -0.00206226  0.12456910  1.00270177  1
  Sr  Sr19  1  0.32766944  0.12611891  0.99741751  1
  Sr  Sr20  1  0.84178578  0.87723045  0.16826117  1
  Sr  Sr21  1  0.16902375  0.37402898  0.83141654  1
  La  La22  1  0.00095776  0.37494706  -0.00189980  1
  La  La23  1  0.83694706  0.37368542  0.16806621  1
  La  La24  1  0.67700319  0.87465483  0.00228835  1
  La  La25  1  0.16298820  0.62397161  0.16578570  1
  La  La26  1  -0.00597698  0.62449011  0.33320371  1
  La  La27  1  0.67452427  0.87484833  0.66592010  1
  La  La28  1  0.49436310  0.12503860  0.16171073  1
  La  La29  1  0.33947599  0.87358143  0.33631870  1
  Pr  Pr30  1  0.49098020  0.62629256  0.82974277  1
  Pr  Pr31  1  0.49733208  0.12439801  0.50061011  1
  Pr  Pr32  1  0.82626169  0.62866790  0.17088242  1
  Pr  Pr33  1  0.48858462  0.62581860  0.50260767  1
  Pr  Pr34  1  0.33246480  0.12587645  0.33097105  1
  Pr  Pr35  1  0.66166310  0.12579778  0.32758649  1
  Pr  Pr36  1  -0.00029172  0.87576530  0.00437816  1
  Pr  Pr37  1  -0.00051982  0.12750963  0.66464330  1
  Pr  Pr38  1  0.16352252  0.62774327  0.50792925  1
  Pr  Pr39  1  0.17124412  0.37492810  0.50050152  1
  Pr  Pr40  1  0.66157281  0.12524202  0.99286454  1
  Pr  Pr41  1  0.17051448  0.87791452  0.83228711  1
  Pr  Pr42  1  0.48625841  0.62557330  0.16325283  1
  Pr  Pr43  1  0.00073260  0.62145531  0.66838671  1
  Pr  Pr44  1  0.50597181  0.87641894  0.82770131  1
  Pr  Pr45  1  0.67711663  0.87438019  0.33141446  1
  Pr  Pr46  1  0.16407893  0.37188166  0.16312704  1
  Pr  Pr47  1  0.16534634  0.12729482  0.83343003  1
  Pr  Pr48  1  0.84046863  0.87570584  0.83500888  1
  Pr  Pr49  1  0.67351611  0.37479344  0.33406452  1
  Pr  Pr50  1  0.83303126  0.62934047  0.50856296  1
  Pr  Pr51  1  0.83288821  0.37571465  0.50328213  1
  Pr  Pr52  1  0.33523988  0.87552385  0.00066166  1
  Pr  Pr53  1  0.16703884  0.12663587  0.16892987  1
  Pr  Pr54  1  0.17528022  0.87610382  0.49839950  1
  Pr  Pr55  1  0.50492480  0.87422373  0.16017046  1
  Pr  Pr56  1  0.50760207  0.87559258  0.49732689  1
  Pr  Pr57  1  -0.00053552  0.37146115  0.33975690  1
  Pr  Pr58  1  0.67172600  0.37595821  0.00066694  1
  Pr  Pr59  1  0.50264874  0.37384000  0.82579706  1
  Pr  Pr60  1  0.67220422  0.37396891  0.66854552  1
  Pr  Pr61  1  0.83867313  0.87672126  0.50061034  1
  Pr  Pr62  1  0.84048810  0.37496032  0.83224622  1
  Pr  Pr63  1  0.32848686  0.62162127  0.99523753  1
  Pr  Pr64  1  0.33518660  0.37543451  0.33593477  1
  Pr  Pr65  1  0.49303810  0.12397597  0.83212825  1
  Pr  Pr66  1  0.16240597  0.12373972  0.50356091  1
  Pr  Pr67  1  -0.00817371  0.62544167  0.99854128  1
  Pr  Pr68  1  0.16471014  0.87824195  0.16581254  1
  Pr  Pr69  1  0.65490792  0.62519043  0.32997277  1
  Pr  Pr70  1  0.32698395  0.62331292  0.33373254  1
  Pr  Pr71  1  0.65434332  0.62523713  0.99199219  1
  Mn  Mn72  1  0.00119841  -0.00032717  0.16732726  1
  Mn  Mn73  1  0.00217971  -0.00018824  0.50263830  1
  Mn  Mn74  1  0.00243370  0.00019575  0.83695531  1
  Mn  Mn75  1  -0.00122529  0.50076271  0.16880998  1
  Mn  Mn76  1  0.00084735  0.49975083  0.49915581  1
  Mn  Mn77  1  0.00101718  0.50179748  0.83585953  1
  Mn  Mn78  1  0.33274952  -0.00142587  0.16681658  1
  Mn  Mn79  1  0.33481773  -0.00064215  0.49686520  1
  Mn  Mn80  1  0.33425869  0.00021117  0.83568030  1
  Mn  Mn81  1  0.32943904  0.50090730  0.16652511  1
  Mn  Mn82  1  0.33093524  0.49972269  0.49857008  1
  Mn  Mn83  1  0.33422993  0.49920413  0.83283277  1
  Mn  Mn84  1  0.66507130  -0.00158603  0.16446800  1
  Mn  Mn85  1  0.66689937  -0.00230065  0.49631566  1
  Mn  Mn86  1  0.66656024  -0.00166420  0.83346637  1
  Mn  Mn87  1  0.66600837  0.50356655  0.16434244  1
  Mn  Mn88  1  0.66777987  0.50180444  0.49705362  1
  Mn  Mn89  1  0.66377997  0.49986467  0.83417734  1
  Mn  Mn90  1  0.00044575  0.25143256  0.16812153  1
  Mn  Mn91  1  0.00082436  0.25173550  0.50197653  1
  Mn  Mn92  1  0.00159431  0.24869695  0.83547258  1
  Mn  Mn93  1  -0.00006388  0.74802865  0.16823547  1
  Mn  Mn94  1  0.00236309  0.74913329  0.50184640  1
  Mn  Mn95  1  0.00196925  0.75063494  0.83791234  1
  Mn  Mn96  1  0.33251680  0.24750829  0.16671947  1
  Mn  Mn97  1  0.33264402  0.24953954  0.49686921  1
  Mn  Mn98  1  0.33376950  0.24900342  0.83400546  1
  Mn  Mn99  1  0.33045746  0.75221258  0.16666818  1
  Mn  Mn100  1  0.33376597  0.75038204  0.49932871  1
  Mn  Mn101  1  0.33480630  0.75172918  0.83530555  1
  Mn  Mn102  1  0.66522633  0.25031815  0.16401530  1
  Mn  Mn103  1  0.66658114  0.25123031  0.49766515  1
  Mn  Mn104  1  0.66538567  0.25060251  0.83393272  1
  Mn  Mn105  1  0.66552413  0.74879922  0.16434147  1
  Mn  Mn106  1  0.66717886  0.74952123  0.49619865  1
  Mn  Mn107  1  0.66480273  0.75125948  0.83405567  1
  Mn  Mn108  1  0.16384513  0.24834188  0.00016616  1
  Mn  Mn109  1  0.16824421  0.25145657  0.33319241  1
  Mn  Mn110  1  0.16748173  0.24964055  0.66790052  1
  Mn  Mn111  1  0.16658646  0.75245458  0.00248941  1
  Mn  Mn112  1  0.16752090  0.74683779  0.33446824  1
  Mn  Mn113  1  0.16767449  0.75093226  0.66847691  1
  Mn  Mn114  1  0.49987376  0.24881122  -0.00367274  1
  Mn  Mn115  1  0.50011655  0.24906284  0.32897267  1
  Mn  Mn116  1  0.50319461  0.24905198  0.66369058  1
  Mn  Mn117  1  0.49849702  0.75250713  -0.00292202  1
  Mn  Mn118  1  0.49991715  0.74944288  0.32946729  1
  Mn  Mn119  1  0.50072848  0.75017724  0.66389318  1
  Mn  Mn120  1  0.83205417  0.25156890  0.00172997  1
  Mn  Mn121  1  0.83131150  0.25107824  0.33472191  1
  Mn  Mn122  1  0.83439688  0.25100754  0.66892465  1
  Mn  Mn123  1  0.83283306  0.74981858  0.00480717  1
  Mn  Mn124  1  0.83163794  0.74804285  0.33730395  1
  Mn  Mn125  1  0.83565249  0.75072550  0.66969620  1
  Mn  Mn126  1  0.16502980  0.00029131  -0.00026559  1
  Mn  Mn127  1  0.16996725  -0.00069556  0.33319589  1
  Mn  Mn128  1  0.16699429  -0.00083776  0.66774103  1
  Mn  Mn129  1  0.16513431  0.49893532  0.00193601  1
  Mn  Mn130  1  0.16498195  0.50072749  0.33366133  1
  Mn  Mn131  1  0.16782355  0.50082314  0.66754598  1
  Mn  Mn132  1  0.49905007  -0.00211741  -0.00300025  1
  Mn  Mn133  1  0.50129659  -0.00153501  0.32967221  1
  Mn  Mn134  1  0.50275960  -0.00108106  0.66359568  1
  Mn  Mn135  1  0.49905466  0.50072387  -0.00370626  1
  Mn  Mn136  1  0.49845177  0.50186630  0.32973214  1
  Mn  Mn137  1  0.50173806  0.50115529  0.66395188  1
  Mn  Mn138  1  0.83355685  0.00006440  0.00278270  1
  Mn  Mn139  1  0.83242571  -0.00125800  0.33406116  1
  Mn  Mn140  1  0.83610479  -0.00151009  0.66910898  1
  Mn  Mn141  1  0.83147885  0.49963779  0.00377132  1
  Mn  Mn142  1  0.83129638  0.50282991  0.33549214  1
  Mn  Mn143  1  0.83383880  0.50139609  0.66853367  1
  O  O144  1  0.16767658  0.12254676  0.02655560  1
  O  O145  1  0.17541581  0.12871083  0.35885564  1
  O  O146  1  0.16197875  0.12259772  0.68672648  1
  O  O147  1  0.17735496  0.62798005  0.02216198  1
  O  O148  1  0.17109278  0.62227145  0.36371307  1
  O  O149  1  0.16820974  0.62679495  0.67514083  1
  O  O150  1  0.51109228  0.12046104  0.01964517  1
  O  O151  1  0.50678505  0.11874146  0.35715014  1
  O  O152  1  0.50376512  0.12178003  0.68445950  1
  O  O153  1  0.50638855  0.63091102  0.02178915  1
  O  O154  1  0.50461763  0.62697016  0.35761189  1
  O  O155  1  0.49934305  0.62775385  0.68498835  1
  O  O156  1  0.82683990  0.12862466  0.01185061  1
  O  O157  1  0.82194557  0.12261728  0.34399865  1
  O  O158  1  0.83870667  0.12381845  0.67909323  1
  O  O159  1  0.83904746  0.62395195  0.02688104  1
  O  O160  1  0.83585088  0.62330648  0.36433927  1
  O  O161  1  0.83892485  0.62651222  0.67892968  1
  O  O162  1  0.16517990  0.37851451  0.30543785  1
  O  O163  1  0.16759219  0.37513478  0.64637248  1
  O  O164  1  0.15675317  0.37230363  0.98408064  1
  O  O165  1  0.17372475  0.86903400  0.31013920  1
  O  O166  1  0.16698902  0.87568937  0.64331677  1
  O  O167  1  0.15271821  0.87604592  0.97583506  1
  O  O168  1  0.49019923  0.38007667  0.31779440  1
  O  O169  1  0.50755665  0.37541115  0.65403294  1
  O  O170  1  0.50386078  0.37480139  0.97404814  1
  O  O171  1  0.49381523  0.87235690  0.30223991  1
  O  O172  1  0.50549542  0.87390592  0.64150457  1
  O  O173  1  0.48753758  0.87428146  0.97106994  1
  O  O174  1  0.82893703  0.38205017  0.31004096  1
  O  O175  1  0.83051536  0.37873490  0.64868036  1
  O  O176  1  0.82568901  0.37727571  0.97737275  1
  O  O177  1  0.82862484  0.87088468  0.31629352  1
  O  O178  1  0.83336644  0.87227348  0.64678124  1
  O  O179  1  0.83259989  0.87199518  0.98078924  1
  O  O180  1  0.00503589  0.38159737  0.19628099  1
  O  O181  1  -0.00020244  0.37763419  0.51346677  1
  O  O182  1  0.00072822  0.37690169  0.85289736  1
  O  O183  1  0.00795715  0.87282359  0.17907258  1
  O  O184  1  0.00148409  0.87367524  0.51141697  1
  O  O185  1  0.00628986  0.87498621  0.86019701  1
  O  O186  1  0.32709302  0.37217441  0.19132250  1
  O  O187  1  0.32910827  0.37512046  0.50903197  1
  O  O188  1  0.34372144  0.37381364  0.84274646  1
  O  O189  1  0.33416638  0.87368158  0.19380450  1
  O  O190  1  0.33070041  0.87455798  0.50863913  1
  O  O191  1  0.33856026  0.87665515  0.85679259  1
  O  O192  1  0.66660837  0.38304215  0.19127477  1
  O  O193  1  0.66736047  0.38021326  0.52174927  1
  O  O194  1  0.65492421  0.37640562  0.85838478  1
  O  O195  1  0.65399281  0.87301839  0.18923967  1
  O  O196  1  0.65553077  0.87200086  0.51948895  1
  O  O197  1  0.65887768  0.87374880  0.85837399  1
  O  O198  1  0.00830028  0.12360586  0.15335838  1
  O  O199  1  0.00808394  0.12650000  0.48904550  1
  O  O200  1  0.00361604  0.12158306  0.81047678  1
  O  O201  1  -0.00282157  0.62214557  0.14187046  1
  O  O202  1  0.00455765  0.62250344  0.47502681  1
  O  O203  1  -0.00158320  0.62736587  0.81536740  1
  O  O204  1  0.32985951  0.12141674  0.14654262  1
  O  O205  1  0.33270341  0.12267954  0.47450162  1
  O  O206  1  0.33099417  0.12232419  0.82305720  1
  O  O207  1  0.33019794  0.63257888  0.13804662  1
  O  O208  1  0.33033188  0.62614394  0.47761251  1
  O  O209  1  0.33793158  0.62754559  0.81901480  1
  O  O210  1  0.66270667  0.11928960  0.13875463  1
  O  O211  1  0.66305170  0.12105677  0.47176419  1
  O  O212  1  0.66446989  0.12288105  0.82230860  1
  O  O213  1  0.67661614  0.62566106  0.13610197  1
  O  O214  1  0.68094249  0.62647108  0.47203451  1
  O  O215  1  0.66154460  0.62749171  0.82297110  1
  O  O216  1  0.09173172  0.01084800  0.24577085  1
  O  O217  1  0.08131519  0.02084269  0.58865172  1
  O  O218  1  0.08489204  0.02511838  0.91764827  1
  O  O219  1  0.07932336  0.52742410  0.25463988  1
  O  O220  1  0.08110254  0.52092587  0.58257565  1
  O  O221  1  0.07554896  0.51671798  0.92908241  1
  O  O222  1  0.41369224  0.02166271  0.25519898  1
  O  O223  1  0.41792388  0.01268329  0.57576475  1
  O  O224  1  0.41451893  0.02041000  0.92177846  1
  O  O225  1  0.41054387  0.52523072  0.24950643  1
  O  O226  1  0.41410059  0.51782230  0.58125519  1
  O  O227  1  0.41441848  0.52365035  0.91923725  1
  O  O228  1  0.73546469  0.00829584  0.25821573  1
  O  O229  1  0.74699007  -0.00235070  0.58316027  1
  O  O230  1  0.73961037  0.00732137  0.92631953  1
  O  O231  1  0.74383953  0.52728026  0.25691605  1
  O  O232  1  0.75420826  0.51303045  0.57921782  1
  O  O233  1  0.73503655  0.51342358  0.92931372  1
  O  O234  1  0.25307982  0.22786802  0.25382378  1
  O  O235  1  0.24241156  0.23650372  0.57255614  1
  O  O236  1  0.24365202  0.23524870  0.91677901  1
  O  O237  1  0.24152008  0.72333619  0.24753571  1
  O  O238  1  0.24233227  0.74010364  0.57158459  1
  O  O239  1  0.25295901  0.74611353  0.92389624  1
  O  O240  1  0.57802183  0.22696318  0.23847846  1
  O  O241  1  0.57863435  0.23212539  0.57022022  1
  O  O242  1  0.57531389  0.22829128  0.90692269  1
  O  O243  1  0.57372948  0.72524803  0.23608180  1
  O  O244  1  0.57435457  0.73230491  0.56308191  1
  O  O245  1  0.57156335  0.73405738  0.90768994  1
  O  O246  1  0.91629395  0.24965702  0.25272209  1
  O  O247  1  0.92057185  0.23966253  0.58940776  1
  O  O248  1  0.91653064  0.24859020  0.92155528  1
  O  O249  1  0.90905385  0.72705069  0.25093134  1
  O  O250  1  0.91890489  0.72977667  0.58345006  1
  O  O251  1  0.91542076  0.73818994  0.92240404  1
  O  O252  1  0.08419928  0.48331746  0.09103938  1
  O  O253  1  0.08504372  0.47649785  0.41650010  1
  O  O254  1  0.08445352  0.49579144  0.75118916  1
  O  O255  1  0.08521270  0.97976620  0.08291790  1
  O  O256  1  0.09660482  0.98814572  0.42588193  1
  O  O257  1  0.09072214  0.98463184  0.76089238  1
  O  O258  1  0.41849470  0.49932835  0.08129333  1
  O  O259  1  0.40921970  0.49485206  0.41104497  1
  O  O260  1  0.42771270  0.49193153  0.75901838  1
  O  O261  1  0.41969299  0.97858857  0.08812849  1
  O  O262  1  0.42538314  0.97853655  0.41603007  1
  O  O263  1  0.42795697  0.98830392  0.75883992  1
  O  O264  1  0.75670263  0.47937269  0.09297521  1
  O  O265  1  0.75445060  0.47433384  0.41953096  1
  O  O266  1  0.75034214  0.47710154  0.75819390  1
  O  O267  1  0.75074226  0.97826363  0.08893130  1
  O  O268  1  0.75247075  0.97314546  0.42083484  1
  O  O269  1  0.75405527  0.97540342  0.75681694  1
  O  O270  1  0.24104809  0.26148121  0.09256377  1
  O  O271  1  0.24921018  0.27553924  0.41263842  1
  O  O272  1  0.24976721  0.25688767  0.75119357  1
  O  O273  1  0.25139029  0.78149861  0.08155384  1
  O  O274  1  0.26077039  0.76518558  0.40643545  1
  O  O275  1  0.25220754  0.76757865  0.75589569  1
  O  O276  1  0.59297282  0.26387305  0.06826760  1
  O  O277  1  0.59267162  0.26486595  0.39952696  1
  O  O278  1  0.59228660  0.26977378  0.74465891  1
  O  O279  1  0.58635037  0.77317657  0.06986792  1
  O  O280  1  0.59251918  0.76748439  0.39956557  1
  O  O281  1  0.58954004  0.77207289  0.74276147  1
  O  O282  1  0.91639664  0.27231016  0.08459901  1
  O  O283  1  0.91582517  0.27063214  0.41804920  1
  O  O284  1  0.91450387  0.26376095  0.75688272  1
  O  O285  1  0.92341628  0.76585028  0.07943995  1
  O  O286  1  0.91458120  0.75933163  0.42306316  1
  O  O287  1  0.91661785  0.76752165  0.75930982  1
  O  O288  1  0.24329527  0.48461177  0.09119721  1
  O  O289  1  0.24847957  0.47672775  0.41153588  1
  O  O290  1  0.25371341  0.49117278  0.75081434  1
  O  O291  1  0.24939005  0.97328659  0.08080603  1
  O  O292  1  0.25853340  0.97946614  0.40800539  1
  O  O293  1  0.24983984  0.98502022  0.75291247  1
  O  O294  1  0.59331802  0.48978758  0.06783768  1
  O  O295  1  0.59451360  0.48936966  0.39969062  1
  O  O296  1  0.59016879  0.48134374  0.74432712  1
  O  O297  1  0.58482415  0.97381705  0.07470817  1
  O  O298  1  0.58917128  0.97303724  0.40376677  1
  O  O299  1  0.59142747  0.97667388  0.74399599  1
  O  O300  1  0.92066805  0.47465015  0.08559087  1
  O  O301  1  0.91912574  0.47910568  0.41292448  1
  O  O302  1  0.91429775  0.48730637  0.75635552  1
  O  O303  1  0.92155117  0.98499659  0.08198522  1
  O  O304  1  0.91480477  0.98763058  0.42441079  1
  O  O305  1  0.91660316  0.98193339  0.75993605  1
  O  O306  1  0.07954786  0.27058963  0.08276043  1
  O  O307  1  0.08607407  0.27185924  0.41594282  1
  O  O308  1  0.08764136  0.25584798  0.75421376  1
  O  O309  1  0.09410289  0.76213483  0.09284371  1
  O  O310  1  0.09801249  0.76207913  0.42862018  1
  O  O311  1  0.09042420  0.76599709  0.76165243  1
  O  O312  1  0.42014225  0.25191482  0.08450498  1
  O  O313  1  0.40986303  0.25670713  0.40765079  1
  O  O314  1  0.42943431  0.25604863  0.75614172  1
  O  O315  1  0.42345509  0.77118576  0.08669828  1
  O  O316  1  0.42686947  0.76676173  0.42178953  1
  O  O317  1  0.42689660  0.76409986  0.76322567  1
  O  O318  1  0.75319565  0.27428851  0.09035763  1
  O  O319  1  0.75356026  0.27517389  0.42177850  1
  O  O320  1  0.75310003  0.27494320  0.75755603  1
  O  O321  1  0.75722467  0.76857602  0.09432486  1
  O  O322  1  0.75435230  0.77575993  0.42272642  1
  O  O323  1  0.75289378  0.77309929  0.75758485  1
  O  O324  1  0.24891074  0.02088321  0.24708631  1
  O  O325  1  0.24163754  0.01189448  0.57083320  1
  O  O326  1  0.24432490  0.00827777  0.91567286  1
  O  O327  1  0.24580128  0.52502601  0.25248948  1
  O  O328  1  0.24330099  0.51282098  0.57346746  1
  O  O329  1  0.25293703  0.50940788  0.92188776  1
  O  O330  1  0.57509122  0.02075060  0.23994411  1
  O  O331  1  0.57605238  0.01337988  0.56660513  1
  O  O332  1  0.57584945  0.01524975  0.90715800  1
  O  O333  1  0.57670659  0.52883216  0.23640972  1
  O  O334  1  0.57794767  0.52226023  0.56764872  1
  O  O335  1  0.57258235  0.52193071  0.90677358  1
  O  O336  1  0.91483062  0.00426088  0.25088256  1
  O  O337  1  0.92205347  0.01166194  0.58977111  1
  O  O338  1  0.91949269  0.00324373  0.92097931  1
  O  O339  1  0.90976604  0.52391316  0.24786046  1
  O  O340  1  0.91905620  0.52161062  0.57964444  1
  O  O341  1  0.91587564  0.51082489  0.92395794  1
  O  O342  1  0.09352213  0.23765181  0.24490026  1
  O  O343  1  0.08427028  0.23182175  0.58519379  1
  O  O344  1  0.08268154  0.22777272  0.91744766  1
  O  O345  1  0.07831467  0.72467523  0.25878241  1
  O  O346  1  0.07711169  0.72680650  0.58858985  1
  O  O347  1  0.07501914  0.73143988  0.93243572  1
  O  O348  1  0.41536091  0.22535985  0.24925339  1
  O  O349  1  0.41735407  0.23421198  0.57498715  1
  O  O350  1  0.41673625  0.22888163  0.91759891  1
  O  O351  1  0.40919759  0.72469787  0.25620961  1
  O  O352  1  0.41161464  0.73128250  0.58339748  1
  O  O353  1  0.41088921  0.72648360  0.92535264  1
  O  O354  1  0.73826831  0.24067767  0.25938938  1
  O  O355  1  0.74863788  0.24940845  0.58742267  1
  O  O356  1  0.73690200  0.24185098  0.92744227  1
  O  O357  1  0.74262413  0.72817806  0.26149045  1
  O  O358  1  0.75102308  0.74211503  0.58083879  1
  O  O359  1  0.73875112  0.73854189  0.93185822  1
