# generated using pymatgen
data_Ba17Sr5La8Pr42Mn72O216
_symmetry_space_group_name_H-M   'P 1'
_cell_length_a   16.67213362
_cell_length_b   15.70317655
_cell_length_c   16.81819867
_cell_angle_alpha   90.00036652
_cell_angle_beta   90.00923356
_cell_angle_gamma   89.98279391
_symmetry_Int_Tables_number   1
_chemical_formula_structural   Ba17Sr5La8Pr42Mn72O216
_chemical_formula_sum   'Ba17 Sr5 La8 Pr42 Mn72 O216'
_cell_volume   4403.09594529
_cell_formula_units_Z   1
loop_
 _symmetry_equiv_pos_site_id
 _symmetry_equiv_pos_as_xyz
  1  'x, y, z'
loop_
 _atom_site_type_symbol
 _atom_site_label
 _atom_site_symmetry_multiplicity
 _atom_site_fract_x
 _atom_site_fract_y
 _atom_site_fract_z
 _atom_site_occupancy
  Ba  Ba0  1  0.66439007  0.37647726  0.33241662  1
  Ba  Ba1  1  0.66808777  0.62479719  0.32950259  1
  Ba  Ba2  1  0.16737130  0.87405714  0.16505682  1
  Ba  Ba3  1  0.16550293  0.37714457  0.16533635  1
  Ba  Ba4  1  0.49906147  0.12438163  0.50404523  1
  Ba  Ba5  1  0.83465749  0.62592633  0.49661019  1
  Ba  Ba6  1  0.83189181  0.37572175  0.49708259  1
  Ba  Ba7  1  0.83128296  0.87577768  0.49682969  1
  Ba  Ba8  1  0.66643736  0.12378573  0.99525240  1
  Ba  Ba9  1  0.33521403  0.37732193  0.00575803  1
  Ba  Ba10  1  -0.00109603  0.37353550  0.33164721  1
  Ba  Ba11  1  0.00165015  0.12311236  0.66554606  1
  Ba  Ba12  1  0.16959281  0.62537070  0.50086145  1
  Ba  Ba13  1  0.00180297  0.12266655  0.99680226  1
  Ba  Ba14  1  -0.00167759  0.37561732  -0.00002634  1
  Ba  Ba15  1  -0.00121294  0.12355502  0.33143988  1
  Ba  Ba16  1  0.49915212  0.12334799  0.83705284  1
  Sr  Sr17  1  -0.00143772  0.87467365  0.00055568  1
  Sr  Sr18  1  0.16580350  0.62381281  0.16939934  1
  Sr  Sr19  1  0.33390616  0.62515601  1.00530017  1
  Sr  Sr20  1  0.83717788  0.62555385  0.16816922  1
  Sr  Sr21  1  0.33044937  0.87443358  0.33648228  1
  La  La22  1  0.33066922  0.62815644  0.33182902  1
  La  La23  1  0.66490129  0.37373591  0.00025699  1
  La  La24  1  -0.00518557  0.37877425  0.66671677  1
  La  La25  1  0.65971942  0.37767993  0.66574740  1
  La  La26  1  0.33089027  0.37600603  0.33621446  1
  La  La27  1  0.50153899  0.87163673  0.16917700  1
  La  La28  1  0.67369908  0.62698491  0.99986657  1
  La  La29  1  -0.00020965  0.87165363  0.33164729  1
  Pr  Pr30  1  -0.00558084  0.87042512  0.66732841  1
  Pr  Pr31  1  0.00863421  0.62610976  0.66187495  1
  Pr  Pr32  1  0.49602788  0.87485952  0.49687011  1
  Pr  Pr33  1  0.16269656  0.37238836  0.49590913  1
  Pr  Pr34  1  0.66361104  0.87287338  0.33500410  1
  Pr  Pr35  1  0.33063887  0.12414477  1.00173821  1
  Pr  Pr36  1  0.16300523  0.12791253  0.16550708  1
  Pr  Pr37  1  0.50351149  0.62499530  0.50209329  1
  Pr  Pr38  1  -0.00387894  0.62496254  0.32952346  1
  Pr  Pr39  1  0.67253666  0.62676175  0.65980515  1
  Pr  Pr40  1  0.17228835  0.62428618  0.83720484  1
  Pr  Pr41  1  0.50284988  0.37737433  0.16721993  1
  Pr  Pr42  1  0.83139526  0.37478997  0.16471264  1
  Pr  Pr43  1  0.66880205  0.12495046  0.32878999  1
  Pr  Pr44  1  0.82941121  0.37156463  0.82757279  1
  Pr  Pr45  1  0.65983091  0.87303860  0.66560483  1
  Pr  Pr46  1  0.66646614  0.87685854  -0.00088956  1
  Pr  Pr47  1  0.83175114  0.87536745  0.16283903  1
  Pr  Pr48  1  0.49700233  0.37546625  0.49912879  1
  Pr  Pr49  1  0.49463499  0.37368983  0.83604736  1
  Pr  Pr50  1  0.01089515  0.62748578  1.00274302  1
  Pr  Pr51  1  0.83668097  0.12487039  0.83547592  1
  Pr  Pr52  1  0.16788208  0.12570141  0.83775522  1
  Pr  Pr53  1  0.83128750  0.88012431  0.82741441  1
  Pr  Pr54  1  0.33721974  0.87411836  0.00772828  1
  Pr  Pr55  1  0.49783067  0.87451511  0.83561469  1
  Pr  Pr56  1  0.33002483  0.12129541  0.33347762  1
  Pr  Pr57  1  0.32905344  0.37441646  0.67301355  1
  Pr  Pr58  1  0.16321561  0.87770088  0.49438119  1
  Pr  Pr59  1  0.34142770  0.62533179  0.66554054  1
  Pr  Pr60  1  0.16714579  0.12554479  0.50185854  1
  Pr  Pr61  1  0.33087614  0.87504805  0.66887774  1
  Pr  Pr62  1  0.16281250  0.87433835  0.83387100  1
  Pr  Pr63  1  0.67056475  0.12347453  0.66246303  1
  Pr  Pr64  1  0.16225216  0.37554971  0.83479923  1
  Pr  Pr65  1  0.49769410  0.62276834  0.17134760  1
  Pr  Pr66  1  0.49855646  0.12675184  0.17272481  1
  Pr  Pr67  1  0.33396486  0.12487650  0.66622761  1
  Pr  Pr68  1  0.50505543  0.62486836  0.84009138  1
  Pr  Pr69  1  0.83472268  0.12965597  0.49737800  1
  Pr  Pr70  1  0.83802357  0.12595957  0.16300046  1
  Pr  Pr71  1  0.84602882  0.62690025  0.83520063  1
  Mn  Mn72  1  -0.00056641  -0.00144332  0.16360145  1
  Mn  Mn73  1  -0.00056928  -0.00039819  0.49844050  1
  Mn  Mn74  1  0.00141609  -0.00265708  0.83064699  1
  Mn  Mn75  1  -0.00238917  0.50148102  0.16516145  1
  Mn  Mn76  1  0.00138180  0.50148907  0.49972131  1
  Mn  Mn77  1  0.00065935  0.50156156  0.83284078  1
  Mn  Mn78  1  0.33585637  -0.00080069  0.16832143  1
  Mn  Mn79  1  0.33177533  -0.00053334  0.50240233  1
  Mn  Mn80  1  0.33193442  -0.00291583  0.83632004  1
  Mn  Mn81  1  0.33407860  0.50225151  0.17058277  1
  Mn  Mn82  1  0.33393479  0.49953716  0.50385624  1
  Mn  Mn83  1  0.33346766  0.50113921  0.83479128  1
  Mn  Mn84  1  0.66531152  0.00014833  0.16564051  1
  Mn  Mn85  1  0.66508535  -0.00043597  0.49820344  1
  Mn  Mn86  1  0.66604294  -0.00296594  0.82998243  1
  Mn  Mn87  1  0.66737801  0.50015027  0.16263755  1
  Mn  Mn88  1  0.66546548  0.50100739  0.50063766  1
  Mn  Mn89  1  0.66837690  0.50306748  0.83261871  1
  Mn  Mn90  1  -0.00166076  0.24965364  0.16410883  1
  Mn  Mn91  1  0.00033440  0.24802327  0.50041452  1
  Mn  Mn92  1  0.00012326  0.25120006  0.83094707  1
  Mn  Mn93  1  -0.00106464  0.75146613  0.16456169  1
  Mn  Mn94  1  0.00133069  0.75117948  0.49999880  1
  Mn  Mn95  1  0.00195346  0.75074625  0.83328282  1
  Mn  Mn96  1  0.33547883  0.24746748  0.16988094  1
  Mn  Mn97  1  0.33223162  0.25058269  0.50378883  1
  Mn  Mn98  1  0.33232445  0.25001822  0.83566084  1
  Mn  Mn99  1  0.33434401  0.75015595  0.16908468  1
  Mn  Mn100  1  0.33371869  0.74991614  0.50190900  1
  Mn  Mn101  1  0.33365494  0.74963907  0.83604975  1
  Mn  Mn102  1  0.66572027  0.24847437  0.16391347  1
  Mn  Mn103  1  0.66436796  0.24838203  0.49920534  1
  Mn  Mn104  1  0.66557873  0.25259441  0.83084125  1
  Mn  Mn105  1  0.66669910  0.75147815  0.16389959  1
  Mn  Mn106  1  0.66498931  0.75078910  0.50001845  1
  Mn  Mn107  1  0.66850713  0.74877083  0.83125881  1
  Mn  Mn108  1  0.16839990  0.24949833  0.00024795  1
  Mn  Mn109  1  0.16782602  0.24866876  0.33392906  1
  Mn  Mn110  1  0.16682800  0.25075279  0.66701941  1
  Mn  Mn111  1  0.17028163  0.74987728  -0.00062106  1
  Mn  Mn112  1  0.16631597  0.75032540  0.33327866  1
  Mn  Mn113  1  0.16917438  0.75226519  0.66793457  1
  Mn  Mn114  1  0.49966710  0.24990229  0.00317494  1
  Mn  Mn115  1  0.49786765  0.24932941  0.33613216  1
  Mn  Mn116  1  0.49967271  0.25064696  0.66940500  1
  Mn  Mn117  1  0.50190813  0.74855736  0.00156351  1
  Mn  Mn118  1  0.49777527  0.75085902  0.33513841  1
  Mn  Mn119  1  0.49901950  0.75029060  0.66949976  1
  Mn  Mn120  1  0.83250736  0.25078375  -0.00425880  1
  Mn  Mn121  1  0.83096124  0.24817376  0.33101992  1
  Mn  Mn122  1  0.83172135  0.24972820  0.66502591  1
  Mn  Mn123  1  0.83488895  0.74981163  -0.00190984  1
  Mn  Mn124  1  0.83241313  0.75151804  0.32826213  1
  Mn  Mn125  1  0.83276996  0.75062798  0.66794268  1
  Mn  Mn126  1  0.16889903  -0.00200540  -0.00125918  1
  Mn  Mn127  1  0.16649235  -0.00044442  0.33232261  1
  Mn  Mn128  1  0.16804210  -0.00225140  0.66612622  1
  Mn  Mn129  1  0.16894527  0.50288725  0.00080893  1
  Mn  Mn130  1  0.16615368  0.50054245  0.33484844  1
  Mn  Mn131  1  0.16822203  0.49907408  0.66797271  1
  Mn  Mn132  1  0.49941003  -0.00270215  0.00333233  1
  Mn  Mn133  1  0.49906888  0.00013322  0.33528178  1
  Mn  Mn134  1  0.49928508  -0.00202235  0.66883003  1
  Mn  Mn135  1  0.50293585  0.50301217  0.00179789  1
  Mn  Mn136  1  0.49669267  0.50024039  0.33630890  1
  Mn  Mn137  1  0.49948284  0.50081338  0.67029719  1
  Mn  Mn138  1  0.83347453  -0.00302075  -0.00394105  1
  Mn  Mn139  1  0.83059711  -0.00065203  0.32855979  1
  Mn  Mn140  1  0.83225612  -0.00037094  0.66325481  1
  Mn  Mn141  1  0.83378160  0.50412409  -0.00234423  1
  Mn  Mn142  1  0.83341724  0.50105521  0.32979563  1
  Mn  Mn143  1  0.83217896  0.50129027  0.66834761  1
  O  O144  1  0.17296811  0.12147954  0.01742926  1
  O  O145  1  0.17525051  0.12390630  0.35782174  1
  O  O146  1  0.17238662  0.12207220  0.69578200  1
  O  O147  1  0.16117581  0.62805426  0.01422894  1
  O  O148  1  0.16731494  0.62661220  0.34508047  1
  O  O149  1  0.16064467  0.62594813  0.69349528  1
  O  O150  1  0.49612170  0.11918429  0.02575254  1
  O  O151  1  0.50633988  0.12415546  0.34867034  1
  O  O152  1  0.49821311  0.12104380  0.68212013  1
  O  O153  1  0.50852877  0.62697574  0.02651057  1
  O  O154  1  0.49453431  0.62858729  0.35837862  1
  O  O155  1  0.49307489  0.62620385  0.69812939  1
  O  O156  1  0.83146085  0.11886686  0.01631526  1
  O  O157  1  0.82531034  0.12049730  0.35277615  1
  O  O158  1  0.82215434  0.12202797  0.69192391  1
  O  O159  1  0.82802017  0.62847371  0.01996125  1
  O  O160  1  0.84000481  0.62832595  0.33792071  1
  O  O161  1  0.82337572  0.62658092  0.69109843  1
  O  O162  1  0.17473421  0.37268709  0.32284418  1
  O  O163  1  0.17744535  0.37620424  0.63983621  1
  O  O164  1  0.16963421  0.37759061  0.98083232  1
  O  O165  1  0.16602062  0.87585065  0.32155614  1
  O  O166  1  0.17918776  0.87553172  0.63811969  1
  O  O167  1  0.17876435  0.87310291  0.97797930  1
  O  O168  1  0.49032724  0.37156842  0.31118844  1
  O  O169  1  0.50009177  0.37918138  0.64276400  1
  O  O170  1  0.50309351  0.38201921  0.97873911  1
  O  O171  1  0.50188263  0.87586838  0.31323927  1
  O  O172  1  0.50104032  0.87270838  0.64098952  1
  O  O173  1  0.49356401  0.87053466  0.97804763  1
  O  O174  1  0.83144082  0.37340251  0.31088822  1
  O  O175  1  0.84152456  0.37791451  0.65621811  1
  O  O176  1  0.82705373  0.38244001  0.97139485  1
  O  O177  1  0.82617471  0.87705926  0.30745636  1
  O  O178  1  0.84292710  0.87444396  0.65313821  1
  O  O179  1  0.82713296  0.87178328  0.97065260  1
  O  O180  1  -0.00729064  0.37509086  0.17334119  1
  O  O181  1  0.00586719  0.37381109  0.52085115  1
  O  O182  1  -0.00479950  0.37750388  0.84275163  1
  O  O183  1  -0.00432288  0.87563877  0.18623691  1
  O  O184  1  0.00462203  0.87523525  0.52333766  1
  O  O185  1  -0.00241892  0.87259426  0.85111914  1
  O  O186  1  0.34113950  0.37374505  0.19106534  1
  O  O187  1  0.33218833  0.37510993  0.53016370  1
  O  O188  1  0.33499928  0.37695238  0.84918449  1
  O  O189  1  0.33989589  0.87593704  0.18691153  1
  O  O190  1  0.33256281  0.87322204  0.52565282  1
  O  O191  1  0.33365670  0.87146334  0.86440527  1
  O  O192  1  0.67150042  0.37276553  0.17551027  1
  O  O193  1  0.65810700  0.37651774  0.52106723  1
  O  O194  1  0.67614654  0.38324298  0.85743593  1
  O  O195  1  0.66945577  0.87873170  0.19129668  1
  O  O196  1  0.65887777  0.87521490  0.52165368  1
  O  O197  1  0.67306957  0.87005923  0.85612441  1
  O  O198  1  -0.00454311  0.12236661  0.15427256  1
  O  O199  1  0.00264540  0.12215498  0.48919853  1
  O  O200  1  0.00618487  0.12397514  0.82111740  1
  O  O201  1  -0.00498380  0.62860301  0.14556801  1
  O  O202  1  0.00328645  0.62969333  0.47938926  1
  O  O203  1  0.00410966  0.62677084  0.80468567  1
  O  O204  1  0.34423848  0.12117696  0.14478450  1
  O  O205  1  0.32801464  0.12668115  0.47839197  1
  O  O206  1  0.32761413  0.12302259  0.80800102  1
  O  O207  1  0.34319019  0.62739871  0.15543086  1
  O  O208  1  0.34193013  0.62497940  0.47726536  1
  O  O209  1  0.33316341  0.62630101  0.80696095  1
  O  O210  1  0.65454387  0.12313548  0.14962008  1
  O  O211  1  0.66670157  0.12094692  0.47568739  1
  O  O212  1  0.66907444  0.12157612  0.80647178  1
  O  O213  1  0.65735005  0.62609251  0.14330916  1
  O  O214  1  0.65734672  0.62678475  0.49075565  1
  O  O215  1  0.65691660  0.62642002  0.80179928  1
  O  O216  1  0.08934964  0.01462690  0.24464919  1
  O  O217  1  0.09495509  0.01148145  0.57584830  1
  O  O218  1  0.09321446  0.00602481  0.90465074  1
  O  O219  1  0.08035355  0.51697921  0.25061889  1
  O  O220  1  0.08389951  0.51267816  0.58925695  1
  O  O221  1  0.08901987  0.51785885  0.90673001  1
  O  O222  1  0.41691433  0.02150321  0.25411245  1
  O  O223  1  0.41026693  0.00945078  0.59372994  1
  O  O224  1  0.40882374  0.01143737  0.92872246  1
  O  O225  1  0.41520025  0.52211069  0.25761074  1
  O  O226  1  0.42404244  0.52309789  0.58057401  1
  O  O227  1  0.42618720  0.51959887  0.91281052  1
  O  O228  1  0.74876566  0.02581824  0.24335331  1
  O  O229  1  0.75154200  0.02129587  0.57695043  1
  O  O230  1  0.75559171  0.01230181  0.90315258  1
  O  O231  1  0.75529786  0.50731897  0.23622437  1
  O  O232  1  0.74758349  0.51132532  0.58790777  1
  O  O233  1  0.75725772  0.52997043  0.90544754  1
  O  O234  1  0.25200442  0.22409268  0.25121094  1
  O  O235  1  0.25075603  0.22484873  0.58720150  1
  O  O236  1  0.25110417  0.22772846  0.91614102  1
  O  O237  1  0.25309566  0.73550886  0.25374640  1
  O  O238  1  0.26185203  0.73207931  0.59714800  1
  O  O239  1  0.25308665  0.72702968  0.91492868  1
  O  O240  1  0.58096325  0.23520941  0.24841572  1
  O  O241  1  0.59147042  0.23682730  0.59408286  1
  O  O242  1  0.58386315  0.24925052  0.91585174  1
  O  O243  1  0.57782327  0.74039869  0.24298625  1
  O  O244  1  0.58203964  0.72958110  0.59185370  1
  O  O245  1  0.58971787  0.73082408  0.91695653  1
  O  O246  1  0.90859229  0.23736895  0.24224284  1
  O  O247  1  0.91283310  0.23551603  0.58247649  1
  O  O248  1  0.91439090  0.23743999  0.91025102  1
  O  O249  1  0.92111986  0.74084238  0.25190891  1
  O  O250  1  0.92439864  0.73476082  0.59498807  1
  O  O251  1  0.92514323  0.72585440  0.92143582  1
  O  O252  1  0.07727148  0.49960122  0.07853150  1
  O  O253  1  0.08894763  0.48469006  0.42132294  1
  O  O254  1  0.08122655  0.47626460  0.74545615  1
  O  O255  1  0.08529205  0.98943193  0.07726477  1
  O  O256  1  0.08058324  0.97996754  0.41394219  1
  O  O257  1  0.08229920  0.97146234  0.74261058  1
  O  O258  1  0.42556729  0.49027794  0.09667117  1
  O  O259  1  0.41095620  0.47445262  0.42057224  1
  O  O260  1  0.41123242  0.47929917  0.74492612  1
  O  O261  1  0.42223012  0.97551004  0.09010536  1
  O  O262  1  0.41534673  0.98301849  0.42090272  1
  O  O263  1  0.41515319  0.97406938  0.75733442  1
  O  O264  1  0.74214597  0.48724020  0.06909284  1
  O  O265  1  0.74948747  0.49546973  0.41086572  1
  O  O266  1  0.74355198  0.47956012  0.74528021  1
  O  O267  1  0.74840050  0.97687178  0.07929921  1
  O  O268  1  0.73815903  0.98437411  0.40364238  1
  O  O269  1  0.74462190  0.97497754  0.73994776  1
  O  O270  1  0.25504190  0.25019673  0.08610518  1
  O  O271  1  0.25131117  0.26939989  0.42144765  1
  O  O272  1  0.24549945  0.27227811  0.75283157  1
  O  O273  1  0.25871159  0.76158606  0.07936218  1
  O  O274  1  0.24843467  0.76563578  0.42401357  1
  O  O275  1  0.24607667  0.77246427  0.75577824  1
  O  O276  1  0.58292022  0.27105223  0.08366071  1
  O  O277  1  0.57421778  0.26723429  0.42448950  1
  O  O278  1  0.57993059  0.27731175  0.75461087  1
  O  O279  1  0.58554557  0.77668443  0.08043899  1
  O  O280  1  0.57826064  0.77102664  0.41902740  1
  O  O281  1  0.57895806  0.77497837  0.75452279  1
  O  O282  1  0.90695102  0.26002445  0.08441149  1
  O  O283  1  0.91262829  0.25109098  0.41792872  1
  O  O284  1  0.91143480  0.26188659  0.75191156  1
  O  O285  1  0.90995309  0.77150327  0.08587997  1
  O  O286  1  0.92154883  0.76537770  0.41088057  1
  O  O287  1  0.91150465  0.76534988  0.75851244  1
  O  O288  1  0.25356691  0.49883380  0.08896707  1
  O  O289  1  0.25049497  0.48073105  0.42608442  1
  O  O290  1  0.24328194  0.48016203  0.75574754  1
  O  O291  1  0.26146037  0.98860668  0.07600085  1
  O  O292  1  0.24546517  0.98436340  0.42260938  1
  O  O293  1  0.24902147  0.97242877  0.75260103  1
  O  O294  1  0.58362667  0.47736171  0.08234798  1
  O  O295  1  0.57012187  0.48848685  0.42707836  1
  O  O296  1  0.57519113  0.47646056  0.75999713  1
  O  O297  1  0.58356085  0.97285563  0.08390059  1
  O  O298  1  0.57858146  0.97549656  0.41934445  1
  O  O299  1  0.58076962  0.97225742  0.75225226  1
  O  O300  1  0.90333520  0.48637549  0.08939086  1
  O  O301  1  0.91947479  0.49642184  0.41562657  1
  O  O302  1  0.90691083  0.49055507  0.76096557  1
  O  O303  1  0.91168656  0.97985776  0.08034306  1
  O  O304  1  0.91641393  0.98373197  0.40614102  1
  O  O305  1  0.91566137  0.98355426  0.74845756  1
  O  O306  1  0.08595779  0.25112174  0.08248127  1
  O  O307  1  0.08998617  0.25899459  0.42121242  1
  O  O308  1  0.08168198  0.27542950  0.74409802  1
  O  O309  1  0.07763444  0.76000284  0.07501995  1
  O  O310  1  0.08389508  0.77219629  0.41730827  1
  O  O311  1  0.08124503  0.77573068  0.74525474  1
  O  O312  1  0.42693646  0.26285208  0.09937997  1
  O  O313  1  0.41298758  0.27156375  0.42232113  1
  O  O314  1  0.41490904  0.26980506  0.75345121  1
  O  O315  1  0.42055445  0.76716348  0.08819495  1
  O  O316  1  0.41603132  0.77135767  0.42152492  1
  O  O317  1  0.41268813  0.77487818  0.74837321  1
  O  O318  1  0.74858653  0.26690406  0.07787320  1
  O  O319  1  0.74414777  0.25283289  0.41207319  1
  O  O320  1  0.74326167  0.27236280  0.74131628  1
  O  O321  1  0.74457875  0.77082196  0.07443588  1
  O  O322  1  0.74384928  0.76453455  0.40604164  1
  O  O323  1  0.74573342  0.77335683  0.74581646  1
  O  O324  1  0.25184428  0.02310718  0.24802362  1
  O  O325  1  0.25244503  0.02490784  0.58823318  1
  O  O326  1  0.25002643  0.02299747  0.91389954  1
  O  O327  1  0.25610497  0.51330945  0.25858248  1
  O  O328  1  0.26288480  0.51902499  0.59736568  1
  O  O329  1  0.25287811  0.52029569  0.91544666  1
  O  O330  1  0.58314743  0.01515521  0.25203640  1
  O  O331  1  0.59197047  0.01195553  0.59136586  1
  O  O332  1  0.58187959  -0.00184858  0.91725122  1
  O  O333  1  0.57660088  0.50981196  0.24255578  1
  O  O334  1  0.58490372  0.52152597  0.59688041  1
  O  O335  1  0.59266409  0.52470353  0.91957322  1
  O  O336  1  0.90588369  0.01043363  0.24028554  1
  O  O337  1  0.91134489  0.01629930  0.57732367  1
  O  O338  1  0.91283041  0.01036231  0.90766548  1
  O  O339  1  0.92089509  0.51603254  0.25188932  1
  O  O340  1  0.92413626  0.51633935  0.59675109  1
  O  O341  1  0.92419428  0.52863640  0.92345396  1
  O  O342  1  0.08908141  0.23515395  0.24573656  1
  O  O343  1  0.09230467  0.23701085  0.57933379  1
  O  O344  1  0.09257998  0.24304378  0.90511429  1
  O  O345  1  0.07880456  0.73623310  0.25289491  1
  O  O346  1  0.08463629  0.73956970  0.58800598  1
  O  O347  1  0.09085344  0.73431378  0.90673260  1
  O  O348  1  0.41240591  0.22425854  0.25873609  1
  O  O349  1  0.41011714  0.23760079  0.59186270  1
  O  O350  1  0.41269666  0.23507626  0.92677637  1
  O  O351  1  0.41720527  0.73179307  0.25372329  1
  O  O352  1  0.42168559  0.72839676  0.58308595  1
  O  O353  1  0.42431966  0.72900329  0.91323230  1
  O  O354  1  0.74882684  0.22543192  0.24296016  1
  O  O355  1  0.75124165  0.22746401  0.57872094  1
  O  O356  1  0.75680037  0.23535940  0.90309070  1
  O  O357  1  0.75277236  0.74179205  0.23785802  1
  O  O358  1  0.74588914  0.74128769  0.58700376  1
  O  O359  1  0.75548760  0.72573918  0.90685830  1
