# generated using pymatgen
data_Ba17Sr5La8Pr42Mn72O216
_symmetry_space_group_name_H-M   'P 1'
_cell_length_a   16.67332463
_cell_length_b   15.70276551
_cell_length_c   16.81867137
_cell_angle_alpha   90.00834024
_cell_angle_beta   90.00716538
_cell_angle_gamma   90.00368452
_symmetry_Int_Tables_number   1
_chemical_formula_structural   Ba17Sr5La8Pr42Mn72O216
_chemical_formula_sum   'Ba17 Sr5 La8 Pr42 Mn72 O216'
_cell_volume   4403.41915337
_cell_formula_units_Z   1
loop_
 _symmetry_equiv_pos_site_id
 _symmetry_equiv_pos_as_xyz
  1  'x, y, z'
loop_
 _atom_site_type_symbol
 _atom_site_label
 _atom_site_symmetry_multiplicity
 _atom_site_fract_x
 _atom_site_fract_y
 _atom_site_fract_z
 _atom_site_occupancy
  Ba  Ba0  1  0.33267592  0.12461459  0.99793632  1
  Ba  Ba1  1  0.00007024  0.87366494  0.33586342  1
  Ba  Ba2  1  0.49842398  0.62508907  0.83504264  1
  Ba  Ba3  1  0.00249056  0.87407186  0.66777101  1
  Ba  Ba4  1  -0.00055842  0.12509888  0.33036254  1
  Ba  Ba5  1  0.66484402  0.62350638  0.99862457  1
  Ba  Ba6  1  0.50302833  0.37679902  0.49956076  1
  Ba  Ba7  1  -0.00230670  0.12767961  1.00011209  1
  Ba  Ba8  1  0.16855070  0.37493438  0.49768161  1
  Ba  Ba9  1  0.50120645  0.87654022  0.17153611  1
  Ba  Ba10  1  0.66635728  0.87694515  0.66622222  1
  Ba  Ba11  1  0.83424355  0.12768197  0.16640884  1
  Ba  Ba12  1  0.33462925  0.87387995  0.33465908  1
  Ba  Ba13  1  0.00123942  0.37528655  0.33294669  1
  Ba  Ba14  1  0.66611911  0.87543487  0.33569086  1
  Ba  Ba15  1  0.49807466  0.12508993  0.16675534  1
  Ba  Ba16  1  0.83297408  0.87418927  0.50027508  1
  Sr  Sr17  1  0.49759384  0.62577895  0.50312842  1
  Sr  Sr18  1  0.83600135  0.37349356  0.16535379  1
  Sr  Sr19  1  0.00359337  0.37613760  0.00399731  1
  Sr  Sr20  1  0.66879480  0.37188163  0.33401062  1
  Sr  Sr21  1  0.33696057  0.87449236  0.66443857  1
  La  La22  1  0.83539327  0.87643375  0.16668735  1
  La  La23  1  0.66692203  0.87313617  0.00373511  1
  La  La24  1  0.16128901  0.62488443  0.16871623  1
  La  La25  1  0.00671144  0.37650419  0.66791357  1
  La  La26  1  0.83563018  0.87461979  0.82785810  1
  La  La27  1  0.83499520  0.37451074  0.49403993  1
  La  La28  1  0.50368715  0.37370006  0.83166864  1
  La  La29  1  0.66241297  0.62582498  0.66386757  1
  Pr  Pr30  1  0.66744726  0.37599147  0.66833527  1
  Pr  Pr31  1  0.50111859  0.12264857  0.83837234  1
  Pr  Pr32  1  0.33113880  0.12864140  0.32629555  1
  Pr  Pr33  1  0.33017284  0.12713564  0.66413461  1
  Pr  Pr34  1  0.50133732  0.87542812  0.83370553  1
  Pr  Pr35  1  0.83238983  0.12388511  0.49586467  1
  Pr  Pr36  1  0.66837763  0.12652057  0.33179799  1
  Pr  Pr37  1  -0.00326821  0.12521361  0.66344389  1
  Pr  Pr38  1  0.33024013  0.62879450  0.99525758  1
  Pr  Pr39  1  -0.00830418  0.62000493  0.99912901  1
  Pr  Pr40  1  0.15897861  0.12342290  0.83633475  1
  Pr  Pr41  1  -0.00755903  0.62218325  0.33550771  1
  Pr  Pr42  1  0.33824793  0.37429425  0.33541738  1
  Pr  Pr43  1  0.66630288  0.12647151  0.99999738  1
  Pr  Pr44  1  0.00348642  0.87291768  0.00342834  1
  Pr  Pr45  1  0.82813546  0.62563194  0.49803253  1
  Pr  Pr46  1  0.49672091  0.62712287  0.17010238  1
  Pr  Pr47  1  0.83697004  0.37603468  0.83249326  1
  Pr  Pr48  1  0.16388386  0.12600437  0.16812347  1
  Pr  Pr49  1  0.82969002  0.62756169  0.83431291  1
  Pr  Pr50  1  -0.00703012  0.62476010  0.66381968  1
  Pr  Pr51  1  0.83099400  0.12166078  0.83822302  1
  Pr  Pr52  1  0.49800643  0.12331796  0.49993526  1
  Pr  Pr53  1  0.66883092  0.37652835  0.00483618  1
  Pr  Pr54  1  0.16691258  0.37306534  0.16339388  1
  Pr  Pr55  1  0.82897890  0.62017275  0.17003763  1
  Pr  Pr56  1  0.33607896  0.37651277  0.00157078  1
  Pr  Pr57  1  0.16092404  0.62695422  0.83597454  1
  Pr  Pr58  1  0.32958982  0.62472807  0.66211607  1
  Pr  Pr59  1  0.33997852  0.87470032  0.00451283  1
  Pr  Pr60  1  0.17172681  0.36978426  0.83027889  1
  Pr  Pr61  1  0.16288159  0.62701024  0.50149543  1
  Pr  Pr62  1  0.33301966  0.62086198  0.33481923  1
  Pr  Pr63  1  0.50371612  0.37278537  0.16631401  1
  Pr  Pr64  1  0.66601468  0.12657175  0.66424083  1
  Pr  Pr65  1  0.66256677  0.62292984  0.33251646  1
  Pr  Pr66  1  0.17485678  0.87912887  0.82951526  1
  Pr  Pr67  1  0.16195161  0.12341776  0.49614660  1
  Pr  Pr68  1  0.16907088  0.87516491  0.49579288  1
  Pr  Pr69  1  0.16896177  0.87759903  0.16479122  1
  Pr  Pr70  1  0.33886084  0.37721088  0.66747096  1
  Pr  Pr71  1  0.50311209  0.87198428  0.49372777  1
  Mn  Mn72  1  0.00121413  -0.00322913  0.16558341  1
  Mn  Mn73  1  0.00001755  0.00148474  0.50068359  1
  Mn  Mn74  1  0.00035686  -0.00065215  0.83335603  1
  Mn  Mn75  1  0.00057724  0.50083637  0.16551745  1
  Mn  Mn76  1  -0.00002285  0.50145644  0.50150873  1
  Mn  Mn77  1  0.00145868  0.49905460  0.83395220  1
  Mn  Mn78  1  0.33185549  -0.00010335  0.16554494  1
  Mn  Mn79  1  0.33274878  0.00217184  0.50091535  1
  Mn  Mn80  1  0.33435474  -0.00045739  0.83014911  1
  Mn  Mn81  1  0.33272718  0.50058094  0.16517329  1
  Mn  Mn82  1  0.33238345  0.49934473  0.49968342  1
  Mn  Mn83  1  0.33141675  0.50021142  0.83418688  1
  Mn  Mn84  1  0.66813410  0.00030205  0.16684346  1
  Mn  Mn85  1  0.66542474  0.00366931  0.50075035  1
  Mn  Mn86  1  0.66684732  0.00150470  0.83445179  1
  Mn  Mn87  1  0.66482421  0.49880487  0.16731996  1
  Mn  Mn88  1  0.66744597  0.49944532  0.50019434  1
  Mn  Mn89  1  0.66842399  0.49714444  0.83329289  1
  Mn  Mn90  1  0.00068810  0.25278462  0.16486694  1
  Mn  Mn91  1  -0.00020275  0.24879860  0.50099862  1
  Mn  Mn92  1  -0.00071244  0.25399594  0.83160494  1
  Mn  Mn93  1  0.00003031  0.74780801  0.16684965  1
  Mn  Mn94  1  0.00059264  0.74844017  0.50128705  1
  Mn  Mn95  1  0.00083708  0.74759050  0.83601632  1
  Mn  Mn96  1  0.33185112  0.25272369  0.16611429  1
  Mn  Mn97  1  0.33360741  0.24799216  0.49770893  1
  Mn  Mn98  1  0.33389815  0.24988817  0.83121354  1
  Mn  Mn99  1  0.33197284  0.74795535  0.16484633  1
  Mn  Mn100  1  0.33223419  0.74908773  0.50226298  1
  Mn  Mn101  1  0.33211177  0.75157778  0.83157077  1
  Mn  Mn102  1  0.66608797  0.25146793  0.16730484  1
  Mn  Mn103  1  0.66739623  0.24960515  0.50062679  1
  Mn  Mn104  1  0.66914174  0.25107763  0.83312306  1
  Mn  Mn105  1  0.66716066  0.74854684  0.16669414  1
  Mn  Mn106  1  0.66506204  0.74694141  0.50013566  1
  Mn  Mn107  1  0.66634744  0.75101748  0.83340076  1
  Mn  Mn108  1  0.16705648  0.25124262  -0.00256388  1
  Mn  Mn109  1  0.16840765  0.25116347  0.33130024  1
  Mn  Mn110  1  0.16761959  0.24944098  0.66584812  1
  Mn  Mn111  1  0.16625864  0.74915563  -0.00082257  1
  Mn  Mn112  1  0.16744051  0.74670134  0.33452626  1
  Mn  Mn113  1  0.16772665  0.75045274  0.66907341  1
  Mn  Mn114  1  0.50007386  0.25119781  -0.00197529  1
  Mn  Mn115  1  0.50016172  0.25061886  0.33426425  1
  Mn  Mn116  1  0.49975232  0.24914580  0.66819472  1
  Mn  Mn117  1  0.49943849  0.75002007  0.00117189  1
  Mn  Mn118  1  0.49866181  0.74664270  0.33670865  1
  Mn  Mn119  1  0.49811295  0.75148295  0.66742598  1
  Mn  Mn120  1  0.83262880  0.25112917  -0.00183627  1
  Mn  Mn121  1  0.83250386  0.25235579  0.33259047  1
  Mn  Mn122  1  0.83376896  0.25144550  0.66598579  1
  Mn  Mn123  1  0.83419569  0.74992648  -0.00122595  1
  Mn  Mn124  1  0.83160052  0.74633088  0.33260219  1
  Mn  Mn125  1  0.83274386  0.74840037  0.66841963  1
  Mn  Mn126  1  0.16592168  -0.00143092  -0.00260343  1
  Mn  Mn127  1  0.16825066  -0.00108902  0.33260335  1
  Mn  Mn128  1  0.16884830  0.00114127  0.66582392  1
  Mn  Mn129  1  0.16807322  0.50152341  -0.00060180  1
  Mn  Mn130  1  0.16822438  0.50227537  0.33258561  1
  Mn  Mn131  1  0.16773596  0.49997185  0.66916052  1
  Mn  Mn132  1  0.50139126  0.00133997  -0.00099256  1
  Mn  Mn133  1  0.49824156  0.00213959  0.33686679  1
  Mn  Mn134  1  0.49803204  0.00131207  0.66787696  1
  Mn  Mn135  1  0.49754662  0.49784993  0.00148951  1
  Mn  Mn136  1  0.50046356  0.50072334  0.33314274  1
  Mn  Mn137  1  0.49994076  0.49961766  0.66810346  1
  Mn  Mn138  1  0.83361554  -0.00178585  -0.00219922  1
  Mn  Mn139  1  0.83228850  0.00036612  0.33290406  1
  Mn  Mn140  1  0.83385169  0.00308266  0.66899608  1
  Mn  Mn141  1  0.83320578  0.49915493  -0.00046421  1
  Mn  Mn142  1  0.83116436  0.49855263  0.33376883  1
  Mn  Mn143  1  0.83319109  0.49782818  0.66512056  1
  O  O144  1  0.16708641  0.12229327  0.02235958  1
  O  O145  1  0.17543598  0.12516828  0.34977677  1
  O  O146  1  0.17018816  0.12659004  0.69427566  1
  O  O147  1  0.17785388  0.62597568  0.02583862  1
  O  O148  1  0.17844540  0.62467855  0.35767315  1
  O  O149  1  0.17449908  0.62059208  0.69483256  1
  O  O150  1  0.50588985  0.12781170  0.00919555  1
  O  O151  1  0.49009736  0.12688495  0.35484638  1
  O  O152  1  0.49903950  0.12649085  0.69630143  1
  O  O153  1  0.49238175  0.61931374  0.02354856  1
  O  O154  1  0.49753524  0.62277092  0.35194244  1
  O  O155  1  0.49932225  0.62135422  0.67964575  1
  O  O156  1  0.82790672  0.12494837  0.01036467  1
  O  O157  1  0.82568105  0.12999818  0.34908333  1
  O  O158  1  0.83455858  0.13096027  0.69546527  1
  O  O159  1  0.83763764  0.62619540  0.02471393  1
  O  O160  1  0.82938506  0.62067675  0.35245572  1
  O  O161  1  0.83738142  0.61851147  0.69284707  1
  O  O162  1  0.17368527  0.37967024  0.30848298  1
  O  O163  1  0.16589431  0.37550484  0.65262028  1
  O  O164  1  0.17064111  0.38042123  0.97350475  1
  O  O165  1  0.16667668  0.86912293  0.31161026  1
  O  O166  1  0.16926071  0.87989406  0.63832794  1
  O  O167  1  0.15811622  0.87117525  0.97149826  1
  O  O168  1  0.49564101  0.37797215  0.31006168  1
  O  O169  1  0.49923914  0.37400457  0.65478356  1
  O  O170  1  0.49350138  0.37411382  0.97641655  1
  O  O171  1  0.50085703  0.87345843  0.33089293  1
  O  O172  1  0.49733822  0.88144005  0.63817051  1
  O  O173  1  0.49815989  0.87876931  0.98004389  1
  O  O174  1  0.83041641  0.37770302  0.31935888  1
  O  O175  1  0.82872949  0.37450959  0.63577530  1
  O  O176  1  0.82486158  0.37496404  0.97609228  1
  O  O177  1  0.83257076  0.86771422  0.31390890  1
  O  O178  1  0.83388749  0.87726565  0.65971880  1
  O  O179  1  0.83508297  0.87251725  0.97197165  1
  O  O180  1  0.00845754  0.38083153  0.17602189  1
  O  O181  1  -0.00633774  0.37602569  0.52243756  1
  O  O182  1  -0.00196020  0.37759263  0.85479012  1
  O  O183  1  0.00189683  0.86893980  0.17897156  1
  O  O184  1  0.00587668  0.87405440  0.51125328  1
  O  O185  1  -0.00490288  0.86813570  0.85925931  1
  O  O186  1  0.32518025  0.37926750  0.19286394  1
  O  O187  1  0.33245956  0.37277228  0.52367404  1
  O  O188  1  0.32442784  0.37574598  0.85788670  1
  O  O189  1  0.32406725  0.87320771  0.17709244  1
  O  O190  1  0.32759369  0.87714246  0.51811208  1
  O  O191  1  0.32695357  0.87542200  0.85976594  1
  O  O192  1  0.65809961  0.37620035  0.18527763  1
  O  O193  1  0.67416108  0.37356461  0.52525863  1
  O  O194  1  0.67341039  0.37198873  0.85993968  1
  O  O195  1  0.67365239  0.87197637  0.17750575  1
  O  O196  1  0.65661126  0.87709750  0.50979957  1
  O  O197  1  0.66981479  0.88090485  0.85606406  1
  O  O198  1  0.00886065  0.12255834  0.15624855  1
  O  O199  1  0.00422421  0.12513056  0.48931860  1
  O  O200  1  0.00260564  0.13189641  0.80882588  1
  O  O201  1  0.00102137  0.62582858  0.14128876  1
  O  O202  1  0.00654662  0.62487494  0.48300621  1
  O  O203  1  0.00526405  0.62183387  0.80695866  1
  O  O204  1  0.32619410  0.12660500  0.15437547  1
  O  O205  1  0.33651385  0.12608293  0.47120382  1
  O  O206  1  0.34124387  0.12404490  0.80821248  1
  O  O207  1  0.33781789  0.62226640  0.13691578  1
  O  O208  1  0.32945806  0.62275118  0.48080824  1
  O  O209  1  0.32856550  0.62601386  0.80682378  1
  O  O210  1  0.66668221  0.12817077  0.14403037  1
  O  O211  1  0.66905204  0.12828230  0.47858406  1
  O  O212  1  0.66625890  0.12817475  0.80741335  1
  O  O213  1  0.66765875  0.62284083  0.15286609  1
  O  O214  1  0.67165787  0.62107513  0.47967469  1
  O  O215  1  0.67213642  0.61893548  0.81031979  1
  O  O216  1  0.09146076  0.00768686  0.24204960  1
  O  O217  1  0.08343429  0.02399090  0.58823204  1
  O  O218  1  0.08275082  0.01472954  0.91546978  1
  O  O219  1  0.08090852  0.52490809  0.25460408  1
  O  O220  1  0.07756915  0.51891632  0.59482433  1
  O  O221  1  0.08185137  0.52573020  0.92488908  1
  O  O222  1  0.41195011  0.01292266  0.25905347  1
  O  O223  1  0.41355123  0.02894823  0.58738034  1
  O  O224  1  0.42240754  0.01091565  0.90856815  1
  O  O225  1  0.41221293  0.52322353  0.24878798  1
  O  O226  1  0.40625911  0.51178919  0.59188848  1
  O  O227  1  0.40363228  0.51291218  0.92875985  1
  O  O228  1  0.74572397  0.01422730  0.25178440  1
  O  O229  1  0.74818822  0.02428959  0.58652255  1
  O  O230  1  0.74437378  0.02153187  0.91977648  1
  O  O231  1  0.74511443  0.51864397  0.25297076  1
  O  O232  1  0.74937823  0.52408017  0.58748762  1
  O  O233  1  0.75557005  0.51489383  0.90894740  1
  O  O234  1  0.24641936  0.23255623  0.24385537  1
  O  O235  1  0.24739164  0.22459087  0.57662828  1
  O  O236  1  0.24425956  0.23319527  0.90533237  1
  O  O237  1  0.24756920  0.72652792  0.24387442  1
  O  O238  1  0.24638768  0.72707194  0.58136822  1
  O  O239  1  0.24257959  0.72957297  0.90990192  1
  O  O240  1  0.58218413  0.23615144  0.25263777  1
  O  O241  1  0.58355245  0.22834746  0.58510261  1
  O  O242  1  0.58685511  0.23268307  0.91280891  1
  O  O243  1  0.58136707  0.72817406  0.25149269  1
  O  O244  1  0.58386157  0.73297335  0.58479467  1
  O  O245  1  0.58211396  0.74806166  0.91666573  1
  O  O246  1  0.91559959  0.24858127  0.24772214  1
  O  O247  1  0.91304164  0.22669545  0.58502534  1
  O  O248  1  0.90715164  0.23971736  0.90266556  1
  O  O249  1  0.91155672  0.72362197  0.24630027  1
  O  O250  1  0.91445933  0.72768150  0.58285781  1
  O  O251  1  0.91646826  0.72197518  0.91606994  1
  O  O252  1  0.09489443  0.48899121  0.08871122  1
  O  O253  1  0.08755053  0.49789742  0.42049706  1
  O  O254  1  0.09055545  0.47886782  0.75749742  1
  O  O255  1  0.08514231  0.97550386  0.08197626  1
  O  O256  1  0.09094659  0.99028615  0.42314832  1
  O  O257  1  0.09358872  0.98618331  0.75696737  1
  O  O258  1  0.41919618  0.47163355  0.09021725  1
  O  O259  1  0.41535444  0.48720262  0.41127354  1
  O  O260  1  0.41782594  0.47707289  0.75933388  1
  O  O261  1  0.41361600  0.98726932  0.07862646  1
  O  O262  1  0.42219138  0.98599697  0.43029311  1
  O  O263  1  0.41902121  0.97743288  0.75150216  1
  O  O264  1  0.74797927  0.48268040  0.08368599  1
  O  O265  1  0.75596041  0.48466373  0.42553220  1
  O  O266  1  0.75285470  0.47321841  0.74759141  1
  O  O267  1  0.75702596  0.97697586  0.08085659  1
  O  O268  1  0.74870841  0.99897356  0.41920337  1
  O  O269  1  0.75602304  0.99201893  0.75914786  1
  O  O270  1  0.25207833  0.27454014  0.07973527  1
  O  O271  1  0.25970783  0.26433599  0.40481034  1
  O  O272  1  0.25550185  0.26958769  0.74313384  1
  O  O273  1  0.25218334  0.77149311  0.07322939  1
  O  O274  1  0.24797706  0.76272119  0.42122288  1
  O  O275  1  0.25256071  0.77259142  0.74784270  1
  O  O276  1  0.58327018  0.27261653  0.08091683  1
  O  O277  1  0.58736251  0.25669026  0.41464223  1
  O  O278  1  0.58962782  0.27254982  0.75125486  1
  O  O279  1  0.58660297  0.76153804  0.08203455  1
  O  O280  1  0.58050060  0.75428405  0.42212885  1
  O  O281  1  0.58103407  0.76544818  0.75342329  1
  O  O282  1  0.91648833  0.26571863  0.07713313  1
  O  O283  1  0.91201189  0.25925154  0.42292983  1
  O  O284  1  0.92004259  0.27790268  0.74270231  1
  O  O285  1  0.91932517  0.77018151  0.07608712  1
  O  O286  1  0.91801689  0.74598296  0.41337474  1
  O  O287  1  0.91648025  0.75753470  0.75630978  1
  O  O288  1  0.25570507  0.47763672  0.07720902  1
  O  O289  1  0.25897476  0.48530428  0.40576281  1
  O  O290  1  0.25567399  0.47633577  0.74518754  1
  O  O291  1  0.24722443  0.97598385  0.07627181  1
  O  O292  1  0.24660252  0.98739905  0.42124212  1
  O  O293  1  0.25401111  0.98284814  0.74535073  1
  O  O294  1  0.58147726  0.47691709  0.08179939  1
  O  O295  1  0.59233281  0.49127105  0.40902904  1
  O  O296  1  0.58907707  0.47724102  0.74997884  1
  O  O297  1  0.59214758  0.98788568  0.07615819  1
  O  O298  1  0.57610571  0.99783355  0.42722641  1
  O  O299  1  0.57821461  0.98612285  0.75811217  1
  O  O300  1  0.91982903  0.48899861  0.07920938  1
  O  O301  1  0.91688522  0.49422766  0.41864342  1
  O  O302  1  0.91886078  0.47592966  0.74266697  1
  O  O303  1  0.92085506  0.97756381  0.07732482  1
  O  O304  1  0.91400231  0.99886463  0.41982962  1
  O  O305  1  0.91963970  0.99143839  0.75120806  1
  O  O306  1  0.09028132  0.26680468  0.08350399  1
  O  O307  1  0.09033877  0.25424416  0.41774105  1
  O  O308  1  0.08578305  0.27161850  0.75276422  1
  O  O309  1  0.09156889  0.76789402  0.08780246  1
  O  O310  1  0.09223342  0.75860885  0.42866587  1
  O  O311  1  0.09242697  0.76467676  0.76472290  1
  O  O312  1  0.41567349  0.27311036  0.08656900  1
  O  O313  1  0.41697129  0.26740789  0.41604236  1
  O  O314  1  0.41527971  0.27324748  0.74976903  1
  O  O315  1  0.41468400  0.76381774  0.08328665  1
  O  O316  1  0.41954425  0.75939652  0.42691375  1
  O  O317  1  0.41956459  0.77263244  0.75828557  1
  O  O318  1  0.74550996  0.26791414  0.07899862  1
  O  O319  1  0.75335176  0.26486321  0.42379377  1
  O  O320  1  0.75319748  0.27575852  0.75054447  1
  O  O321  1  0.75541777  0.76849127  0.08139170  1
  O  O322  1  0.74996020  0.75074275  0.41740066  1
  O  O323  1  0.75328901  0.75851962  0.75389765  1
  O  O324  1  0.24782110  0.01765250  0.24692522  1
  O  O325  1  0.24838481  0.02896171  0.58078145  1
  O  O326  1  0.24254317  0.01468944  0.90581286  1
  O  O327  1  0.24790534  0.52653329  0.24262503  1
  O  O328  1  0.24325925  0.52127329  0.58185483  1
  O  O329  1  0.24457484  0.52516754  0.91091935  1
  O  O330  1  0.58427148  0.01740870  0.26021486  1
  O  O331  1  0.58211924  0.02828549  0.58773904  1
  O  O332  1  0.58558081  0.02161635  0.91535776  1
  O  O333  1  0.57701383  0.52147492  0.24482987  1
  O  O334  1  0.58859640  0.51305151  0.58506255  1
  O  O335  1  0.58021526  0.50068677  0.91544821  1
  O  O336  1  0.91469799  0.00022815  0.24358334  1
  O  O337  1  0.91449687  0.02312162  0.58501774  1
  O  O338  1  0.90777435  0.01282404  0.90877844  1
  O  O339  1  0.91379231  0.52108533  0.24794462  1
  O  O340  1  0.91271014  0.52287085  0.58190535  1
  O  O341  1  0.91457271  0.52137442  0.91124384  1
  O  O342  1  0.09122536  0.24146852  0.24391242  1
  O  O343  1  0.08047730  0.23140995  0.59020274  1
  O  O344  1  0.08625459  0.23837289  0.91108983  1
  O  O345  1  0.08016277  0.72207771  0.25870119  1
  O  O346  1  0.08120733  0.72563631  0.59296992  1
  O  O347  1  0.07733844  0.72218224  0.92613584  1
  O  O348  1  0.40852257  0.24239734  0.25521761  1
  O  O349  1  0.41243072  0.22686720  0.58412683  1
  O  O350  1  0.42136647  0.23917782  0.90837378  1
  O  O351  1  0.41397738  0.72734091  0.25202106  1
  O  O352  1  0.40822816  0.73330775  0.59075331  1
  O  O353  1  0.40557842  0.73904302  0.92349475  1
  O  O354  1  0.74237134  0.23888903  0.25593147  1
  O  O355  1  0.74899518  0.22566702  0.58755129  1
  O  O356  1  0.74741775  0.22619743  0.91463064  1
  O  O357  1  0.74956194  0.72542565  0.24885177  1
  O  O358  1  0.74817212  0.72783451  0.58412414  1
  O  O359  1  0.75522489  0.73586097  0.91275276  1
