# generated using pymatgen
data_Ba17Sr5La8Pr42Mn72O216
_symmetry_space_group_name_H-M   'P 1'
_cell_length_a   16.67454569
_cell_length_b   15.69896512
_cell_length_c   16.82070377
_cell_angle_alpha   90.00613108
_cell_angle_beta   89.98393509
_cell_angle_gamma   89.96944370
_symmetry_Int_Tables_number   1
_chemical_formula_structural   Ba17Sr5La8Pr42Mn72O216
_chemical_formula_sum   'Ba17 Sr5 La8 Pr42 Mn72 O216'
_cell_volume   4403.20713418
_cell_formula_units_Z   1
loop_
 _symmetry_equiv_pos_site_id
 _symmetry_equiv_pos_as_xyz
  1  'x, y, z'
loop_
 _atom_site_type_symbol
 _atom_site_label
 _atom_site_symmetry_multiplicity
 _atom_site_fract_x
 _atom_site_fract_y
 _atom_site_fract_z
 _atom_site_occupancy
  Ba  Ba0  1  0.49738066  0.87646432  0.83217049  1
  Ba  Ba1  1  0.33508123  0.62381753  1.00181376  1
  Ba  Ba2  1  -0.00301208  0.87444417  0.33188626  1
  Ba  Ba3  1  0.32996825  0.37559163  0.00280110  1
  Ba  Ba4  1  0.33445788  0.87651703  0.33445085  1
  Ba  Ba5  1  0.83038693  0.12528057  0.16388965  1
  Ba  Ba6  1  0.33381437  0.37311456  0.33569538  1
  Ba  Ba7  1  0.16190638  0.12592286  0.83375591  1
  Ba  Ba8  1  0.50253490  0.62585732  0.83467652  1
  Ba  Ba9  1  -0.00026219  0.37554468  0.33273902  1
  Ba  Ba10  1  0.66481425  0.12660054  0.99819434  1
  Ba  Ba11  1  0.16931735  0.62608206  0.50245331  1
  Ba  Ba12  1  0.83426063  0.87338064  0.83145590  1
  Ba  Ba13  1  0.16416044  0.12426735  0.50431810  1
  Ba  Ba14  1  0.50674045  0.62523236  0.50011516  1
  Ba  Ba15  1  0.33165337  0.12300797  0.33568935  1
  Ba  Ba16  1  0.33421042  0.37521681  0.66865853  1
  Sr  Sr17  1  -0.00338942  0.87647906  0.00208604  1
  Sr  Sr18  1  0.16778079  0.37426901  0.16905609  1
  Sr  Sr19  1  0.83357133  0.12663160  0.49793273  1
  Sr  Sr20  1  0.00435100  0.62562383  0.99931109  1
  Sr  Sr21  1  -0.00484323  0.12424124  0.66428424  1
  La  La22  1  0.83409207  0.37619725  0.83215811  1
  La  La23  1  0.66997588  0.62560631  0.99545455  1
  La  La24  1  0.83290905  0.87796383  0.49814570  1
  La  La25  1  0.34235294  0.62549038  0.33175208  1
  La  La26  1  0.83152971  0.12465423  0.83471085  1
  La  La27  1  0.49819886  0.12716487  0.16901148  1
  La  La28  1  0.32760474  0.12549689  1.00058780  1
  La  La29  1  0.16187573  0.87663530  0.49917504  1
  Pr  Pr30  1  0.49362352  0.12791716  0.83504760  1
  Pr  Pr31  1  -0.00151591  0.12463635  0.33253719  1
  Pr  Pr32  1  -0.00604220  0.12401333  0.99538750  1
  Pr  Pr33  1  0.49825857  0.37581157  0.83373047  1
  Pr  Pr34  1  0.67464275  0.62386776  0.32678569  1
  Pr  Pr35  1  0.00351916  0.62760384  0.66690610  1
  Pr  Pr36  1  0.84011054  0.62361529  0.49641050  1
  Pr  Pr37  1  0.16682651  0.87500112  0.16571677  1
  Pr  Pr38  1  0.66004971  0.37399317  0.00004960  1
  Pr  Pr39  1  0.66616355  0.12118806  0.66376666  1
  Pr  Pr40  1  0.65937159  0.87583951  0.00007238  1
  Pr  Pr41  1  0.49404150  0.37214328  0.16587335  1
  Pr  Pr42  1  0.49736359  0.12524060  0.49923530  1
  Pr  Pr43  1  0.17228517  0.62279600  0.83815248  1
  Pr  Pr44  1  0.01103669  0.62558290  0.32825025  1
  Pr  Pr45  1  0.83950022  0.62437237  0.83461674  1
  Pr  Pr46  1  0.66707982  0.12574082  0.32583505  1
  Pr  Pr47  1  0.66676429  0.37603075  0.66484776  1
  Pr  Pr48  1  0.00424336  0.37420204  0.66566381  1
  Pr  Pr49  1  0.67413638  0.62886906  0.66288555  1
  Pr  Pr50  1  0.16595480  0.37827392  0.83642557  1
  Pr  Pr51  1  0.49980170  0.87586277  0.49728665  1
  Pr  Pr52  1  0.16260353  0.87155829  0.83584073  1
  Pr  Pr53  1  0.83453145  0.37214535  0.49543705  1
  Pr  Pr54  1  0.16095087  0.12693872  0.17195803  1
  Pr  Pr55  1  0.66747033  0.87769493  0.33103668  1
  Pr  Pr56  1  0.32617242  0.87165653  0.66945680  1
  Pr  Pr57  1  0.32655861  0.87236760  0.00215276  1
  Pr  Pr58  1  0.84656019  0.62455220  0.16681447  1
  Pr  Pr59  1  0.49965271  0.37554899  0.49636497  1
  Pr  Pr60  1  0.33111316  0.12109282  0.66175129  1
  Pr  Pr61  1  0.66529276  0.87396076  0.66758128  1
  Pr  Pr62  1  0.83161749  0.37629942  0.16016820  1
  Pr  Pr63  1  0.34532126  0.62540077  0.66655434  1
  Pr  Pr64  1  0.66821021  0.37229584  0.33390307  1
  Pr  Pr65  1  0.17235479  0.62299805  0.17192390  1
  Pr  Pr66  1  0.49080821  0.87816687  0.16160867  1
  Pr  Pr67  1  0.00154217  0.37166386  0.00570596  1
  Pr  Pr68  1  0.50350728  0.62202012  0.17059491  1
  Pr  Pr69  1  0.00168495  0.87729158  0.66847521  1
  Pr  Pr70  1  0.16570935  0.37254155  0.49611396  1
  Pr  Pr71  1  0.82968466  0.87465814  0.15563111  1
  Mn  Mn72  1  -0.00272960  -0.00058540  0.16542950  1
  Mn  Mn73  1  -0.00363032  0.00015910  0.50151069  1
  Mn  Mn74  1  -0.00127842  -0.00075651  0.83287918  1
  Mn  Mn75  1  0.00131940  0.49997317  0.16592379  1
  Mn  Mn76  1  -0.00015934  0.50150684  0.50139277  1
  Mn  Mn77  1  0.00090325  0.49972862  0.83465412  1
  Mn  Mn78  1  0.33036107  -0.00012995  0.16482530  1
  Mn  Mn79  1  0.33466551  -0.00156488  0.50308774  1
  Mn  Mn80  1  0.32990930  0.00055407  0.83332254  1
  Mn  Mn81  1  0.33431144  0.50032209  0.16933114  1
  Mn  Mn82  1  0.33536158  0.50084733  0.50254427  1
  Mn  Mn83  1  0.33412636  0.49914047  0.83435223  1
  Mn  Mn84  1  0.66414477  -0.00097085  0.16663699  1
  Mn  Mn85  1  0.66806003  0.00104824  0.49780720  1
  Mn  Mn86  1  0.66602110  0.00036870  0.83045788  1
  Mn  Mn87  1  0.66752350  0.49933375  0.16343449  1
  Mn  Mn88  1  0.67100290  0.49946428  0.49847334  1
  Mn  Mn89  1  0.66830272  0.49879505  0.83109329  1
  Mn  Mn90  1  -0.00176079  0.24954634  0.16641153  1
  Mn  Mn91  1  -0.00246228  0.24991896  0.50189796  1
  Mn  Mn92  1  -0.00192692  0.25277632  0.83298943  1
  Mn  Mn93  1  0.00048173  0.75072267  0.16511750  1
  Mn  Mn94  1  -0.00200995  0.74916941  0.50014141  1
  Mn  Mn95  1  0.00097844  0.74935342  0.83375048  1
  Mn  Mn96  1  0.33096160  0.24847786  0.16776668  1
  Mn  Mn97  1  0.33388167  0.24964885  0.50410386  1
  Mn  Mn98  1  0.33108721  0.24948737  0.83352076  1
  Mn  Mn99  1  0.33438841  0.74973254  0.16787274  1
  Mn  Mn100  1  0.33618931  0.75018873  0.50184719  1
  Mn  Mn101  1  0.33200484  0.75116080  0.83515821  1
  Mn  Mn102  1  0.66520797  0.25256091  0.16640576  1
  Mn  Mn103  1  0.66719901  0.24827767  0.49958492  1
  Mn  Mn104  1  0.66635430  0.25248554  0.82983830  1
  Mn  Mn105  1  0.66637675  0.74883194  0.16421650  1
  Mn  Mn106  1  0.67120560  0.75136542  0.49642151  1
  Mn  Mn107  1  0.66848664  0.74958596  0.83105424  1
  Mn  Mn108  1  0.16304072  0.24887829  0.00387092  1
  Mn  Mn109  1  0.16495204  0.24938905  0.33555336  1
  Mn  Mn110  1  0.16575631  0.25168462  0.66898856  1
  Mn  Mn111  1  0.16370351  0.74935442  0.00141909  1
  Mn  Mn112  1  0.16850712  0.75159073  0.33524390  1
  Mn  Mn113  1  0.16660997  0.74881787  0.66995627  1
  Mn  Mn114  1  0.49727745  0.24835526  -0.00027939  1
  Mn  Mn115  1  0.50212063  0.25003128  0.33468758  1
  Mn  Mn116  1  0.50273970  0.24865197  0.66712825  1
  Mn  Mn117  1  0.50042187  0.75118730  0.00254752  1
  Mn  Mn118  1  0.50558945  0.75110579  0.33244195  1
  Mn  Mn119  1  0.50339793  0.75077990  0.66535694  1
  Mn  Mn120  1  0.83221204  0.25224208  -0.00366810  1
  Mn  Mn121  1  0.83249347  0.24979102  0.33224722  1
  Mn  Mn122  1  0.83309073  0.25252165  0.66531125  1
  Mn  Mn123  1  0.83179517  0.74781221  -0.00166990  1
  Mn  Mn124  1  0.83307883  0.74968706  0.32989936  1
  Mn  Mn125  1  0.83572019  0.74821400  0.66288463  1
  Mn  Mn126  1  0.16250499  -0.00065880  0.00248823  1
  Mn  Mn127  1  0.16378472  -0.00054646  0.33416283  1
  Mn  Mn128  1  0.16580576  -0.00189491  0.66926325  1
  Mn  Mn129  1  0.16425351  0.50109148  0.00300922  1
  Mn  Mn130  1  0.16903913  0.49929019  0.33646856  1
  Mn  Mn131  1  0.16680418  0.50085968  0.66902723  1
  Mn  Mn132  1  0.49690275  0.00095604  -0.00171462  1
  Mn  Mn133  1  0.50257071  -0.00088052  0.33265519  1
  Mn  Mn134  1  0.50064192  0.00057605  0.66511603  1
  Mn  Mn135  1  0.50193516  0.49932146  0.00228465  1
  Mn  Mn136  1  0.50478068  0.49981571  0.33422513  1
  Mn  Mn137  1  0.50418804  0.49914271  0.66650972  1
  Mn  Mn138  1  0.83082622  -0.00062144  -0.00303037  1
  Mn  Mn139  1  0.83214109  0.00000955  0.33165657  1
  Mn  Mn140  1  0.83341288  0.00173253  0.66383732  1
  Mn  Mn141  1  0.83367773  0.50107037  -0.00188499  1
  Mn  Mn142  1  0.83436744  0.50012111  0.33090917  1
  Mn  Mn143  1  0.83473850  0.49960290  0.66457548  1
  O  O144  1  0.15769799  0.12165258  0.02609040  1
  O  O145  1  0.15607730  0.12256138  0.34533020  1
  O  O146  1  0.17253954  0.12140576  0.67767377  1
  O  O147  1  0.16130816  0.62744229  0.02598447  1
  O  O148  1  0.16224990  0.62652571  0.34396570  1
  O  O149  1  0.15600365  0.62599013  0.69564814  1
  O  O150  1  0.49476335  0.12371807  0.02355848  1
  O  O151  1  0.51113299  0.12636813  0.35468465  1
  O  O152  1  0.50784531  0.12454265  0.69255798  1
  O  O153  1  0.50863324  0.62630608  0.02552290  1
  O  O154  1  0.50521942  0.62605364  0.34408318  1
  O  O155  1  0.50532330  0.62456559  0.67756268  1
  O  O156  1  0.83664696  0.12725550  0.00572386  1
  O  O157  1  0.82462194  0.12742821  0.34890644  1
  O  O158  1  0.82993102  0.13232898  0.69209843  1
  O  O159  1  0.82226177  0.62288921  0.02234837  1
  O  O160  1  0.82432868  0.62475701  0.35371329  1
  O  O161  1  0.82770650  0.62163764  0.69169644  1
  O  O162  1  0.16732748  0.37497071  0.32096649  1
  O  O163  1  0.16183071  0.38049066  0.64099981  1
  O  O164  1  0.15820717  0.37560489  0.98139551  1
  O  O165  1  0.16657554  0.87539534  0.31146829  1
  O  O166  1  0.17005757  0.87147227  0.64468616  1
  O  O167  1  0.17096344  0.87433546  0.97911214  1
  O  O168  1  0.50871672  0.37562175  0.30998154  1
  O  O169  1  0.50895561  0.37216645  0.63953804  1
  O  O170  1  0.50510374  0.37226302  0.97890884  1
  O  O171  1  0.51059974  0.87256994  0.30517868  1
  O  O172  1  0.50802619  0.87754626  0.64128781  1
  O  O173  1  0.50458068  0.87701299  0.98845965  1
  O  O174  1  0.82924909  0.37721386  0.30458115  1
  O  O175  1  0.83311388  0.37787405  0.63674180  1
  O  O176  1  0.84314431  0.37843989  0.97834704  1
  O  O177  1  0.82789054  0.86980135  0.30151163  1
  O  O178  1  0.83785128  0.87042652  0.64126082  1
  O  O179  1  0.83046598  0.87192474  0.99078260  1
  O  O180  1  -0.01271895  0.37608529  0.17637914  1
  O  O181  1  -0.00466778  0.37813076  0.52142843  1
  O  O182  1  -0.00171198  0.37803823  0.86187002  1
  O  O183  1  -0.01374424  0.87322336  0.17673879  1
  O  O184  1  -0.00844707  0.87164244  0.52301439  1
  O  O185  1  0.00448419  0.87181790  0.85279097  1
  O  O186  1  0.33823045  0.37699275  0.17801672  1
  O  O187  1  0.34081208  0.37390200  0.51195795  1
  O  O188  1  0.33792987  0.37274358  0.84534412  1
  O  O189  1  0.33212268  0.87441817  0.17839928  1
  O  O190  1  0.34489347  0.87502319  0.52431933  1
  O  O191  1  0.32611923  0.87720932  0.85831633  1
  O  O192  1  0.67103495  0.37812994  0.19048449  1
  O  O193  1  0.67178615  0.37250848  0.52298001  1
  O  O194  1  0.66405043  0.37609800  0.85615258  1
  O  O195  1  0.67345110  0.87184842  0.18797817  1
  O  O196  1  0.67544910  0.87719181  0.52515349  1
  O  O197  1  0.66738497  0.87470976  0.85371244  1
  O  O198  1  0.00754762  0.12486780  0.13980636  1
  O  O199  1  -0.00282570  0.12464465  0.47898640  1
  O  O200  1  -0.00659519  0.12882898  0.81472234  1
  O  O201  1  0.00431460  0.62583027  0.14992726  1
  O  O202  1  -0.00555921  0.62572178  0.47214439  1
  O  O203  1  0.00086430  0.62245117  0.80863349  1
  O  O204  1  0.33485621  0.12087981  0.14542671  1
  O  O205  1  0.33778934  0.12281267  0.49352204  1
  O  O206  1  0.33592354  0.12498584  0.80642047  1
  O  O207  1  0.33656848  0.62646871  0.15836370  1
  O  O208  1  0.33596921  0.62742652  0.47732540  1
  O  O209  1  0.32490013  0.62619167  0.81211483  1
  O  O210  1  0.65869781  0.12622454  0.15530863  1
  O  O211  1  0.66297920  0.12445155  0.46876427  1
  O  O212  1  0.66974738  0.12927975  0.80845328  1
  O  O213  1  0.65609430  0.62209223  0.13732412  1
  O  O214  1  0.67463091  0.62609126  0.47018097  1
  O  O215  1  0.67210774  0.62135066  0.80782818  1
  O  O216  1  0.07714204  0.01795016  0.24922153  1
  O  O217  1  0.07832062  0.00058822  0.59109047  1
  O  O218  1  0.07439715  0.01356132  0.92609827  1
  O  O219  1  0.08940165  0.51624445  0.24521773  1
  O  O220  1  0.07869895  0.51644923  0.59048578  1
  O  O221  1  0.08915636  0.51804268  0.91013051  1
  O  O222  1  0.42135464  0.01141362  0.24049450  1
  O  O223  1  0.42235967  0.02197102  0.58281145  1
  O  O224  1  0.41360597  0.02278501  0.91186897  1
  O  O225  1  0.42423136  0.51713013  0.25019688  1
  O  O226  1  0.42049147  0.51284116  0.58605282  1
  O  O227  1  0.42481925  0.50518182  0.91685328  1
  O  O228  1  0.74208356  0.01157903  0.25447387  1
  O  O229  1  0.74626433  0.02162452  0.58148908  1
  O  O230  1  0.74992865  0.01386830  0.90949637  1
  O  O231  1  0.75593632  0.52286070  0.23593577  1
  O  O232  1  0.75774421  0.52253313  0.57541731  1
  O  O233  1  0.75850163  0.51544383  0.90516419  1
  O  O234  1  0.24370998  0.23507994  0.24656567  1
  O  O235  1  0.25363234  0.24002858  0.58994532  1
  O  O236  1  0.24575618  0.23571933  0.92363144  1
  O  O237  1  0.25679198  0.73053074  0.25480813  1
  O  O238  1  0.25937672  0.73441998  0.60052574  1
  O  O239  1  0.24729714  0.73556489  0.91698895  1
  O  O240  1  0.58098813  0.23442634  0.24958919  1
  O  O241  1  0.58064669  0.22535533  0.57796246  1
  O  O242  1  0.57236013  0.23738887  0.90588136  1
  O  O243  1  0.59515388  0.72794111  0.25445595  1
  O  O244  1  0.59981608  0.73871264  0.58758746  1
  O  O245  1  0.59323221  0.73958267  0.93107064  1
  O  O246  1  0.91883165  0.23121092  0.25251018  1
  O  O247  1  0.91049304  0.23838842  0.58049197  1
  O  O248  1  0.91069612  0.23501440  0.90846366  1
  O  O249  1  0.92289578  0.72379533  0.25746541  1
  O  O250  1  0.91925886  0.72126841  0.58459205  1
  O  O251  1  0.91802415  0.72925853  0.91519160  1
  O  O252  1  0.07327656  0.48243963  0.07702648  1
  O  O253  1  0.08345204  0.48669377  0.42212667  1
  O  O254  1  0.07958781  0.47380794  0.75024606  1
  O  O255  1  0.08597548  0.97710120  0.09055258  1
  O  O256  1  0.08224682  0.98249970  0.42500517  1
  O  O257  1  0.08511468  0.97718379  0.75435811  1
  O  O258  1  0.42325498  0.49005091  0.09067304  1
  O  O259  1  0.42477037  0.48741120  0.41693172  1
  O  O260  1  0.41985031  0.49154231  0.75096648  1
  O  O261  1  0.40942528  0.98008096  0.07669237  1
  O  O262  1  0.42622446  0.98806986  0.42115062  1
  O  O263  1  0.40866577  0.98603219  0.73906305  1
  O  O264  1  0.74235565  0.47511119  0.07435960  1
  O  O265  1  0.74663783  0.47693173  0.40830256  1
  O  O266  1  0.74768512  0.47674673  0.74101396  1
  O  O267  1  0.74414621  0.98128114  0.08261430  1
  O  O268  1  0.74970765  0.97669429  0.41449260  1
  O  O269  1  0.74754493  0.98720478  0.74066234  1
  O  O270  1  0.24658710  0.25223782  0.08582108  1
  O  O271  1  0.24709600  0.26089274  0.42426166  1
  O  O272  1  0.24430191  0.26717348  0.75754860  1
  O  O273  1  0.24427688  0.76745845  0.08792007  1
  O  O274  1  0.24667226  0.76909862  0.42876606  1
  O  O275  1  0.24316317  0.77166437  0.75731597  1
  O  O276  1  0.58366326  0.27127432  0.08327579  1
  O  O277  1  0.58737833  0.27471599  0.41573553  1
  O  O278  1  0.59068405  0.27268909  0.74228161  1
  O  O279  1  0.57604360  0.77369211  0.09421582  1
  O  O280  1  0.58471064  0.77617583  0.42018903  1
  O  O281  1  0.58606114  0.76450725  0.74783602  1
  O  O282  1  0.91695966  0.26552851  0.07917663  1
  O  O283  1  0.91183575  0.26389433  0.41862098  1
  O  O284  1  0.91923542  0.27794417  0.74660829  1
  O  O285  1  0.90386671  0.75568470  0.09255246  1
  O  O286  1  0.90325523  0.76335776  0.42411980  1
  O  O287  1  0.92163832  0.75788376  0.74370198  1
  O  O288  1  0.24063684  0.49504861  0.09454262  1
  O  O289  1  0.24568801  0.48487655  0.42787445  1
  O  O290  1  0.23857188  0.48657367  0.75998385  1
  O  O291  1  0.24736569  0.97843300  0.08234499  1
  O  O292  1  0.24776606  0.98416803  0.42684960  1
  O  O293  1  0.24578492  0.97483574  0.75499537  1
  O  O294  1  0.58022027  0.47205454  0.08966925  1
  O  O295  1  0.58560788  0.47629989  0.41984290  1
  O  O296  1  0.58141677  0.47520123  0.75426419  1
  O  O297  1  0.57969116  0.98017049  0.08833473  1
  O  O298  1  0.58764092  0.97369303  0.41762175  1
  O  O299  1  0.58909957  0.98556204  0.74030643  1
  O  O300  1  0.90651569  0.49012249  0.09142989  1
  O  O301  1  0.90735254  0.48689526  0.42776549  1
  O  O302  1  0.91350802  0.47957264  0.75154681  1
  O  O303  1  0.91312491  0.98866853  0.08370419  1
  O  O304  1  0.91046598  0.98770289  0.41828267  1
  O  O305  1  0.92330981  0.98585903  0.74309830  1
  O  O306  1  0.08193664  0.27036714  0.08767112  1
  O  O307  1  0.08457971  0.26522555  0.42488904  1
  O  O308  1  0.08393795  0.27615424  0.75670803  1
  O  O309  1  0.08107720  0.77215306  0.08230977  1
  O  O310  1  0.08182686  0.76469351  0.42094777  1
  O  O311  1  0.08224611  0.77362946  0.74876690  1
  O  O312  1  0.42210808  0.26014826  0.09018917  1
  O  O313  1  0.42819724  0.25862761  0.42665634  1
  O  O314  1  0.43086451  0.26189949  0.75911497  1
  O  O315  1  0.41305974  0.77073196  0.08084241  1
  O  O316  1  0.42374079  0.76548723  0.41558927  1
  O  O317  1  0.40614291  0.76203378  0.74398979  1
  O  O318  1  0.75014315  0.27359324  0.08188152  1
  O  O319  1  0.75092532  0.27291364  0.41751517  1
  O  O320  1  0.75445806  0.27791074  0.74925097  1
  O  O321  1  0.73636455  0.76781076  0.07359175  1
  O  O322  1  0.74346855  0.77175806  0.40396640  1
  O  O323  1  0.74553095  0.76344058  0.73342943  1
  O  O324  1  0.24259233  0.01275675  0.24083846  1
  O  O325  1  0.25869225  0.00432951  0.59500281  1
  O  O326  1  0.25063428  0.01765312  0.92557882  1
  O  O327  1  0.25748887  0.52074128  0.25798882  1
  O  O328  1  0.25657118  0.52133070  0.59853494  1
  O  O329  1  0.24740306  0.51042957  0.91819692  1
  O  O330  1  0.58347934  0.01830284  0.25096769  1
  O  O331  1  0.58353436  0.02228113  0.57759174  1
  O  O332  1  0.57765429  0.01693489  0.91052200  1
  O  O333  1  0.59179744  0.51975631  0.25233680  1
  O  O334  1  0.59899945  0.51170432  0.59230841  1
  O  O335  1  0.59515860  0.51126623  0.92866442  1
  O  O336  1  0.91826053  0.01918548  0.25384133  1
  O  O337  1  0.91213347  0.01507095  0.58023968  1
  O  O338  1  0.91500928  0.01744797  0.91177013  1
  O  O339  1  0.92376361  0.52460836  0.25605404  1
  O  O340  1  0.92052994  0.52604892  0.58845784  1
  O  O341  1  0.91917780  0.52255782  0.91632959  1
  O  O342  1  0.07863461  0.23077165  0.25111718  1
  O  O343  1  0.07588854  0.24511894  0.59228782  1
  O  O344  1  0.07002973  0.23789200  0.92891133  1
  O  O345  1  0.08858969  0.73626595  0.24373347  1
  O  O346  1  0.08051039  0.73898916  0.59061787  1
  O  O347  1  0.08845367  0.73175210  0.90995481  1
  O  O348  1  0.42058185  0.23636165  0.24944055  1
  O  O349  1  0.41780150  0.22649518  0.59139276  1
  O  O350  1  0.41014942  0.22627136  0.92014871  1
  O  O351  1  0.42723266  0.73418350  0.24501540  1
  O  O352  1  0.41971870  0.73705012  0.58459020  1
  O  O353  1  0.41698796  0.74451273  0.91807605  1
  O  O354  1  0.74163581  0.24025858  0.25588219  1
  O  O355  1  0.74193735  0.23127765  0.58774358  1
  O  O356  1  0.74887903  0.24454068  0.91152129  1
  O  O357  1  0.75676241  0.72349874  0.23633963  1
  O  O358  1  0.75960078  0.72831550  0.57163685  1
  O  O359  1  0.75545432  0.72648145  0.90782171  1
