# generated using pymatgen
data_Ba17Sr5La8Pr42Mn72O216
_symmetry_space_group_name_H-M   'P 1'
_cell_length_a   16.66957862
_cell_length_b   15.70269063
_cell_length_c   16.82026468
_cell_angle_alpha   90.00330772
_cell_angle_beta   90.01847230
_cell_angle_gamma   89.95685524
_symmetry_Int_Tables_number   1
_chemical_formula_structural   Ba17Sr5La8Pr42Mn72O216
_chemical_formula_sum   'Ba17 Sr5 La8 Pr42 Mn72 O216'
_cell_volume   4402.82450783
_cell_formula_units_Z   1
loop_
 _symmetry_equiv_pos_site_id
 _symmetry_equiv_pos_as_xyz
  1  'x, y, z'
loop_
 _atom_site_type_symbol
 _atom_site_label
 _atom_site_symmetry_multiplicity
 _atom_site_fract_x
 _atom_site_fract_y
 _atom_site_fract_z
 _atom_site_occupancy
  Ba  Ba0  1  0.16561572  0.12473554  0.83402081  1
  Ba  Ba1  1  -0.00001559  0.62620300  0.33145000  1
  Ba  Ba2  1  0.83148295  0.37392056  0.49727435  1
  Ba  Ba3  1  0.50046922  0.12377134  0.83349200  1
  Ba  Ba4  1  0.33135646  0.12451463  0.33523177  1
  Ba  Ba5  1  0.33141853  0.37726159  0.66969854  1
  Ba  Ba6  1  -0.00248551  0.12333602  0.66468421  1
  Ba  Ba7  1  0.16409158  0.37445937  0.83308429  1
  Ba  Ba8  1  0.00117011  0.37475509  -0.00031007  1
  Ba  Ba9  1  0.83531758  0.87247150  0.83141674  1
  Ba  Ba10  1  0.50011940  0.62601199  0.83788623  1
  Ba  Ba11  1  0.16966517  0.87294992  0.50029264  1
  Ba  Ba12  1  0.49716230  0.37541114  0.16766765  1
  Ba  Ba13  1  0.66243082  0.12481946  0.66596559  1
  Ba  Ba14  1  0.66694241  0.62478697  0.99898835  1
  Ba  Ba15  1  0.83409160  0.37358299  0.16317754  1
  Ba  Ba16  1  0.66956079  0.87453166  0.33191799  1
  Sr  Sr17  1  0.49705245  0.37636236  0.83432130  1
  Sr  Sr18  1  0.83227930  0.62640965  0.83388727  1
  Sr  Sr19  1  0.50235684  0.87552971  0.16806463  1
  Sr  Sr20  1  0.50220818  0.62754384  0.16832056  1
  Sr  Sr21  1  0.50333670  0.87294982  0.83599547  1
  La  La22  1  0.16726779  0.62435857  0.83644871  1
  La  La23  1  -0.00316724  0.62428381  0.99860040  1
  La  La24  1  0.66895385  0.62259562  0.32770731  1
  La  La25  1  0.16659660  0.12122925  0.50713942  1
  La  La26  1  0.16306892  0.37395879  0.50185797  1
  La  La27  1  0.66738572  0.62650483  0.67077892  1
  La  La28  1  0.50001165  0.12243677  0.16803595  1
  La  La29  1  0.16633891  0.62268186  0.16922888  1
  Pr  Pr30  1  0.82789300  0.12467274  0.50222076  1
  Pr  Pr31  1  0.50615288  0.62690138  0.50462171  1
  Pr  Pr32  1  0.00590399  0.87410952  0.33460899  1
  Pr  Pr33  1  0.66801878  0.87517426  0.66933605  1
  Pr  Pr34  1  0.00848915  0.87836856  0.00127795  1
  Pr  Pr35  1  0.83121163  0.12657276  0.16356523  1
  Pr  Pr36  1  0.33666311  0.62430131  1.00056468  1
  Pr  Pr37  1  0.83813231  0.87255068  0.15767085  1
  Pr  Pr38  1  0.66358524  0.37725084  0.33360095  1
  Pr  Pr39  1  0.50464670  0.87590805  0.49785001  1
  Pr  Pr40  1  0.66133308  0.37598320  0.66886266  1
  Pr  Pr41  1  0.16730261  0.62786080  0.50370052  1
  Pr  Pr42  1  0.33387830  0.37362407  -0.00093707  1
  Pr  Pr43  1  0.33646959  0.87495655  0.67241006  1
  Pr  Pr44  1  0.83184584  0.62154202  0.16545678  1
  Pr  Pr45  1  0.66125062  0.37680731  -0.00067998  1
  Pr  Pr46  1  0.33625286  0.62259191  0.66910020  1
  Pr  Pr47  1  0.16264696  0.12512488  0.17049366  1
  Pr  Pr48  1  0.34254586  0.87675614  0.00179689  1
  Pr  Pr49  1  0.83708187  0.87791206  0.49489123  1
  Pr  Pr50  1  0.33351814  0.12552372  0.99963334  1
  Pr  Pr51  1  0.33317153  0.62794308  0.33151005  1
  Pr  Pr52  1  -0.00645393  0.12663825  0.99458571  1
  Pr  Pr53  1  0.83261869  0.62537157  0.49887341  1
  Pr  Pr54  1  0.17486834  0.87244038  0.16952474  1
  Pr  Pr55  1  -0.00322963  0.62681629  0.66350596  1
  Pr  Pr56  1  -0.00665128  0.37442660  0.67354088  1
  Pr  Pr57  1  0.33286644  0.37632778  0.33999375  1
  Pr  Pr58  1  0.00836145  0.87487797  0.66836064  1
  Pr  Pr59  1  0.16863295  0.37560230  0.16448523  1
  Pr  Pr60  1  0.34219650  0.87464688  0.33908355  1
  Pr  Pr61  1  0.66741620  0.12840420  0.99303036  1
  Pr  Pr62  1  -0.00388252  0.12436661  0.33421867  1
  Pr  Pr63  1  0.66630968  0.12778857  0.33243587  1
  Pr  Pr64  1  0.33147266  0.12970150  0.66623731  1
  Pr  Pr65  1  0.82846854  0.37754099  0.82836811  1
  Pr  Pr66  1  0.49802057  0.37162607  0.49712903  1
  Pr  Pr67  1  0.17041380  0.87557114  0.83049763  1
  Pr  Pr68  1  0.49633869  0.12126329  0.50735950  1
  Pr  Pr69  1  0.83191263  0.12413925  0.83214674  1
  Pr  Pr70  1  0.66511722  0.87311628  0.00245399  1
  Pr  Pr71  1  0.00006533  0.37700835  0.33329722  1
  Mn  Mn72  1  0.00167798  0.00062015  0.16662197  1
  Mn  Mn73  1  -0.00100790  -0.00133645  0.49755412  1
  Mn  Mn74  1  0.00017095  -0.00096839  0.83406652  1
  Mn  Mn75  1  0.00118641  0.50064640  0.16586416  1
  Mn  Mn76  1  0.00049583  0.50054699  0.50081085  1
  Mn  Mn77  1  -0.00299665  0.50277245  0.83133221  1
  Mn  Mn78  1  0.33314241  -0.00132016  0.16783677  1
  Mn  Mn79  1  0.33410918  -0.00227260  0.50289524  1
  Mn  Mn80  1  0.33419108  -0.00105365  0.83578391  1
  Mn  Mn81  1  0.33378679  0.50136855  0.16961184  1
  Mn  Mn82  1  0.33303455  0.50251715  0.50038000  1
  Mn  Mn83  1  0.33207816  0.50171934  0.83497401  1
  Mn  Mn84  1  0.66906963  0.00098038  0.16522631  1
  Mn  Mn85  1  0.66656828  -0.00141371  0.49906566  1
  Mn  Mn86  1  0.66702484  -0.00143327  0.83346229  1
  Mn  Mn87  1  0.66659242  0.49863165  0.16564072  1
  Mn  Mn88  1  0.66513976  0.50088714  0.49927840  1
  Mn  Mn89  1  0.66613362  0.49887194  0.83304177  1
  Mn  Mn90  1  0.00142574  0.24638208  0.16676967  1
  Mn  Mn91  1  0.00005511  0.25131963  0.49815406  1
  Mn  Mn92  1  -0.00330011  0.24911001  0.83237922  1
  Mn  Mn93  1  0.00175888  0.75281004  0.16432801  1
  Mn  Mn94  1  -0.00132909  0.75001920  0.49884899  1
  Mn  Mn95  1  0.00140677  0.74975609  0.83347331  1
  Mn  Mn96  1  0.33191775  0.24907127  0.16781808  1
  Mn  Mn97  1  0.33161372  0.25116346  0.50069592  1
  Mn  Mn98  1  0.33352568  0.24851805  0.83395018  1
  Mn  Mn99  1  0.33505010  0.75029460  0.16799699  1
  Mn  Mn100  1  0.33611918  0.74784362  0.50148862  1
  Mn  Mn101  1  0.33302045  0.75082556  0.83614092  1
  Mn  Mn102  1  0.66624241  0.24820290  0.16391825  1
  Mn  Mn103  1  0.66331872  0.25082417  0.49762047  1
  Mn  Mn104  1  0.66646264  0.25071575  0.83205073  1
  Mn  Mn105  1  0.66865842  0.75050248  0.16738683  1
  Mn  Mn106  1  0.66894768  0.74881983  0.50015452  1
  Mn  Mn107  1  0.66693790  0.75209251  0.83439449  1
  Mn  Mn108  1  0.16871364  0.24950159  0.00411254  1
  Mn  Mn109  1  0.16483072  0.25049953  0.33409772  1
  Mn  Mn110  1  0.16441295  0.25030345  0.66551049  1
  Mn  Mn111  1  0.16816182  0.75130774  0.00131226  1
  Mn  Mn112  1  0.16857506  0.74973655  0.33375681  1
  Mn  Mn113  1  0.16729540  0.74927607  0.66924691  1
  Mn  Mn114  1  0.49923601  0.24987152  0.00129930  1
  Mn  Mn115  1  0.49936811  0.24868728  0.33364950  1
  Mn  Mn116  1  0.49742096  0.25111462  0.66674496  1
  Mn  Mn117  1  0.50037231  0.75144456  0.00368969  1
  Mn  Mn118  1  0.50167479  0.74936571  0.33543196  1
  Mn  Mn119  1  0.50033896  0.75001365  0.66742599  1
  Mn  Mn120  1  0.83223727  0.24999470  -0.00311620  1
  Mn  Mn121  1  0.83338632  0.24836913  0.33113263  1
  Mn  Mn122  1  0.83034098  0.25006822  0.66399007  1
  Mn  Mn123  1  0.83562504  0.75092360  -0.00228461  1
  Mn  Mn124  1  0.83474129  0.75158181  0.32971412  1
  Mn  Mn125  1  0.83269181  0.74930754  0.66251198  1
  Mn  Mn126  1  0.16914106  -0.00164437  0.00396552  1
  Mn  Mn127  1  0.16650005  0.00058153  0.33457382  1
  Mn  Mn128  1  0.16817238  -0.00189245  0.66731202  1
  Mn  Mn129  1  0.16794722  0.50182723  0.00265278  1
  Mn  Mn130  1  0.16751950  0.49925375  0.33472699  1
  Mn  Mn131  1  0.16349175  0.50365336  0.66704007  1
  Mn  Mn132  1  0.50223701  -0.00077093  0.00294202  1
  Mn  Mn133  1  0.50204622  0.00103131  0.33458042  1
  Mn  Mn134  1  0.49755540  -0.00295415  0.66765682  1
  Mn  Mn135  1  0.49801236  0.49905884  0.00174165  1
  Mn  Mn136  1  0.49847153  0.50131894  0.33549994  1
  Mn  Mn137  1  0.50051740  0.50209698  0.66695801  1
  Mn  Mn138  1  0.83379232  -0.00065182  -0.00148849  1
  Mn  Mn139  1  0.83492907  0.00121004  0.32919949  1
  Mn  Mn140  1  0.83186943  -0.00229406  0.66268348  1
  Mn  Mn141  1  0.83340740  0.50008996  -0.00362028  1
  Mn  Mn142  1  0.83347927  0.49892431  0.33186619  1
  Mn  Mn143  1  0.83147808  0.50202883  0.66495537  1
  O  O144  1  0.17862927  0.12119909  0.02899670  1
  O  O145  1  0.16044825  0.12760511  0.36238366  1
  O  O146  1  0.17316632  0.11991304  0.67305264  1
  O  O147  1  0.17095515  0.62941969  0.02828490  1
  O  O148  1  0.17347852  0.62319905  0.35967549  1
  O  O149  1  0.16084316  0.62885781  0.69066989  1
  O  O150  1  0.50532706  0.12343449  0.02256432  1
  O  O151  1  0.50884668  0.12606986  0.36104089  1
  O  O152  1  0.49387675  0.12233491  0.67560012  1
  O  O153  1  0.49235599  0.62665297  0.01719878  1
  O  O154  1  0.50052893  0.62506957  0.36051349  1
  O  O155  1  0.50579798  0.62694372  0.68201244  1
  O  O156  1  0.83308411  0.12281141  0.01985718  1
  O  O157  1  0.83840090  0.12375511  0.35945410  1
  O  O158  1  0.83139663  0.12437109  0.68658463  1
  O  O159  1  0.83986174  0.62997029  0.02132504  1
  O  O160  1  0.82903040  0.62224968  0.35492147  1
  O  O161  1  0.83778563  0.62618221  0.68493958  1
  O  O162  1  0.16801439  0.37473060  0.30820868  1
  O  O163  1  0.15840703  0.38108105  0.64652549  1
  O  O164  1  0.17375757  0.37774763  0.98956556  1
  O  O165  1  0.16401370  0.87527802  0.31372979  1
  O  O166  1  0.16669430  0.87228257  0.65576399  1
  O  O167  1  0.16144973  0.87289746  0.97282657  1
  O  O168  1  0.49340621  0.37494360  0.32259528  1
  O  O169  1  0.50465493  0.37950096  0.64122033  1
  O  O170  1  0.49425172  0.37277148  0.98628795  1
  O  O171  1  0.49264278  0.87451403  0.31886807  1
  O  O172  1  0.49138023  0.87112142  0.64035095  1
  O  O173  1  0.49661467  0.87709474  0.98706021  1
  O  O174  1  0.83210208  0.37341863  0.31981479  1
  O  O175  1  0.83436398  0.37676735  0.65315469  1
  O  O176  1  0.83024947  0.37123230  0.97482935  1
  O  O177  1  0.83838064  0.88130160  0.30221297  1
  O  O178  1  0.82164735  0.87134773  0.63717468  1
  O  O179  1  0.83209824  0.87646177  0.98884219  1
  O  O180  1  0.00673923  0.36922416  0.18921001  1
  O  O181  1  0.00602537  0.37883489  0.52794213  1
  O  O182  1  -0.00844148  0.37618861  0.84160945  1
  O  O183  1  -0.00806274  0.87871264  0.19273852  1
  O  O184  1  -0.00990882  0.87300673  0.52338155  1
  O  O185  1  0.00718690  0.87508551  0.85729930  1
  O  O186  1  0.32737492  0.37880811  0.19689131  1
  O  O187  1  0.33795503  0.37793587  0.51374549  1
  O  O188  1  0.33332302  0.37668083  0.85337565  1
  O  O189  1  0.32909442  0.87411123  0.19636675  1
  O  O190  1  0.34303275  0.87014718  0.52742316  1
  O  O191  1  0.32613617  0.87371714  0.85789289  1
  O  O192  1  0.66764064  0.37066948  0.19023202  1
  O  O193  1  0.66055633  0.37744271  0.52410640  1
  O  O194  1  0.67583018  0.37317819  0.85335388  1
  O  O195  1  0.67813211  0.87720085  0.17768352  1
  O  O196  1  0.67016865  0.87150616  0.52399619  1
  O  O197  1  0.66763271  0.87721919  0.85519490  1
  O  O198  1  0.01096698  0.12068860  0.13770044  1
  O  O199  1  0.00018559  0.12265898  0.47794577  1
  O  O200  1  -0.00635240  0.12185504  0.82185353  1
  O  O201  1  0.00842609  0.63260868  0.14351833  1
  O  O202  1  -0.00105454  0.62621278  0.48698111  1
  O  O203  1  0.00329802  0.62734139  0.80784868  1
  O  O204  1  0.32676370  0.11980453  0.14381978  1
  O  O205  1  0.32966522  0.12499608  0.49176385  1
  O  O206  1  0.33401033  0.11933529  0.81184106  1
  O  O207  1  0.32874562  0.62750428  0.14374082  1
  O  O208  1  0.32737487  0.62513139  0.47411129  1
  O  O209  1  0.32819010  0.62950490  0.81472632  1
  O  O210  1  0.66715124  0.12417836  0.13757186  1
  O  O211  1  0.66138587  0.12542385  0.47774673  1
  O  O212  1  0.67064576  0.12493289  0.82205022  1
  O  O213  1  0.67089250  0.62506441  0.15768515  1
  O  O214  1  0.66231810  0.62492651  0.47289826  1
  O  O215  1  0.66637070  0.62465569  0.81550355  1
  O  O216  1  0.07657652  0.02128354  0.25391659  1
  O  O217  1  0.08224253  0.00659029  0.58139557  1
  O  O218  1  0.07800811  0.01509193  0.93552733  1
  O  O219  1  0.09082900  0.51227832  0.24701952  1
  O  O220  1  0.08909283  0.52605038  0.57857280  1
  O  O221  1  0.08576869  0.52143510  0.91388161  1
  O  O222  1  0.41907600  0.01534732  0.24913184  1
  O  O223  1  0.41034209  0.01851608  0.58890178  1
  O  O224  1  0.41168672  0.01266373  0.92599603  1
  O  O225  1  0.41696169  0.52375138  0.25167477  1
  O  O226  1  0.41996227  0.52499378  0.58088313  1
  O  O227  1  0.41081656  0.51232584  0.92265011  1
  O  O228  1  0.74914258  0.02896513  0.25097492  1
  O  O229  1  0.74846934  0.01654086  0.57911923  1
  O  O230  1  0.75182796  0.02080895  0.91819254  1
  O  O231  1  0.75457548  0.51736127  0.24653590  1
  O  O232  1  0.75284337  0.52347393  0.57674146  1
  O  O233  1  0.75783486  0.50850133  0.90520927  1
  O  O234  1  0.23911480  0.23370256  0.24470922  1
  O  O235  1  0.24779248  0.23832989  0.57999183  1
  O  O236  1  0.25479905  0.23508698  0.92607929  1
  O  O237  1  0.24815313  0.72932580  0.24566055  1
  O  O238  1  0.24966448  0.72672633  0.58339776  1
  O  O239  1  0.24540664  0.72892473  0.91666533  1
  O  O240  1  0.58661316  0.22701673  0.25053043  1
  O  O241  1  0.57251038  0.23824125  0.57161390  1
  O  O242  1  0.59072228  0.24194474  0.92276868  1
  O  O243  1  0.58330161  0.73472630  0.25448586  1
  O  O244  1  0.58499674  0.73279904  0.58247073  1
  O  O245  1  0.58171529  0.74960070  0.92066651  1
  O  O246  1  0.91650490  0.22402188  0.24476121  1
  O  O247  1  0.91126333  0.23540798  0.57627997  1
  O  O248  1  0.91276892  0.22797365  0.91483908  1
  O  O249  1  0.90961482  0.73387350  0.23339077  1
  O  O250  1  0.90877150  0.73080736  0.57313558  1
  O  O251  1  0.91933374  0.73263656  0.91480350  1
  O  O252  1  0.08786936  0.48962107  0.08639222  1
  O  O253  1  0.08327225  0.47732757  0.41462022  1
  O  O254  1  0.06853373  0.49002136  0.73745278  1
  O  O255  1  0.09148084  0.97336636  0.09423537  1
  O  O256  1  0.08060691  0.98340511  0.41523828  1
  O  O257  1  0.08701131  0.97972624  0.75393174  1
  O  O258  1  0.40677249  0.48706209  0.07939116  1
  O  O259  1  0.41186494  0.48453950  0.41328728  1
  O  O260  1  0.41334435  0.49746748  0.74789100  1
  O  O261  1  0.41724895  0.98623290  0.08702788  1
  O  O262  1  0.42124225  0.98261347  0.42579013  1
  O  O263  1  0.41575068  0.97620714  0.75094420  1
  O  O264  1  0.74616463  0.48480644  0.07310263  1
  O  O265  1  0.73762307  0.48602746  0.40683628  1
  O  O266  1  0.74203511  0.48455451  0.73993088  1
  O  O267  1  0.75701698  0.98458948  0.08598941  1
  O  O268  1  0.75977775  0.98795061  0.42065056  1
  O  O269  1  0.74815452  0.98376392  0.74495824  1
  O  O270  1  0.25319406  0.27395203  0.08467240  1
  O  O271  1  0.24964041  0.27228289  0.41503315  1
  O  O272  1  0.24940540  0.25387656  0.74822822  1
  O  O273  1  0.25375272  0.77561785  0.07978476  1
  O  O274  1  0.26287914  0.76545507  0.40996843  1
  O  O275  1  0.25231813  0.76910026  0.75033070  1
  O  O276  1  0.58488409  0.26457405  0.08177366  1
  O  O277  1  0.58345405  0.27534391  0.41343509  1
  O  O278  1  0.58473882  0.26967452  0.74601309  1
  O  O279  1  0.58866535  0.76791722  0.08334554  1
  O  O280  1  0.58145337  0.76565717  0.42393307  1
  O  O281  1  0.58551525  0.77029921  0.74408533  1
  O  O282  1  0.91863902  0.25037938  0.08113601  1
  O  O283  1  0.92652810  0.26437824  0.40774863  1
  O  O284  1  0.90917931  0.26555898  0.74952327  1
  O  O285  1  0.92569701  0.77266098  0.07621738  1
  O  O286  1  0.91938143  0.77360815  0.40739647  1
  O  O287  1  0.92622720  0.76602259  0.73242363  1
  O  O288  1  0.24892803  0.48264068  0.09151578  1
  O  O289  1  0.24621626  0.47682842  0.41917987  1
  O  O290  1  0.24241591  0.49951151  0.75357067  1
  O  O291  1  0.25426765  0.96987364  0.08159639  1
  O  O292  1  0.25958169  0.98239164  0.41332954  1
  O  O293  1  0.25287725  0.97807764  0.75051543  1
  O  O294  1  0.58302772  0.48595999  0.08215206  1
  O  O295  1  0.57559597  0.47910908  0.42410858  1
  O  O296  1  0.58368905  0.48028621  0.74809086  1
  O  O297  1  0.58863784  0.98016514  0.08312600  1
  O  O298  1  0.58475017  0.98284762  0.41892257  1
  O  O299  1  0.58358246  0.97903540  0.74474066  1
  O  O300  1  0.91646316  0.49830988  0.08301664  1
  O  O301  1  0.91895759  0.48559597  0.41299685  1
  O  O302  1  0.90783896  0.48362631  0.75230697  1
  O  O303  1  0.92470743  0.98237891  0.07801331  1
  O  O304  1  0.92253405  0.97781283  0.40609963  1
  O  O305  1  0.92065686  0.97843568  0.73352819  1
  O  O306  1  0.09450743  0.26141421  0.09604716  1
  O  O307  1  0.08423680  0.27847778  0.41458699  1
  O  O308  1  0.07470615  0.26273030  0.74255789  1
  O  O309  1  0.08778103  0.77814909  0.08577177  1
  O  O310  1  0.08261192  0.76240224  0.41719795  1
  O  O311  1  0.08859574  0.77138418  0.75677388  1
  O  O312  1  0.41055133  0.25723921  0.07968306  1
  O  O313  1  0.41556252  0.26549177  0.41972928  1
  O  O314  1  0.41758173  0.25949057  0.75025226  1
  O  O315  1  0.41748757  0.76949649  0.08908056  1
  O  O316  1  0.42155457  0.76822571  0.42294600  1
  O  O317  1  0.41346827  0.76601780  0.74854819  1
  O  O318  1  0.74350358  0.26176004  0.07197037  1
  O  O319  1  0.74049282  0.25867222  0.40768985  1
  O  O320  1  0.74708042  0.27175680  0.74672317  1
  O  O321  1  0.75824768  0.76434342  0.08665485  1
  O  O322  1  0.75877897  0.76307782  0.42625377  1
  O  O323  1  0.74587024  0.76176398  0.74014777  1
  O  O324  1  0.24021383  0.01345671  0.24165430  1
  O  O325  1  0.25058434  0.01170024  0.58378635  1
  O  O326  1  0.25210353  0.01272344  0.92185065  1
  O  O327  1  0.25406883  0.52328297  0.25598147  1
  O  O328  1  0.25099211  0.52583286  0.58643358  1
  O  O329  1  0.25135568  0.52294096  0.92378645  1
  O  O330  1  0.58564592  0.02236318  0.24709532  1
  O  O331  1  0.57247109  0.00657605  0.57636996  1
  O  O332  1  0.59000433  0.01004733  0.92437819  1
  O  O333  1  0.58881451  0.51071244  0.26201599  1
  O  O334  1  0.58833953  0.52356347  0.58514598  1
  O  O335  1  0.58535881  0.49823820  0.91874597  1
  O  O336  1  0.91418749  0.02971991  0.24190457  1
  O  O337  1  0.90515394  0.01290163  0.56742132  1
  O  O338  1  0.91241082  0.01872524  0.91385052  1
  O  O339  1  0.91638798  0.51353947  0.24543388  1
  O  O340  1  0.91906265  0.52000708  0.58699126  1
  O  O341  1  0.92142829  0.52036746  0.91783486  1
  O  O342  1  0.07731992  0.22543834  0.25712598  1
  O  O343  1  0.08845177  0.23542313  0.57250687  1
  O  O344  1  0.08001713  0.23439618  0.92847715  1
  O  O345  1  0.08548005  0.74240383  0.24464848  1
  O  O346  1  0.07893903  0.73428536  0.58949980  1
  O  O347  1  0.08349448  0.72686457  0.92418535  1
  O  O348  1  0.42045048  0.23052774  0.24602760  1
  O  O349  1  0.41298727  0.23217576  0.58413834  1
  O  O350  1  0.41357989  0.23458786  0.92275329  1
  O  O351  1  0.41159475  0.73296896  0.25950153  1
  O  O352  1  0.41564550  0.72105718  0.58439857  1
  O  O353  1  0.40718257  0.74073085  0.92754287  1
  O  O354  1  0.75042987  0.22434362  0.24432400  1
  O  O355  1  0.74906872  0.23477732  0.57611645  1
  O  O356  1  0.75412481  0.22849123  0.91077746  1
  O  O357  1  0.75011391  0.73008186  0.25291964  1
  O  O358  1  0.74742111  0.71990798  0.58267375  1
  O  O359  1  0.75283987  0.74152003  0.91762993  1
