# generated using pymatgen
data_Ba17Sr5La8Pr42Mn72O216
_symmetry_space_group_name_H-M   'P 1'
_cell_length_a   16.67752712
_cell_length_b   15.70441804
_cell_length_c   16.82243304
_cell_angle_alpha   89.99722714
_cell_angle_beta   89.97688093
_cell_angle_gamma   90.00395128
_symmetry_Int_Tables_number   1
_chemical_formula_structural   Ba17Sr5La8Pr42Mn72O216
_chemical_formula_sum   'Ba17 Sr5 La8 Pr42 Mn72 O216'
_cell_volume   4405.97749346
_cell_formula_units_Z   1
loop_
 _symmetry_equiv_pos_site_id
 _symmetry_equiv_pos_as_xyz
  1  'x, y, z'
loop_
 _atom_site_type_symbol
 _atom_site_label
 _atom_site_symmetry_multiplicity
 _atom_site_fract_x
 _atom_site_fract_y
 _atom_site_fract_z
 _atom_site_occupancy
  Ba  Ba0  1  0.66612696  0.37438750  0.33439267  1
  Ba  Ba1  1  0.83215952  0.87700103  0.16503732  1
  Ba  Ba2  1  0.50080807  0.37410486  0.16815232  1
  Ba  Ba3  1  0.16946042  0.37453744  0.83307013  1
  Ba  Ba4  1  0.00326475  0.37274951  0.33198239  1
  Ba  Ba5  1  0.66878150  0.37340614  0.66847425  1
  Ba  Ba6  1  0.16457285  0.62397350  0.83241087  1
  Ba  Ba7  1  -0.00210256  0.62662635  0.99653782  1
  Ba  Ba8  1  0.49865213  0.12491050  0.17019002  1
  Ba  Ba9  1  0.33031212  0.62629694  0.33293158  1
  Ba  Ba10  1  0.83491413  0.87590925  0.49786117  1
  Ba  Ba11  1  0.83277233  0.12349235  0.16515367  1
  Ba  Ba12  1  0.66555600  0.62453760  0.66969844  1
  Ba  Ba13  1  0.66841315  0.87643315  0.66875887  1
  Ba  Ba14  1  0.16516543  0.62601965  0.49949527  1
  Ba  Ba15  1  0.66703545  0.87531326  0.33585372  1
  Ba  Ba16  1  0.50078486  0.62547865  0.83530801  1
  Sr  Sr17  1  0.16977859  0.87419905  0.16499586  1
  Sr  Sr18  1  0.66166156  0.62669324  0.99948689  1
  Sr  Sr19  1  0.33303569  0.87360668  0.00230624  1
  Sr  Sr20  1  0.49640282  0.62551172  0.16728698  1
  Sr  Sr21  1  0.83388002  0.12679301  0.49781020  1
  La  La22  1  0.83712170  0.87319958  0.82840097  1
  La  La23  1  -0.00650887  0.12279155  0.99736814  1
  La  La24  1  0.16389255  0.12225116  0.16817743  1
  La  La25  1  0.50303744  0.37800315  0.49810651  1
  La  La26  1  0.67076775  0.37854130  0.00566313  1
  La  La27  1  0.33102790  0.12503301  0.32856465  1
  La  La28  1  0.50281747  0.87265416  0.49992056  1
  La  La29  1  0.83079487  0.62286057  0.49739450  1
  Pr  Pr30  1  0.67316521  0.12275152  0.33231076  1
  Pr  Pr31  1  0.17073224  0.87625712  0.49532367  1
  Pr  Pr32  1  0.00548150  0.87588990  0.66609725  1
  Pr  Pr33  1  -0.00738623  0.12344360  0.32993739  1
  Pr  Pr34  1  -0.00443009  0.62356011  0.66455518  1
  Pr  Pr35  1  0.00505944  0.37438475  0.66540936  1
  Pr  Pr36  1  0.82742100  0.12723988  0.83411792  1
  Pr  Pr37  1  0.50630474  0.12527069  0.50383403  1
  Pr  Pr38  1  0.33230424  0.62612407  0.99899260  1
  Pr  Pr39  1  0.33106294  0.12657763  0.66150319  1
  Pr  Pr40  1  0.49785584  0.87288369  0.83414859  1
  Pr  Pr41  1  0.49640511  0.87233118  0.16593103  1
  Pr  Pr42  1  0.33359891  0.87189506  0.66875306  1
  Pr  Pr43  1  0.50665398  0.12160358  0.83856156  1
  Pr  Pr44  1  0.83993345  0.37389892  0.16141534  1
  Pr  Pr45  1  0.50024768  0.62551189  0.50638455  1
  Pr  Pr46  1  0.01097614  0.37501017  0.00399412  1
  Pr  Pr47  1  0.00344377  0.87809050  0.33349390  1
  Pr  Pr48  1  0.83505906  0.37545230  0.49454167  1
  Pr  Pr49  1  0.16150554  0.62809312  0.17011810  1
  Pr  Pr50  1  0.00835540  0.87446198  0.00179438  1
  Pr  Pr51  1  0.17578653  0.37539673  0.49658964  1
  Pr  Pr52  1  0.33451588  0.12486209  0.99727002  1
  Pr  Pr53  1  0.82310717  0.62495845  0.16685688  1
  Pr  Pr54  1  0.67367790  0.12458889  0.66516118  1
  Pr  Pr55  1  0.17330593  0.37660166  0.16292941  1
  Pr  Pr56  1  0.16436057  0.12530187  0.83693677  1
  Pr  Pr57  1  0.66471471  0.12446873  1.00390907  1
  Pr  Pr58  1  0.33043895  0.62347883  0.66053284  1
  Pr  Pr59  1  -0.00423938  0.62779482  0.32547827  1
  Pr  Pr60  1  0.33726820  0.87483559  0.33182240  1
  Pr  Pr61  1  0.33812404  0.37790299  0.00097255  1
  Pr  Pr62  1  0.66338494  0.87263383  0.00508419  1
  Pr  Pr63  1  0.82461688  0.62458997  0.83620279  1
  Pr  Pr64  1  0.33679946  0.37804296  0.66835094  1
  Pr  Pr65  1  0.33906676  0.37582189  0.33243631  1
  Pr  Pr66  1  -0.00218346  0.12659898  0.66467606  1
  Pr  Pr67  1  0.50103381  0.37600714  0.83441635  1
  Pr  Pr68  1  0.16891280  0.87330605  0.83327615  1
  Pr  Pr69  1  0.16271468  0.12582236  0.50107827  1
  Pr  Pr70  1  0.83865838  0.37642677  0.83070557  1
  Pr  Pr71  1  0.65994475  0.62718089  0.33406982  1
  Mn  Mn72  1  0.00146561  -0.00148312  0.16476242  1
  Mn  Mn73  1  0.00195124  0.00205036  0.50050247  1
  Mn  Mn74  1  0.00023356  0.00104364  0.83193928  1
  Mn  Mn75  1  -0.00010504  0.50026727  0.16443077  1
  Mn  Mn76  1  0.00081950  0.49962269  0.49796731  1
  Mn  Mn77  1  -0.00144702  0.49802426  0.83227580  1
  Mn  Mn78  1  0.33113695  -0.00044855  0.16525221  1
  Mn  Mn79  1  0.33417449  0.00176275  0.49890618  1
  Mn  Mn80  1  0.33255738  -0.00003868  0.83144919  1
  Mn  Mn81  1  0.33202147  0.50082328  0.16596728  1
  Mn  Mn82  1  0.33379264  0.49878761  0.50037617  1
  Mn  Mn83  1  0.33431102  0.50023547  0.83341575  1
  Mn  Mn84  1  0.66393229  -0.00055414  0.16838876  1
  Mn  Mn85  1  0.66739640  0.00268683  0.50191944  1
  Mn  Mn86  1  0.66790728  0.00032241  0.83633634  1
  Mn  Mn87  1  0.66661045  0.50159763  0.16788655  1
  Mn  Mn88  1  0.66678592  0.49976451  0.50056402  1
  Mn  Mn89  1  0.66734271  0.49770628  0.83780775  1
  Mn  Mn90  1  0.00191283  0.24896479  0.16609221  1
  Mn  Mn91  1  0.00149119  0.24947614  0.49992297  1
  Mn  Mn92  1  -0.00042958  0.24964229  0.83211415  1
  Mn  Mn93  1  -0.00104149  0.75226641  0.16412887  1
  Mn  Mn94  1  0.00113975  0.74957834  0.49799316  1
  Mn  Mn95  1  -0.00045891  0.75165851  0.83143888  1
  Mn  Mn96  1  0.33129293  0.24881681  0.16536306  1
  Mn  Mn97  1  0.33429478  0.24746063  0.49835326  1
  Mn  Mn98  1  0.33512688  0.24686525  0.83075079  1
  Mn  Mn99  1  0.33096356  0.75072737  0.16525440  1
  Mn  Mn100  1  0.33367783  0.75331951  0.50067959  1
  Mn  Mn101  1  0.33230061  0.75088803  0.83400651  1
  Mn  Mn102  1  0.66832625  0.25035617  0.16766085  1
  Mn  Mn103  1  0.66799453  0.24909177  0.50243703  1
  Mn  Mn104  1  0.66691824  0.24966559  0.83590795  1
  Mn  Mn105  1  0.66360135  0.74926208  0.16690272  1
  Mn  Mn106  1  0.66681874  0.74917865  0.50111010  1
  Mn  Mn107  1  0.66749879  0.75150566  0.83766123  1
  Mn  Mn108  1  0.16801715  0.24806273  0.00087634  1
  Mn  Mn109  1  0.16827107  0.24873570  0.33342053  1
  Mn  Mn110  1  0.16784787  0.24805876  0.66592803  1
  Mn  Mn111  1  0.16820975  0.75087412  0.00058011  1
  Mn  Mn112  1  0.16461149  0.75279095  0.33209963  1
  Mn  Mn113  1  0.16600264  0.75179388  0.66599396  1
  Mn  Mn114  1  0.49999863  0.24772687  -0.00100271  1
  Mn  Mn115  1  0.49866831  0.24892754  0.33854353  1
  Mn  Mn116  1  0.49872590  0.24742855  0.66988489  1
  Mn  Mn117  1  0.49757480  0.75091109  0.00149599  1
  Mn  Mn118  1  0.49819065  0.75010320  0.33405142  1
  Mn  Mn119  1  0.49838905  0.75199778  0.66796609  1
  Mn  Mn120  1  0.83409926  0.24994951  -0.00300406  1
  Mn  Mn121  1  0.83389679  0.25083717  0.33273898  1
  Mn  Mn122  1  0.83666164  0.25050755  0.66541427  1
  Mn  Mn123  1  0.83134685  0.75170118  -0.00253578  1
  Mn  Mn124  1  0.83496477  0.74834172  0.33164289  1
  Mn  Mn125  1  0.83643709  0.74923458  0.66545676  1
  Mn  Mn126  1  0.16789172  0.00163651  0.00012057  1
  Mn  Mn127  1  0.16788238  0.00084653  0.33413243  1
  Mn  Mn128  1  0.16749856  0.00077201  0.66695189  1
  Mn  Mn129  1  0.16842645  0.49977123  0.00076926  1
  Mn  Mn130  1  0.16527029  0.49903460  0.33164728  1
  Mn  Mn131  1  0.16591350  0.49931998  0.66479570  1
  Mn  Mn132  1  0.49819465  -0.00042335  0.00161546  1
  Mn  Mn133  1  0.49795941  0.00097544  0.33734205  1
  Mn  Mn134  1  0.49795538  0.00185699  0.67003304  1
  Mn  Mn135  1  0.50012268  0.50029439  0.00096172  1
  Mn  Mn136  1  0.49887026  0.50156506  0.33482758  1
  Mn  Mn137  1  0.49894298  0.49794928  0.66824075  1
  Mn  Mn138  1  0.83134336  0.00032221  -0.00540363  1
  Mn  Mn139  1  0.83494605  -0.00032941  0.33337297  1
  Mn  Mn140  1  0.83715475  0.00082351  0.66660549  1
  Mn  Mn141  1  0.83395315  0.50019519  -0.00122193  1
  Mn  Mn142  1  0.83327919  0.50004421  0.33134316  1
  Mn  Mn143  1  0.83590718  0.49860296  0.66510091  1
  O  O144  1  0.17089226  0.12531818  0.02318407  1
  O  O145  1  0.17639275  0.12492992  0.36044046  1
  O  O146  1  0.17173201  0.12316126  0.69406778  1
  O  O147  1  0.17390238  0.62111367  0.02369717  1
  O  O148  1  0.15831627  0.62792664  0.34270551  1
  O  O149  1  0.17204312  0.62890267  0.67653505  1
  O  O150  1  0.49877945  0.12272046  0.01411872  1
  O  O151  1  0.48584765  0.12469982  0.36010636  1
  O  O152  1  0.48886543  0.12497936  0.69731714  1
  O  O153  1  0.49577552  0.62857083  0.01629478  1
  O  O154  1  0.49966191  0.62586577  0.35908067  1
  O  O155  1  0.48875405  0.62571585  0.67664661  1
  O  O156  1  0.84075973  0.12604193  0.01086140  1
  O  O157  1  0.83927178  0.12596465  0.34642359  1
  O  O158  1  0.84019526  0.12712122  0.69059774  1
  O  O159  1  0.83448648  0.62454242  0.02230184  1
  O  O160  1  0.84625867  0.62267226  0.35146730  1
  O  O161  1  0.84502636  0.62376626  0.69113272  1
  O  O162  1  0.17305660  0.37025624  0.30708908  1
  O  O163  1  0.16351209  0.36914635  0.64111402  1
  O  O164  1  0.16418145  0.37170323  0.98852472  1
  O  O165  1  0.16202988  0.87831827  0.31413232  1
  O  O166  1  0.16285174  0.87892661  0.63891754  1
  O  O167  1  0.16326037  0.88184991  0.97602821  1
  O  O168  1  0.49539136  0.37485210  0.32613455  1
  O  O169  1  0.49282343  0.36902560  0.64200793  1
  O  O170  1  0.49195646  0.36853107  0.97826561  1
  O  O171  1  0.49668708  0.87638292  0.31231379  1
  O  O172  1  0.49352362  0.87963128  0.64346850  1
  O  O173  1  0.49946077  0.87927088  0.97771106  1
  O  O174  1  0.83224197  0.37733245  0.30733322  1
  O  O175  1  0.83978118  0.37288268  0.63813868  1
  O  O176  1  0.82650136  0.37199800  0.97379297  1
  O  O177  1  0.83957255  0.87375945  0.32371352  1
  O  O178  1  0.84101764  0.87488445  0.65463505  1
  O  O179  1  0.82193097  0.87920260  0.97175227  1
  O  O180  1  -0.00257390  0.37454279  0.17538776  1
  O  O181  1  -0.00629901  0.37319199  0.52283597  1
  O  O182  1  -0.00772205  0.37269363  0.85911263  1
  O  O183  1  0.00260297  0.87627249  0.18808081  1
  O  O184  1  0.00618358  0.87987321  0.52308095  1
  O  O185  1  -0.00328071  0.88130924  0.85823130  1
  O  O186  1  0.32448083  0.37311994  0.18764573  1
  O  O187  1  0.33020072  0.36925415  0.52488161  1
  O  O188  1  0.34009541  0.36827660  0.85779464  1
  O  O189  1  0.33338060  0.87700019  0.18766770  1
  O  O190  1  0.32911922  0.88090203  0.52628660  1
  O  O191  1  0.33045100  0.87749315  0.85442435  1
  O  O192  1  0.67462958  0.37503912  0.17638361  1
  O  O193  1  0.66790951  0.37287634  0.51150078  1
  O  O194  1  0.67203507  0.37031618  0.85838683  1
  O  O195  1  0.65789726  0.87406361  0.17960545  1
  O  O196  1  0.66174417  0.87853967  0.51050771  1
  O  O197  1  0.67644413  0.87999643  0.85866713  1
  O  O198  1  0.00614744  0.12322916  0.14238793  1
  O  O199  1  0.00979311  0.12635206  0.47330192  1
  O  O200  1  0.00348093  0.12432065  0.80738625  1
  O  O201  1  0.00818798  0.62640036  0.15323852  1
  O  O202  1  -0.00115506  0.62045406  0.47096783  1
  O  O203  1  -0.00583297  0.62195292  0.80968932  1
  O  O204  1  0.32746669  0.12459631  0.14348459  1
  O  O205  1  0.33115886  0.12420736  0.47042702  1
  O  O206  1  0.32892320  0.12284418  0.80351178  1
  O  O207  1  0.32976649  0.62447561  0.14455747  1
  O  O208  1  0.34195635  0.62577543  0.49203212  1
  O  O209  1  0.33401287  0.62992420  0.80594367  1
  O  O210  1  0.66464251  0.12533763  0.14766726  1
  O  O211  1  0.66060264  0.12659788  0.47951393  1
  O  O212  1  0.66269396  0.12542355  0.80846188  1
  O  O213  1  0.67025748  0.62574924  0.14775245  1
  O  O214  1  0.66132003  0.62303561  0.48318322  1
  O  O215  1  0.67086391  0.62291982  0.82622659  1
  O  O216  1  0.08336413  0.02392461  0.25940081  1
  O  O217  1  0.08264129  0.02587286  0.58816508  1
  O  O218  1  0.07994201  0.02436773  0.91759093  1
  O  O219  1  0.07510170  0.51582670  0.25425418  1
  O  O220  1  0.07315272  0.51198369  0.59018755  1
  O  O221  1  0.07799518  0.50322464  0.92206482  1
  O  O222  1  0.40807279  0.01088910  0.25797083  1
  O  O223  1  0.41454076  0.02557715  0.57993718  1
  O  O224  1  0.41616696  0.02128307  0.91350979  1
  O  O225  1  0.41014750  0.50645400  0.25308227  1
  O  O226  1  0.40985182  0.51093713  0.58999383  1
  O  O227  1  0.41051974  0.51280067  0.92303745  1
  O  O228  1  0.74711961  0.01236281  0.25321187  1
  O  O229  1  0.74895649  0.01981164  0.58716892  1
  O  O230  1  0.74845296  0.03042347  0.91568269  1
  O  O231  1  0.74532824  0.52711311  0.25686519  1
  O  O232  1  0.75359600  0.51304911  0.58241255  1
  O  O233  1  0.74522739  0.51477634  0.92657102  1
  O  O234  1  0.24361563  0.22651876  0.24525762  1
  O  O235  1  0.24786760  0.22565835  0.57617228  1
  O  O236  1  0.25127113  0.22509790  0.91275560  1
  O  O237  1  0.23980309  0.73848394  0.24209731  1
  O  O238  1  0.25366126  0.74259825  0.58772946  1
  O  O239  1  0.25162106  0.73535900  0.91693970  1
  O  O240  1  0.58326045  0.23326859  0.26365320  1
  O  O241  1  0.58416654  0.22440511  0.59381652  1
  O  O242  1  0.58280760  0.22772079  0.91718884  1
  O  O243  1  0.58219255  0.73008491  0.25314193  1
  O  O244  1  0.57542648  0.73898562  0.58119072  1
  O  O245  1  0.58393144  0.75065781  0.92171740  1
  O  O246  1  0.91929370  0.23730160  0.24899337  1
  O  O247  1  0.92184758  0.22903151  0.58460949  1
  O  O248  1  0.91160636  0.22996333  0.90835796  1
  O  O249  1  0.91000304  0.72848666  0.23947606  1
  O  O250  1  0.91551829  0.72657809  0.57531643  1
  O  O251  1  0.90603705  0.74029450  0.90128420  1
  O  O252  1  0.09103277  0.48238004  0.09036825  1
  O  O253  1  0.09270467  0.47826578  0.42660994  1
  O  O254  1  0.08095400  0.48443210  0.74770973  1
  O  O255  1  0.08421222  0.98347739  0.08155138  1
  O  O256  1  0.09099644  0.98240704  0.42344599  1
  O  O257  1  0.08748784  0.97761576  0.75601084  1
  O  O258  1  0.41386880  0.48620807  0.08189610  1
  O  O259  1  0.41821074  0.48066661  0.42327621  1
  O  O260  1  0.42031579  0.47519923  0.75346019  1
  O  O261  1  0.41691755  0.98193492  0.08705169  1
  O  O262  1  0.41478592  0.97325029  0.41872816  1
  O  O263  1  0.41375454  0.97521408  0.75018777  1
  O  O264  1  0.76352979  0.48298012  0.09093463  1
  O  O265  1  0.75720252  0.49164142  0.42221002  1
  O  O266  1  0.75991078  0.48674049  0.76119989  1
  O  O267  1  0.74237380  0.99082639  0.07209675  1
  O  O268  1  0.74960507  1.00184802  0.41582685  1
  O  O269  1  0.75743305  0.99316379  0.75661677  1
  O  O270  1  0.25247841  0.27018950  0.08032660  1
  O  O271  1  0.25593913  0.27262295  0.41096154  1
  O  O272  1  0.25845493  0.26526304  0.73893446  1
  O  O273  1  0.25308378  0.76250987  0.08022618  1
  O  O274  1  0.25219019  0.77248857  0.41423234  1
  O  O275  1  0.24950514  0.77511262  0.74858303  1
  O  O276  1  0.59143365  0.26209895  0.07636551  1
  O  O277  1  0.57417840  0.25874592  0.43105880  1
  O  O278  1  0.57780765  0.26537372  0.76042701  1
  O  O279  1  0.57828864  0.77025845  0.08540890  1
  O  O280  1  0.57667771  0.75924975  0.42094186  1
  O  O281  1  0.57976396  0.76807166  0.75687123  1
  O  O282  1  0.92176651  0.26853474  0.07135366  1
  O  O283  1  0.91514024  0.26344735  0.41939609  1
  O  O284  1  0.91973960  0.27335801  0.74546802  1
  O  O285  1  0.92196575  0.77186084  0.07014693  1
  O  O286  1  0.92989436  0.76243733  0.40211510  1
  O  O287  1  0.92820980  0.76917477  0.73929905  1
  O  O288  1  0.25501306  0.47728902  0.07897322  1
  O  O289  1  0.25595382  0.47860345  0.41170144  1
  O  O290  1  0.25890402  0.48634845  0.74108005  1
  O  O291  1  0.25128573  0.98753798  0.08027695  1
  O  O292  1  0.25379161  0.97661823  0.41283226  1
  O  O293  1  0.25073395  0.97531194  0.74686913  1
  O  O294  1  0.58993400  0.48648653  0.07733230  1
  O  O295  1  0.58073523  0.49181125  0.42029392  1
  O  O296  1  0.58158067  0.48249910  0.75368263  1
  O  O297  1  0.57853917  0.97942958  0.08617462  1
  O  O298  1  0.57246152  0.99260828  0.43022299  1
  O  O299  1  0.57675562  0.98433641  0.76547801  1
  O  O300  1  0.92387672  0.47652344  0.07131581  1
  O  O301  1  0.91547848  0.48168191  0.41721916  1
  O  O302  1  0.92233218  0.47323141  0.74210930  1
  O  O303  1  0.92101112  0.98510576  0.06578029  1
  O  O304  1  0.92844509  0.99000431  0.41000171  1
  O  O305  1  0.92578751  0.98107971  0.74492787  1
  O  O306  1  0.08872956  0.26639296  0.08896204  1
  O  O307  1  0.09604144  0.26544066  0.42760169  1
  O  O308  1  0.08139375  0.26270536  0.74731722  1
  O  O309  1  0.08529960  0.76776870  0.08557335  1
  O  O310  1  0.08841365  0.77448366  0.42169845  1
  O  O311  1  0.08745108  0.77516043  0.75267046  1
  O  O312  1  0.41084933  0.26036429  0.07469010  1
  O  O313  1  0.41523792  0.27307001  0.42088943  1
  O  O314  1  0.41631005  0.27346186  0.74928201  1
  O  O315  1  0.41843864  0.76871304  0.08747419  1
  O  O316  1  0.41552423  0.77471219  0.41831499  1
  O  O317  1  0.41588483  0.77528226  0.75145676  1
  O  O318  1  0.75898449  0.26820655  0.08263668  1
  O  O319  1  0.75613309  0.26096093  0.42195141  1
  O  O320  1  0.75803160  0.26005743  0.75860746  1
  O  O321  1  0.74469068  0.76442328  0.08055198  1
  O  O322  1  0.75404703  0.74495596  0.41602402  1
  O  O323  1  0.75990386  0.75996725  0.75880357  1
  O  O324  1  0.24657017  0.01958466  0.24753332  1
  O  O325  1  0.24952382  0.02447732  0.57869033  1
  O  O326  1  0.24784712  0.02452340  0.91196269  1
  O  O327  1  0.23737392  0.51423170  0.23633108  1
  O  O328  1  0.24931015  0.50677436  0.57990457  1
  O  O329  1  0.25344625  0.51274805  0.92041432  1
  O  O330  1  0.58477274  0.01926424  0.26406831  1
  O  O331  1  0.58483086  0.02590158  0.59305073  1
  O  O332  1  0.58805502  0.01969106  0.92312033  1
  O  O333  1  0.58024156  0.51905347  0.25394575  1
  O  O334  1  0.57334150  0.50994319  0.57910439  1
  O  O335  1  0.58047762  0.49782226  0.91644014  1
  O  O336  1  0.92216743  0.01127434  0.25143121  1
  O  O337  1  0.92138719  0.02122647  0.58279016  1
  O  O338  1  0.91174460  0.02145879  0.90539994  1
  O  O339  1  0.90789623  0.51727498  0.23661205  1
  O  O340  1  0.91594217  0.52200273  0.57795942  1
  O  O341  1  0.90342385  0.51222829  0.90264356  1
  O  O342  1  0.08295602  0.22451994  0.25785958  1
  O  O343  1  0.08334642  0.22570860  0.58723795  1
  O  O344  1  0.08120289  0.22823118  0.92024348  1
  O  O345  1  0.07366761  0.73862197  0.25671066  1
  O  O346  1  0.07417195  0.73656768  0.59360330  1
  O  O347  1  0.08032929  0.74833064  0.91666077  1
  O  O348  1  0.40622427  0.23998602  0.25701893  1
  O  O349  1  0.41472014  0.22419677  0.58222507  1
  O  O350  1  0.41666669  0.22196161  0.91088421  1
  O  O351  1  0.41463159  0.74447622  0.25017735  1
  O  O352  1  0.41418552  0.73874664  0.58564224  1
  O  O353  1  0.41105837  0.73785167  0.92231602  1
  O  O354  1  0.74612081  0.23292370  0.25657346  1
  O  O355  1  0.75000839  0.22967860  0.58908298  1
  O  O356  1  0.74524721  0.22455255  0.92160670  1
  O  O357  1  0.74754355  0.72853341  0.25239239  1
  O  O358  1  0.75426409  0.73457408  0.58417284  1
  O  O359  1  0.74918325  0.73107396  0.91956761  1
