# generated using pymatgen
data_Ba17Sr5La8Pr42Mn72O216
_symmetry_space_group_name_H-M   'P 1'
_cell_length_a   16.67030768
_cell_length_b   15.70606839
_cell_length_c   16.81779186
_cell_angle_alpha   89.99322319
_cell_angle_beta   90.00986022
_cell_angle_gamma   90.01870888
_symmetry_Int_Tables_number   1
_chemical_formula_structural   Ba17Sr5La8Pr42Mn72O216
_chemical_formula_sum   'Ba17 Sr5 La8 Pr42 Mn72 O216'
_cell_volume   4403.31789786
_cell_formula_units_Z   1
loop_
 _symmetry_equiv_pos_site_id
 _symmetry_equiv_pos_as_xyz
  1  'x, y, z'
loop_
 _atom_site_type_symbol
 _atom_site_label
 _atom_site_symmetry_multiplicity
 _atom_site_fract_x
 _atom_site_fract_y
 _atom_site_fract_z
 _atom_site_occupancy
  Ba  Ba0  1  0.16551957  0.12511545  0.50303269  1
  Ba  Ba1  1  0.50122658  0.87431352  0.16515865  1
  Ba  Ba2  1  0.16487336  0.87365906  0.16890349  1
  Ba  Ba3  1  -0.00057970  0.12432450  0.99937358  1
  Ba  Ba4  1  0.83201501  0.37448408  0.16516939  1
  Ba  Ba5  1  0.16461361  0.37706697  0.16456234  1
  Ba  Ba6  1  0.66485028  0.37431887  0.33238468  1
  Ba  Ba7  1  0.33321244  0.37518069  0.00119793  1
  Ba  Ba8  1  0.83569931  0.62521919  0.50267635  1
  Ba  Ba9  1  0.33288059  0.12476742  0.66504151  1
  Ba  Ba10  1  0.49800242  0.87462610  0.49622037  1
  Ba  Ba11  1  0.49912050  0.37547807  0.16410322  1
  Ba  Ba12  1  0.66923257  0.62604447  0.33377237  1
  Ba  Ba13  1  0.66547130  0.87561403  0.33471850  1
  Ba  Ba14  1  0.49839443  0.12545190  0.83129876  1
  Ba  Ba15  1  0.50013682  0.37438211  0.83198916  1
  Ba  Ba16  1  0.16898863  0.62677436  0.16889109  1
  Sr  Sr17  1  -0.00246541  0.37449487  0.00551002  1
  Sr  Sr18  1  0.16122572  0.87406681  0.83401781  1
  Sr  Sr19  1  0.66823636  0.37713578  0.66773046  1
  Sr  Sr20  1  0.67227097  0.62140300  0.66238928  1
  Sr  Sr21  1  0.00112246  0.87446750  0.33390551  1
  La  La22  1  0.66416753  0.12607294  0.99925308  1
  La  La23  1  0.16755190  0.12244980  0.83616574  1
  La  La24  1  0.16154087  0.37562024  0.83624208  1
  La  La25  1  0.83342555  0.12693239  0.16811622  1
  La  La26  1  0.00467750  0.62191174  1.00228930  1
  La  La27  1  0.32786254  0.37773703  0.33173115  1
  La  La28  1  0.00141902  0.62668193  0.33216832  1
  La  La29  1  0.16184404  0.37116670  0.50007115  1
  Pr  Pr30  1  0.49680852  0.87562529  0.82547545  1
  Pr  Pr31  1  0.49402378  0.37540007  0.49620032  1
  Pr  Pr32  1  -0.00246853  0.12287539  0.66564448  1
  Pr  Pr33  1  0.83361057  0.37238189  0.83464574  1
  Pr  Pr34  1  0.66978311  0.62408752  1.00005519  1
  Pr  Pr35  1  0.66711444  0.87039749  0.66679630  1
  Pr  Pr36  1  0.00155676  0.12327778  0.32790871  1
  Pr  Pr37  1  0.34014628  0.62634354  0.33097479  1
  Pr  Pr38  1  0.83421692  0.87311922  0.49611675  1
  Pr  Pr39  1  0.32743497  0.87247914  0.33693767  1
  Pr  Pr40  1  0.50188606  0.62169507  0.16571189  1
  Pr  Pr41  1  0.17256880  0.62640436  0.50332159  1
  Pr  Pr42  1  0.16873091  0.12756965  0.17023033  1
  Pr  Pr43  1  0.33181645  0.12487205  0.99759811  1
  Pr  Pr44  1  -0.00234451  0.37719419  0.33415055  1
  Pr  Pr45  1  0.32644357  0.87680543  0.66899565  1
  Pr  Pr46  1  0.83505063  0.87808291  0.83185450  1
  Pr  Pr47  1  0.17427298  0.62704155  0.83914525  1
  Pr  Pr48  1  0.66549376  0.87887111  0.00324278  1
  Pr  Pr49  1  0.83182942  0.87308730  0.16606197  1
  Pr  Pr50  1  0.33123091  0.87656382  0.00093051  1
  Pr  Pr51  1  0.83612573  0.62362177  0.17334898  1
  Pr  Pr52  1  0.66283893  0.37274966  0.00559761  1
  Pr  Pr53  1  0.34558855  0.62486130  0.66302090  1
  Pr  Pr54  1  0.66154381  0.12730719  0.66571093  1
  Pr  Pr55  1  0.66078158  0.12326706  0.33124356  1
  Pr  Pr56  1  0.33456747  0.12255632  0.33248042  1
  Pr  Pr57  1  0.82895325  0.12504238  0.50208234  1
  Pr  Pr58  1  0.49630101  0.12753729  0.16366826  1
  Pr  Pr59  1  0.32697951  0.37328085  0.67255583  1
  Pr  Pr60  1  -0.00086993  0.87403185  0.66685000  1
  Pr  Pr61  1  0.83639137  0.62533876  0.83336476  1
  Pr  Pr62  1  0.51157535  0.62157691  0.83198560  1
  Pr  Pr63  1  0.34026664  0.62619453  1.00041613  1
  Pr  Pr64  1  -0.00187120  0.87283805  0.00509512  1
  Pr  Pr65  1  0.83097964  0.12530486  0.83792499  1
  Pr  Pr66  1  0.83064820  0.37821735  0.49681078  1
  Pr  Pr67  1  0.50259358  0.12466839  0.50236374  1
  Pr  Pr68  1  0.16431804  0.87983573  0.49829516  1
  Pr  Pr69  1  -0.00273194  0.37554845  0.66871364  1
  Pr  Pr70  1  0.00649191  0.62683231  0.66405876  1
  Pr  Pr71  1  0.51335167  0.62572749  0.50110601  1
  Mn  Mn72  1  -0.00091521  -0.00091064  0.16621404  1
  Mn  Mn73  1  -0.00239330  0.00081907  0.49937267  1
  Mn  Mn74  1  -0.00007323  -0.00190788  0.83253717  1
  Mn  Mn75  1  -0.00066578  0.50060803  0.16668819  1
  Mn  Mn76  1  0.00209897  0.50004713  0.50246246  1
  Mn  Mn77  1  -0.00080377  0.50094339  0.83278653  1
  Mn  Mn78  1  0.33306143  -0.00169100  0.16563806  1
  Mn  Mn79  1  0.33258751  -0.00000030  0.49928749  1
  Mn  Mn80  1  0.33120719  -0.00251253  0.83407721  1
  Mn  Mn81  1  0.33370346  0.50263535  0.16616082  1
  Mn  Mn82  1  0.33292079  0.50123827  0.50164601  1
  Mn  Mn83  1  0.33277708  0.50199382  0.83063322  1
  Mn  Mn84  1  0.66782031  0.00072458  0.16643132  1
  Mn  Mn85  1  0.66813521  0.00190695  0.50065693  1
  Mn  Mn86  1  0.66765072  -0.00269215  0.83257124  1
  Mn  Mn87  1  0.66781714  0.50137355  0.16412137  1
  Mn  Mn88  1  0.66723897  0.49781411  0.50280736  1
  Mn  Mn89  1  0.67102056  0.50092417  0.83270122  1
  Mn  Mn90  1  -0.00023465  0.24821295  0.16641006  1
  Mn  Mn91  1  -0.00314708  0.24894242  0.50123501  1
  Mn  Mn92  1  -0.00025252  0.25141456  0.83280529  1
  Mn  Mn93  1  -0.00170508  0.75162152  0.16731775  1
  Mn  Mn94  1  0.00278186  0.75070790  0.50057393  1
  Mn  Mn95  1  -0.00078720  0.74885934  0.83355708  1
  Mn  Mn96  1  0.33205993  0.24724735  0.16618150  1
  Mn  Mn97  1  0.33297657  0.25291126  0.49995675  1
  Mn  Mn98  1  0.33023412  0.25039543  0.83352354  1
  Mn  Mn99  1  0.33558255  0.75183527  0.16635244  1
  Mn  Mn100  1  0.33230523  0.74756532  0.50087897  1
  Mn  Mn101  1  0.33487924  0.74900803  0.83101535  1
  Mn  Mn102  1  0.66634624  0.24687798  0.16614162  1
  Mn  Mn103  1  0.66640656  0.25044778  0.50110640  1
  Mn  Mn104  1  0.66832556  0.25045626  0.83219775  1
  Mn  Mn105  1  0.66822904  0.75109823  0.16328759  1
  Mn  Mn106  1  0.66941093  0.75061239  0.50251044  1
  Mn  Mn107  1  0.66914034  0.75015275  0.83336320  1
  Mn  Mn108  1  0.16498488  0.24820564  0.00107605  1
  Mn  Mn109  1  0.16600646  0.25015917  0.33499868  1
  Mn  Mn110  1  0.16320011  0.25142009  0.66848335  1
  Mn  Mn111  1  0.16781529  0.75027480  -0.00127441  1
  Mn  Mn112  1  0.16563042  0.75002571  0.33900482  1
  Mn  Mn113  1  0.16769156  0.74862441  0.66898842  1
  Mn  Mn114  1  0.49931584  0.24792866  -0.00079236  1
  Mn  Mn115  1  0.49593510  0.24973592  0.33409492  1
  Mn  Mn116  1  0.49985907  0.25114836  0.66328711  1
  Mn  Mn117  1  0.50252101  0.75038833  -0.00620390  1
  Mn  Mn118  1  0.49888242  0.74885632  0.33193286  1
  Mn  Mn119  1  0.50136934  0.75097478  0.66555061  1
  Mn  Mn120  1  0.83182309  0.24905764  -0.00093603  1
  Mn  Mn121  1  0.83516743  0.24902247  0.33679514  1
  Mn  Mn122  1  0.83376646  0.24854080  0.66756265  1
  Mn  Mn123  1  0.83269128  0.74941423  -0.00031169  1
  Mn  Mn124  1  0.83568086  0.75227164  0.33342213  1
  Mn  Mn125  1  0.83522131  0.75181831  0.66833917  1
  Mn  Mn126  1  0.16568993  -0.00289045  0.00029378  1
  Mn  Mn127  1  0.16626601  0.00064358  0.33495320  1
  Mn  Mn128  1  0.16337372  -0.00280292  0.66871552  1
  Mn  Mn129  1  0.16758943  0.50304270  -0.00089500  1
  Mn  Mn130  1  0.16529548  0.49933559  0.33828028  1
  Mn  Mn131  1  0.16652849  0.50228667  0.66828760  1
  Mn  Mn132  1  0.49957957  -0.00161558  -0.00370273  1
  Mn  Mn133  1  0.49660799  0.00169197  0.33202602  1
  Mn  Mn134  1  0.50012434  -0.00151993  0.66389534  1
  Mn  Mn135  1  0.50228221  0.50334454  -0.00167571  1
  Mn  Mn136  1  0.49794247  0.49959477  0.33353559  1
  Mn  Mn137  1  0.50167070  0.49930072  0.66483879  1
  Mn  Mn138  1  0.83228363  -0.00171437  -0.00105285  1
  Mn  Mn139  1  0.83519456  0.00147378  0.33523091  1
  Mn  Mn140  1  0.83283637  0.00074420  0.66704331  1
  Mn  Mn141  1  0.83333086  0.50262683  -0.00011698  1
  Mn  Mn142  1  0.83457721  0.49975832  0.33472000  1
  Mn  Mn143  1  0.83556068  0.49782455  0.66860117  1
  O  O144  1  0.17215103  0.11786168  0.02329706  1
  O  O145  1  0.16683638  0.12593236  0.34779942  1
  O  O146  1  0.15697979  0.12164607  0.69091674  1
  O  O147  1  0.16476311  0.62775485  0.00933006  1
  O  O148  1  0.15944312  0.62335066  0.36100205  1
  O  O149  1  0.15977438  0.62565777  0.69613558  1
  O  O150  1  0.49714281  0.12063872  0.01620736  1
  O  O151  1  0.49084911  0.12730015  0.35867556  1
  O  O152  1  0.50531400  0.12222990  0.67551854  1
  O  O153  1  0.50048516  0.63024906  0.01964043  1
  O  O154  1  0.49019744  0.62229084  0.35716325  1
  O  O155  1  0.49746128  0.62706346  0.68856772  1
  O  O156  1  0.82659982  0.11944947  0.02104559  1
  O  O157  1  0.84332451  0.12458457  0.35992069  1
  O  O158  1  0.83904828  0.12321995  0.69675800  1
  O  O159  1  0.82692732  0.62960210  0.02884099  1
  O  O160  1  0.84068217  0.62553688  0.34328423  1
  O  O161  1  0.83896634  0.62761934  0.68968982  1
  O  O162  1  0.16590745  0.37444390  0.32178981  1
  O  O163  1  0.16538664  0.38176060  0.64357283  1
  O  O164  1  0.16375900  0.38038994  0.97994522  1
  O  O165  1  0.17381123  0.87612820  0.32495603  1
  O  O166  1  0.16515220  0.87005317  0.64292790  1
  O  O167  1  0.16562071  0.87200208  0.98163609  1
  O  O168  1  0.49368754  0.37517017  0.32058946  1
  O  O169  1  0.49568673  0.37668816  0.64224326  1
  O  O170  1  0.51074691  0.37700839  0.99077550  1
  O  O171  1  0.49307065  0.87596020  0.32188945  1
  O  O172  1  0.50052019  0.87520376  0.65269253  1
  O  O173  1  0.50598954  0.87245158  0.96945093  1
  O  O174  1  0.84006848  0.37406613  0.32293060  1
  O  O175  1  0.84258420  0.36791111  0.64003430  1
  O  O176  1  0.83012989  0.37768498  0.97790075  1
  O  O177  1  0.83544488  0.87878391  0.31112926  1
  O  O178  1  0.83715040  0.87981441  0.63986728  1
  O  O179  1  0.83394027  0.87319607  0.97332580  1
  O  O180  1  -0.00099455  0.37129546  0.18720892  1
  O  O181  1  -0.00006955  0.37274875  0.52616828  1
  O  O182  1  0.00034459  0.37796788  0.85678359  1
  O  O183  1  -0.00841919  0.87578069  0.18357126  1
  O  O184  1  0.00133646  0.87480044  0.52420381  1
  O  O185  1  -0.00520636  0.86965197  0.86174125  1
  O  O186  1  0.33353852  0.37377926  0.18655809  1
  O  O187  1  0.34142677  0.38010102  0.52840253  1
  O  O188  1  0.32739400  0.37715388  0.84324762  1
  O  O189  1  0.33513927  0.87578064  0.19314217  1
  O  O190  1  0.32854679  0.86796230  0.52468304  1
  O  O191  1  0.34345500  0.87016568  0.85693223  1
  O  O192  1  0.66414380  0.37330317  0.17153664  1
  O  O193  1  0.66710183  0.37216878  0.51695167  1
  O  O194  1  0.67753597  0.37984304  0.86085435  1
  O  O195  1  0.67064643  0.87820023  0.17905247  1
  O  O196  1  0.67422840  0.87951248  0.52122937  1
  O  O197  1  0.67191297  0.87256295  0.86160627  1
  O  O198  1  0.00267728  0.12222604  0.15672202  1
  O  O199  1  -0.00762398  0.12682089  0.47317013  1
  O  O200  1  -0.00144723  0.12698224  0.80868702  1
  O  O201  1  -0.00841682  0.62977404  0.14925774  1
  O  O202  1  0.00719203  0.62675215  0.47722046  1
  O  O203  1  -0.00984945  0.62541704  0.80491881  1
  O  O204  1  0.32918985  0.11951441  0.14321451  1
  O  O205  1  0.33606063  0.13023954  0.47750911  1
  O  O206  1  0.32368633  0.12357405  0.82264490  1
  O  O207  1  0.34056559  0.63008526  0.14630950  1
  O  O208  1  0.32206949  0.62308904  0.47366720  1
  O  O209  1  0.32530852  0.62725558  0.80423827  1
  O  O210  1  0.67534675  0.12130804  0.14473355  1
  O  O211  1  0.66971858  0.12687941  0.47675359  1
  O  O212  1  0.67673179  0.11877429  0.80754893  1
  O  O213  1  0.67600416  0.62822255  0.14388018  1
  O  O214  1  0.66451470  0.62244287  0.49460623  1
  O  O215  1  0.66927040  0.62790594  0.80929007  1
  O  O216  1  0.08484531  0.01693597  0.25272166  1
  O  O217  1  0.07256323  0.01253631  0.59034069  1
  O  O218  1  0.08793991  0.01327198  0.91009228  1
  O  O219  1  0.08009910  0.51271587  0.25688914  1
  O  O220  1  0.09255168  0.52338232  0.57935750  1
  O  O221  1  0.08761391  0.52218288  0.90479004  1
  O  O222  1  0.41714991  0.02563443  0.24543213  1
  O  O223  1  0.42007198  0.01388946  0.57266877  1
  O  O224  1  0.41068184  0.01071816  0.92007919  1
  O  O225  1  0.41848684  0.52170801  0.24746823  1
  O  O226  1  0.42289551  0.52607873  0.57165062  1
  O  O227  1  0.42294545  0.52444796  0.90938486  1
  O  O228  1  0.74997537  0.02452784  0.25794853  1
  O  O229  1  0.74856786  0.02615439  0.59049618  1
  O  O230  1  0.74810875  0.01812968  0.91767792  1
  O  O231  1  0.75536231  0.51294538  0.24139371  1
  O  O232  1  0.75613257  0.50254620  0.58651007  1
  O  O233  1  0.75590969  0.52823033  0.91306693  1
  O  O234  1  0.25321276  0.22909273  0.25245076  1
  O  O235  1  0.25042387  0.24914089  0.58477374  1
  O  O236  1  0.24810070  0.23122715  0.91946317  1
  O  O237  1  0.25684802  0.73623610  0.26866396  1
  O  O238  1  0.25725109  0.72499201  0.59278820  1
  O  O239  1  0.25910322  0.73104218  0.91726353  1
  O  O240  1  0.58087503  0.22431132  0.25180772  1
  O  O241  1  0.58541118  0.22926176  0.58216731  1
  O  O242  1  0.58862883  0.23695670  0.92056435  1
  O  O243  1  0.58306115  0.73279066  0.23962232  1
  O  O244  1  0.58713554  0.73887049  0.58907757  1
  O  O245  1  0.58742594  0.72436187  0.91425165  1
  O  O246  1  0.91963575  0.22890406  0.25377689  1
  O  O247  1  0.91327393  0.22218712  0.58302703  1
  O  O248  1  0.90931601  0.23745271  0.90788919  1
  O  O249  1  0.91872673  0.73314921  0.25076502  1
  O  O250  1  0.93018169  0.73826985  0.59391962  1
  O  O251  1  0.91908445  0.72487280  0.92128910  1
  O  O252  1  0.07718730  0.49655185  0.07521733  1
  O  O253  1  0.07827273  0.47597178  0.41680528  1
  O  O254  1  0.07584356  0.48185317  0.74214100  1
  O  O255  1  0.07839464  0.98169104  0.07611338  1
  O  O256  1  0.08405307  0.98587007  0.42082189  1
  O  O257  1  0.08007014  0.97659596  0.74793441  1
  O  O258  1  0.41886087  0.50053564  0.07711032  1
  O  O259  1  0.40469024  0.48035665  0.41171149  1
  O  O260  1  0.40579444  0.48903150  0.73576167  1
  O  O261  1  0.41326517  0.98359006  0.07757702  1
  O  O262  1  0.40535819  0.98793555  0.40453674  1
  O  O263  1  0.41413466  0.97949780  0.74847480  1
  O  O264  1  0.74201394  0.48675281  0.07017823  1
  O  O265  1  0.75200015  0.48609312  0.42025104  1
  O  O266  1  0.75470903  0.48102643  0.75378398  1
  O  O267  1  0.75447951  0.97737004  0.08305627  1
  O  O268  1  0.75922454  0.98881774  0.42677247  1
  O  O269  1  0.75224974  0.97282913  0.75016125  1
  O  O270  1  0.24751425  0.25265985  0.08745238  1
  O  O271  1  0.24874168  0.27317917  0.42024871  1
  O  O272  1  0.24288977  0.26891157  0.75306424  1
  O  O273  1  0.25584099  0.76466252  0.08247646  1
  O  O274  1  0.23979137  0.76728231  0.43231519  1
  O  O275  1  0.24787285  0.77247112  0.75263786  1
  O  O276  1  0.58356431  0.24925967  0.08088733  1
  O  O277  1  0.57361861  0.25999052  0.42180192  1
  O  O278  1  0.59014845  0.25961233  0.74566602  1
  O  O279  1  0.58997491  0.76328565  0.07210201  1
  O  O280  1  0.57807254  0.75205483  0.41817637  1
  O  O281  1  0.58267956  0.77249016  0.75618790  1
  O  O282  1  0.91236980  0.25347198  0.08441191  1
  O  O283  1  0.91821275  0.27521866  0.42029435  1
  O  O284  1  0.92014375  0.27187974  0.74714418  1
  O  O285  1  0.91075434  0.77240759  0.08464973  1
  O  O286  1  0.91736086  0.76839599  0.42201483  1
  O  O287  1  0.91203607  0.77512103  0.75598943  1
  O  O288  1  0.25183676  0.49822932  0.08521041  1
  O  O289  1  0.24089850  0.47884720  0.43185304  1
  O  O290  1  0.23951535  0.48079669  0.75481320  1
  O  O291  1  0.25347505  0.98021543  0.07961464  1
  O  O292  1  0.24893450  0.98177058  0.41887221  1
  O  O293  1  0.24899769  0.97869059  0.75168928  1
  O  O294  1  0.58662432  0.49908258  0.07942719  1
  O  O295  1  0.57210484  0.48872815  0.42466996  1
  O  O296  1  0.58368586  0.49159946  0.75281714  1
  O  O297  1  0.58726074  0.99013024  0.07374968  1
  O  O298  1  0.58294745  1.00103135  0.41384319  1
  O  O299  1  0.58772557  0.97564852  0.74999997  1
  O  O300  1  0.91366026  0.49512376  0.08259667  1
  O  O301  1  0.91738158  0.48098468  0.42263396  1
  O  O302  1  0.91302037  0.47502374  0.75661108  1
  O  O303  1  0.91408249  0.97853015  0.07900345  1
  O  O304  1  0.91725161  0.97781016  0.41753914  1
  O  O305  1  0.91855694  0.97686702  0.74583471  1
  O  O306  1  0.08016545  0.25799576  0.08107766  1
  O  O307  1  0.07836161  0.26892864  0.41810246  1
  O  O308  1  0.08058292  0.27561313  0.75116363  1
  O  O309  1  0.07181680  0.76043718  0.07605447  1
  O  O310  1  0.08277794  0.77161608  0.41994060  1
  O  O311  1  0.07432744  0.76656362  0.74227607  1
  O  O312  1  0.41668150  0.24817989  0.08492308  1
  O  O313  1  0.40889422  0.27405286  0.41219300  1
  O  O314  1  0.40964624  0.26379871  0.74062258  1
  O  O315  1  0.41445158  0.76720708  0.06481215  1
  O  O316  1  0.39926499  0.76096769  0.40705854  1
  O  O317  1  0.41071689  0.76920737  0.74149023  1
  O  O318  1  0.74422080  0.26042605  0.07391787  1
  O  O319  1  0.75663595  0.26166618  0.42644641  1
  O  O320  1  0.75818838  0.26886744  0.75405435  1
  O  O321  1  0.74896273  0.77601668  0.07699159  1
  O  O322  1  0.75534879  0.76520691  0.41959905  1
  O  O323  1  0.74963424  0.77587156  0.75103925  1
  O  O324  1  0.25137122  0.02085994  0.25109035  1
  O  O325  1  0.24660168  0.00226298  0.58567487  1
  O  O326  1  0.24947111  0.01382356  0.91946788  1
  O  O327  1  0.25651314  0.51327250  0.26728094  1
  O  O328  1  0.25804694  0.52354725  0.59413708  1
  O  O329  1  0.25536955  0.52356809  0.91825892  1
  O  O330  1  0.57957341  0.02538775  0.24871738  1
  O  O331  1  0.58722164  0.01950837  0.58165994  1
  O  O332  1  0.58684531  0.01370627  0.91487879  1
  O  O333  1  0.58173348  0.51712457  0.24462998  1
  O  O334  1  0.58407124  0.51391926  0.58555484  1
  O  O335  1  0.58951220  0.52300630  0.91798042  1
  O  O336  1  0.91344305  0.02201893  0.24992696  1
  O  O337  1  0.91159321  0.02311032  0.58164010  1
  O  O338  1  0.90796626  0.01317859  0.90779190  1
  O  O339  1  0.92090003  0.51509352  0.25517980  1
  O  O340  1  0.93076375  0.51399521  0.59493155  1
  O  O341  1  0.91833197  0.52552617  0.91948940  1
  O  O342  1  0.08422200  0.23023736  0.25044988  1
  O  O343  1  0.07365937  0.23560549  0.59042909  1
  O  O344  1  0.08818748  0.23548509  0.90764960  1
  O  O345  1  0.08074166  0.73806669  0.25689590  1
  O  O346  1  0.09184719  0.72794289  0.58040647  1
  O  O347  1  0.08508328  0.72816915  0.90695868  1
  O  O348  1  0.41516091  0.22455387  0.24935552  1
  O  O349  1  0.42547231  0.23776705  0.56977831  1
  O  O350  1  0.41285145  0.23775731  0.92033860  1
  O  O351  1  0.42209046  0.72774882  0.24453344  1
  O  O352  1  0.42086634  0.72435308  0.57299875  1
  O  O353  1  0.42396697  0.72375300  0.90400627  1
  O  O354  1  0.75021055  0.22746287  0.25333464  1
  O  O355  1  0.74917019  0.22587188  0.59024570  1
  O  O356  1  0.75011692  0.22719865  0.91488410  1
  O  O357  1  0.75910900  0.74126655  0.23829719  1
  O  O358  1  0.75402155  0.74511741  0.58885805  1
  O  O359  1  0.75420572  0.72622589  0.91361190  1
