# generated using pymatgen
data_Ba17Sr5La8Pr42Mn72O216
_symmetry_space_group_name_H-M   'P 1'
_cell_length_a   16.67468113
_cell_length_b   15.70553296
_cell_length_c   16.81900003
_cell_angle_alpha   89.99471019
_cell_angle_beta   90.02079010
_cell_angle_gamma   90.02073618
_symmetry_Int_Tables_number   1
_chemical_formula_structural   Ba17Sr5La8Pr42Mn72O216
_chemical_formula_sum   'Ba17 Sr5 La8 Pr42 Mn72 O216'
_cell_volume   4404.63909072
_cell_formula_units_Z   1
loop_
 _symmetry_equiv_pos_site_id
 _symmetry_equiv_pos_as_xyz
  1  'x, y, z'
loop_
 _atom_site_type_symbol
 _atom_site_label
 _atom_site_symmetry_multiplicity
 _atom_site_fract_x
 _atom_site_fract_y
 _atom_site_fract_z
 _atom_site_occupancy
  Ba  Ba0  1  0.33525374  0.12611005  0.66663699  1
  Ba  Ba1  1  0.66422857  0.62505408  0.66801284  1
  Ba  Ba2  1  0.16733995  0.37706073  0.83216978  1
  Ba  Ba3  1  0.16248424  0.62551358  0.83128183  1
  Ba  Ba4  1  0.16792093  0.87389041  0.16702497  1
  Ba  Ba5  1  0.33648430  0.12539187  0.33281236  1
  Ba  Ba6  1  0.66785230  0.12538977  0.33370235  1
  Ba  Ba7  1  -0.00244444  0.62430970  0.33232050  1
  Ba  Ba8  1  0.33291325  0.37659648  0.66890049  1
  Ba  Ba9  1  0.00187786  0.12613576  0.33140463  1
  Ba  Ba10  1  0.50059852  0.87304161  0.50072383  1
  Ba  Ba11  1  0.33734012  0.12441155  0.99998400  1
  Ba  Ba12  1  0.50225042  0.12598197  0.16947216  1
  Ba  Ba13  1  0.83422983  0.12683105  0.49939048  1
  Ba  Ba14  1  -0.00456667  0.62662556  0.99726569  1
  Ba  Ba15  1  0.66614101  0.87290239  0.66842894  1
  Ba  Ba16  1  -0.00076164  0.12489479  0.66267192  1
  Sr  Sr17  1  0.16880307  0.87525661  0.49600798  1
  Sr  Sr18  1  0.33266110  0.37723295  0.00148198  1
  Sr  Sr19  1  0.16340032  0.62802738  0.50441742  1
  Sr  Sr20  1  0.32753347  0.62395197  0.66571040  1
  Sr  Sr21  1  0.66119384  0.62450027  0.33440150  1
  La  La22  1  0.17482363  0.12524728  0.16951856  1
  La  La23  1  0.32912675  0.62804525  0.33600044  1
  La  La24  1  0.83380318  0.87434171  0.49780990  1
  La  La25  1  0.00394224  0.37645496  -0.00091047  1
  La  La26  1  0.16874505  0.12833468  0.83226287  1
  La  La27  1  0.66677074  0.37408400  0.33548813  1
  La  La28  1  0.00231547  0.87665542  0.66138355  1
  La  La29  1  0.83686231  0.37512587  0.50143191  1
  Pr  Pr30  1  -0.00116775  0.62323711  0.66169470  1
  Pr  Pr31  1  0.00653307  0.87329434  0.33844050  1
  Pr  Pr32  1  0.50308618  0.12462560  0.83825521  1
  Pr  Pr33  1  0.16949879  0.37472881  0.50058726  1
  Pr  Pr34  1  0.49233937  0.62612401  0.83456751  1
  Pr  Pr35  1  0.82540915  0.62659428  0.83637273  1
  Pr  Pr36  1  0.66909091  0.37461722  0.67197310  1
  Pr  Pr37  1  0.49898048  0.37374253  0.83228635  1
  Pr  Pr38  1  0.16099924  0.62387828  0.16816084  1
  Pr  Pr39  1  0.32545302  0.62618967  0.99556775  1
  Pr  Pr40  1  0.66741934  0.12361596  0.66258923  1
  Pr  Pr41  1  0.33507592  0.87734008  0.33789093  1
  Pr  Pr42  1  0.66935556  0.87307647  0.00179961  1
  Pr  Pr43  1  0.83661346  0.87354584  0.82822413  1
  Pr  Pr44  1  0.65928165  0.62267482  0.99732775  1
  Pr  Pr45  1  0.50364499  0.87603762  0.16999569  1
  Pr  Pr46  1  0.00358025  0.37672185  0.33373201  1
  Pr  Pr47  1  0.49727567  0.87635552  0.82845044  1
  Pr  Pr48  1  0.83831960  0.37393503  0.16735875  1
  Pr  Pr49  1  0.49328445  0.62082543  0.16952670  1
  Pr  Pr50  1  0.49142587  0.62581171  0.50623781  1
  Pr  Pr51  1  0.33649224  0.37529406  0.33571486  1
  Pr  Pr52  1  0.49897761  0.37775535  0.50147017  1
  Pr  Pr53  1  0.16858726  0.87588947  0.83196720  1
  Pr  Pr54  1  0.50433180  0.37131368  0.16724121  1
  Pr  Pr55  1  0.83666935  0.87530640  0.16737571  1
  Pr  Pr56  1  0.16731499  0.37405835  0.16138156  1
  Pr  Pr57  1  0.66809213  0.12683711  1.00175569  1
  Pr  Pr58  1  0.83651454  0.37669782  0.83159064  1
  Pr  Pr59  1  0.00419074  0.37339189  0.66820561  1
  Pr  Pr60  1  0.33060125  0.87090716  0.66642730  1
  Pr  Pr61  1  0.50248677  0.12488991  0.50314608  1
  Pr  Pr62  1  0.66984248  0.37652629  0.00444967  1
  Pr  Pr63  1  0.66708006  0.87704221  0.33991515  1
  Pr  Pr64  1  0.82692964  0.62255387  0.17037784  1
  Pr  Pr65  1  0.83288091  0.12325088  0.83363601  1
  Pr  Pr66  1  0.83484470  0.12677855  0.17490762  1
  Pr  Pr67  1  0.16826252  0.12192377  0.50271104  1
  Pr  Pr68  1  0.82960105  0.62264553  0.50342310  1
  Pr  Pr69  1  0.00248704  0.12131893  0.99660755  1
  Pr  Pr70  1  0.33425742  0.87257119  0.00462106  1
  Pr  Pr71  1  0.00422362  0.87284649  0.00047765  1
  Mn  Mn72  1  -0.00030167  -0.00100942  0.16399431  1
  Mn  Mn73  1  0.00088114  -0.00117657  0.49779230  1
  Mn  Mn74  1  -0.00095201  -0.00007634  0.83265747  1
  Mn  Mn75  1  -0.00101232  0.50018937  0.16552018  1
  Mn  Mn76  1  0.00104854  0.49902349  0.49917825  1
  Mn  Mn77  1  -0.00399025  0.50024092  0.83128523  1
  Mn  Mn78  1  0.33635129  -0.00294074  0.16690410  1
  Mn  Mn79  1  0.33402855  0.00036521  0.50002936  1
  Mn  Mn80  1  0.33430183  -0.00089266  0.83327039  1
  Mn  Mn81  1  0.33279292  0.50117401  0.16687948  1
  Mn  Mn82  1  0.33124193  0.49966403  0.49999909  1
  Mn  Mn83  1  0.33388802  0.50136603  0.83479534  1
  Mn  Mn84  1  0.66904800  -0.00394516  0.16721808  1
  Mn  Mn85  1  0.66745516  0.00003863  0.50117511  1
  Mn  Mn86  1  0.66793366  0.00130539  0.83618675  1
  Mn  Mn87  1  0.66645561  0.50183449  0.16762623  1
  Mn  Mn88  1  0.66532527  0.49951030  0.50087916  1
  Mn  Mn89  1  0.66476254  0.49833410  0.83677250  1
  Mn  Mn90  1  0.00108178  0.25002580  0.16323990  1
  Mn  Mn91  1  0.00306837  0.25274864  0.49879543  1
  Mn  Mn92  1  -0.00150884  0.24733729  0.83368880  1
  Mn  Mn93  1  -0.00244997  0.74992191  0.16631458  1
  Mn  Mn94  1  -0.00158748  0.74823311  0.49859899  1
  Mn  Mn95  1  -0.00306860  0.75295816  0.83035591  1
  Mn  Mn96  1  0.33426389  0.25360391  0.16724421  1
  Mn  Mn97  1  0.33462934  0.25154830  0.49913975  1
  Mn  Mn98  1  0.33554798  0.24978214  0.83452786  1
  Mn  Mn99  1  0.33549478  0.74755364  0.16658105  1
  Mn  Mn100  1  0.33088751  0.75007349  0.50048858  1
  Mn  Mn101  1  0.33199424  0.75122364  0.83526183  1
  Mn  Mn102  1  0.66910599  0.25234827  0.16685940  1
  Mn  Mn103  1  0.66532644  0.25306351  0.50397390  1
  Mn  Mn104  1  0.66872838  0.24988047  0.83498913  1
  Mn  Mn105  1  0.66667068  0.74843721  0.16786362  1
  Mn  Mn106  1  0.66728275  0.74672283  0.49823007  1
  Mn  Mn107  1  0.66432952  0.74900787  0.83758073  1
  Mn  Mn108  1  0.16717155  0.24945499  -0.00001415  1
  Mn  Mn109  1  0.16870646  0.25299588  0.33128364  1
  Mn  Mn110  1  0.16678143  0.24884166  0.66550426  1
  Mn  Mn111  1  0.16563063  0.75118372  -0.00042657  1
  Mn  Mn112  1  0.16682896  0.74776111  0.33363562  1
  Mn  Mn113  1  0.16442862  0.75209184  0.66513416  1
  Mn  Mn114  1  0.50224043  0.25202476  -0.00018177  1
  Mn  Mn115  1  0.50099378  0.25403345  0.33487779  1
  Mn  Mn116  1  0.50261135  0.25076235  0.66839339  1
  Mn  Mn117  1  0.50152707  0.75036702  0.00195177  1
  Mn  Mn118  1  0.50036985  0.74586809  0.33284291  1
  Mn  Mn119  1  0.49733757  0.74899625  0.66814694  1
  Mn  Mn120  1  0.83431598  0.24873140  0.00045508  1
  Mn  Mn121  1  0.83461268  0.25309427  0.33268808  1
  Mn  Mn122  1  0.83262629  0.25226420  0.66832120  1
  Mn  Mn123  1  0.83029713  0.75220044  0.00007194  1
  Mn  Mn124  1  0.83005118  0.74769815  0.33191083  1
  Mn  Mn125  1  0.83447474  0.74893801  0.66621454  1
  Mn  Mn126  1  0.16728208  0.00083722  -0.00148168  1
  Mn  Mn127  1  0.16802182  0.00042917  0.33264129  1
  Mn  Mn128  1  0.16730070  -0.00311531  0.66515221  1
  Mn  Mn129  1  0.16618932  0.49974365  0.00034244  1
  Mn  Mn130  1  0.16843883  0.50074044  0.33173079  1
  Mn  Mn131  1  0.16474335  0.50248520  0.66409091  1
  Mn  Mn132  1  0.50432077  -0.00297105  -0.00072889  1
  Mn  Mn133  1  0.50160517  -0.00170694  0.33369824  1
  Mn  Mn134  1  0.49949907  -0.00037648  0.66887834  1
  Mn  Mn135  1  0.49921286  0.49976249  0.00163731  1
  Mn  Mn136  1  0.49938404  0.50145169  0.33433039  1
  Mn  Mn137  1  0.49972128  0.50073434  0.66754437  1
  Mn  Mn138  1  0.83256359  0.00057159  0.00041513  1
  Mn  Mn139  1  0.83465384  -0.00205236  0.33053368  1
  Mn  Mn140  1  0.83298174  -0.00106256  0.66643098  1
  Mn  Mn141  1  0.83122195  0.49825335  0.00090459  1
  Mn  Mn142  1  0.83079652  0.49912019  0.33444153  1
  Mn  Mn143  1  0.83341246  0.49951180  0.66809843  1
  O  O144  1  0.15942047  0.12438750  0.02400875  1
  O  O145  1  0.16802209  0.13000392  0.35748018  1
  O  O146  1  0.16492580  0.11827995  0.68694856  1
  O  O147  1  0.17127707  0.62523323  0.02093242  1
  O  O148  1  0.17255924  0.62263561  0.35494416  1
  O  O149  1  0.15859149  0.62956235  0.67520638  1
  O  O150  1  0.50747960  0.12363354  0.01377020  1
  O  O151  1  0.50118902  0.13171023  0.35621170  1
  O  O152  1  0.50814149  0.12595448  0.69296289  1
  O  O153  1  0.50444351  0.62571285  0.02836402  1
  O  O154  1  0.49869296  0.62243978  0.36153459  1
  O  O155  1  0.49545366  0.62443966  0.68911594  1
  O  O156  1  0.83307108  0.12459862  0.03195716  1
  O  O157  1  0.83528777  0.12932646  0.34044087  1
  O  O158  1  0.82666473  0.12926471  0.68886392  1
  O  O159  1  0.82645725  0.62129564  0.02596777  1
  O  O160  1  0.83203561  0.62132577  0.35933179  1
  O  O161  1  0.84309580  0.62339823  0.69260250  1
  O  O162  1  0.16882651  0.37781775  0.30498061  1
  O  O163  1  0.15775188  0.37769599  0.64762156  1
  O  O164  1  0.16242233  0.37425139  0.99064877  1
  O  O165  1  0.16444211  0.87236523  0.32262994  1
  O  O166  1  0.16924340  0.87451770  0.64610724  1
  O  O167  1  0.16853371  0.87724488  0.97906245  1
  O  O168  1  0.49910373  0.38121828  0.31106376  1
  O  O169  1  0.50790350  0.37649805  0.64669933  1
  O  O170  1  0.51004320  0.37808507  0.97588809  1
  O  O171  1  0.50049563  0.86619035  0.31379951  1
  O  O172  1  0.49603685  0.87378976  0.65861100  1
  O  O173  1  0.50972622  0.87192305  0.97195718  1
  O  O174  1  0.82937015  0.37702137  0.31169536  1
  O  O175  1  0.82498821  0.37738446  0.64731680  1
  O  O176  1  0.82900046  0.37116107  0.97295379  1
  O  O177  1  0.82281870  0.87091880  0.31016876  1
  O  O178  1  0.83537768  0.86991892  0.64475722  1
  O  O179  1  0.82399752  0.88160149  0.96932405  1
  O  O180  1  0.00332601  0.37616320  0.18779177  1
  O  O181  1  0.00729502  0.37679389  0.52395606  1
  O  O182  1  -0.00936158  0.36854270  0.85660589  1
  O  O183  1  -0.00562294  0.87256728  0.19217288  1
  O  O184  1  -0.00483698  0.87144696  0.51536889  1
  O  O185  1  -0.01184461  0.87926736  0.85829176  1
  O  O186  1  0.32337014  0.38095669  0.19121696  1
  O  O187  1  0.33481085  0.37594504  0.51339886  1
  O  O188  1  0.34150536  0.37787994  0.84965885  1
  O  O189  1  0.33958920  0.86646937  0.19310121  1
  O  O190  1  0.33184508  0.87581187  0.52124705  1
  O  O191  1  0.33319408  0.87528729  0.86092991  1
  O  O192  1  0.66266882  0.38118755  0.18948296  1
  O  O193  1  0.65833333  0.37641139  0.52920277  1
  O  O194  1  0.66703191  0.37342902  0.86237378  1
  O  O195  1  0.66702404  0.86830023  0.19510662  1
  O  O196  1  0.67351434  0.87331460  0.50925848  1
  O  O197  1  0.66537162  0.87346863  0.85780783  1
  O  O198  1  -0.01043502  0.12666024  0.14024889  1
  O  O199  1  0.00640845  0.12742587  0.48803728  1
  O  O200  1  -0.00233206  0.12332166  0.81787302  1
  O  O201  1  -0.00334097  0.62424458  0.15335069  1
  O  O202  1  -0.00650134  0.62290144  0.48734400  1
  O  O203  1  -0.01053046  0.63077836  0.80774320  1
  O  O204  1  0.33163098  0.12721307  0.15696163  1
  O  O205  1  0.33392133  0.12756750  0.48825281  1
  O  O206  1  0.34118535  0.12151625  0.82417295  1
  O  O207  1  0.34455902  0.62430854  0.13685132  1
  O  O208  1  0.33621610  0.62277757  0.47995550  1
  O  O209  1  0.34168155  0.62769856  0.81878088  1
  O  O210  1  0.67470684  0.12375547  0.14560014  1
  O  O211  1  0.66048744  0.12795222  0.49080969  1
  O  O212  1  0.66723111  0.12955988  0.80623833  1
  O  O213  1  0.67305129  0.62476453  0.13882396  1
  O  O214  1  0.67560792  0.62135500  0.48163591  1
  O  O215  1  0.67460680  0.62296822  0.82446024  1
  O  O216  1  0.08856334  0.01732700  0.24123263  1
  O  O217  1  0.08787287  0.00859999  0.57710900  1
  O  O218  1  0.08183371  0.01717671  0.91398450  1
  O  O219  1  0.08700834  0.51359495  0.24713164  1
  O  O220  1  0.07621422  0.51749592  0.58465336  1
  O  O221  1  0.07393640  0.50512608  0.91757992  1
  O  O222  1  0.42148378  -0.00020380  0.24687720  1
  O  O223  1  0.42367653  0.01629339  0.57712155  1
  O  O224  1  0.43007317  0.00757232  0.90828446  1
  O  O225  1  0.41053833  0.52098978  0.25704913  1
  O  O226  1  0.41259707  0.51607484  0.58312138  1
  O  O227  1  0.41350307  0.52235248  0.92708844  1
  O  O228  1  0.75737122  0.01127411  0.24140854  1
  O  O229  1  0.74683143  0.01390908  0.58999184  1
  O  O230  1  0.75103945  0.03020001  0.92035777  1
  O  O231  1  0.74406177  0.51908647  0.25088228  1
  O  O232  1  0.75233299  0.51330821  0.58517494  1
  O  O233  1  0.73789017  0.51388053  0.92966759  1
  O  O234  1  0.24864504  0.23861192  0.24818336  1
  O  O235  1  0.24649190  0.24001622  0.57586549  1
  O  O236  1  0.24581825  0.23563449  0.91692346  1
  O  O237  1  0.25013170  0.72396755  0.24274427  1
  O  O238  1  0.24862530  0.73879338  0.58228341  1
  O  O239  1  0.25120490  0.73761206  0.91793040  1
  O  O240  1  0.58701770  0.24911173  0.25453356  1
  O  O241  1  0.58435940  0.22871210  0.58789197  1
  O  O242  1  0.58970995  0.22738398  0.91664262  1
  O  O243  1  0.57481727  0.72810252  0.23776140  1
  O  O244  1  0.57868108  0.73254562  0.57374582  1
  O  O245  1  0.57828475  0.72420163  0.91752511  1
  O  O246  1  0.91826289  0.24381563  0.24158521  1
  O  O247  1  0.91483728  0.25251081  0.58539975  1
  O  O248  1  0.91566760  0.22381756  0.92027959  1
  O  O249  1  0.90263148  0.73612649  0.23960909  1
  O  O250  1  0.91183245  0.72837240  0.57820832  1
  O  O251  1  0.90168656  0.73824602  0.90286804  1
  O  O252  1  0.08543474  0.48437441  0.08685389  1
  O  O253  1  0.08689194  0.47663111  0.41573988  1
  O  O254  1  0.07580050  0.49020364  0.74292759  1
  O  O255  1  0.07509597  0.98567471  0.07448151  1
  O  O256  1  0.08094108  0.98451075  0.41219556  1
  O  O257  1  0.08428178  0.97538137  0.75094503  1
  O  O258  1  0.42656554  0.47842692  0.09414215  1
  O  O259  1  0.42107267  0.48040040  0.41977858  1
  O  O260  1  0.42829413  0.48841987  0.76287476  1
  O  O261  1  0.42112198  0.97351985  0.07846291  1
  O  O262  1  0.41279344  0.98431276  0.41202848  1
  O  O263  1  0.41122179  0.97739785  0.74681192  1
  O  O264  1  0.75658111  0.47464920  0.08947330  1
  O  O265  1  0.75088647  0.47505237  0.42362360  1
  O  O266  1  0.75434430  0.48166547  0.75949197  1
  O  O267  1  0.74914083  0.97473225  0.08105904  1
  O  O268  1  0.75339144  0.98368908  0.41443834  1
  O  O269  1  0.75446710  0.98661146  0.76106764  1
  O  O270  1  0.24545605  0.26467235  0.08838181  1
  O  O271  1  0.24979713  0.27534495  0.41435718  1
  O  O272  1  0.24683291  0.25182346  0.75215679  1
  O  O273  1  0.26171342  0.76245041  0.07713858  1
  O  O274  1  0.25611508  0.76497972  0.40957474  1
  O  O275  1  0.24965828  0.77192618  0.75123056  1
  O  O276  1  0.58600775  0.27070206  0.08356988  1
  O  O277  1  0.57983981  0.27521107  0.42274119  1
  O  O278  1  0.58758570  0.27485981  0.75306775  1
  O  O279  1  0.59054523  0.77142092  0.07912451  1
  O  O280  1  0.59208514  0.76067650  0.40452544  1
  O  O281  1  0.57888049  0.75871689  0.76024956  1
  O  O282  1  0.91530686  0.27619512  0.08097240  1
  O  O283  1  0.91987944  0.27533848  0.41636825  1
  O  O284  1  0.91277343  0.26979232  0.75214290  1
  O  O285  1  0.91700577  0.77564616  0.07342514  1
  O  O286  1  0.91708597  0.77137978  0.40954458  1
  O  O287  1  0.92263804  0.77584343  0.74165899  1
  O  O288  1  0.25055156  0.48719374  0.08631660  1
  O  O289  1  0.25502249  0.47884041  0.40951129  1
  O  O290  1  0.25120077  0.49851962  0.74644106  1
  O  O291  1  0.25779696  0.98462573  0.07798158  1
  O  O292  1  0.25177611  0.98455733  0.41588862  1
  O  O293  1  0.25025834  0.97564249  0.74883225  1
  O  O294  1  0.59161666  0.48291350  0.07616300  1
  O  O295  1  0.58666081  0.47789366  0.41115907  1
  O  O296  1  0.59046151  0.47857877  0.75028726  1
  O  O297  1  0.58633799  0.97464791  0.08478178  1
  O  O298  1  0.58614098  0.98759718  0.41500843  1
  O  O299  1  0.57539506  0.98783142  0.76209196  1
  O  O300  1  0.91902650  0.47536805  0.07550275  1
  O  O301  1  0.92093610  0.47455670  0.41591134  1
  O  O302  1  0.91846680  0.47317990  0.74465837  1
  O  O303  1  0.91471196  0.97255711  0.07892827  1
  O  O304  1  0.91780640  0.97628997  0.41001489  1
  O  O305  1  0.91603290  0.98152491  0.74944892  1
  O  O306  1  0.07896936  0.26794010  0.07862013  1
  O  O307  1  0.08460687  0.27760338  0.40942455  1
  O  O308  1  0.07687628  0.26297100  0.74471373  1
  O  O309  1  0.08123553  0.76345341  0.07991126  1
  O  O310  1  0.08101996  0.76362490  0.41790354  1
  O  O311  1  0.08351723  0.77630072  0.75281504  1
  O  O312  1  0.41849040  0.27292880  0.08552605  1
  O  O313  1  0.41684685  0.27405310  0.41461298  1
  O  O314  1  0.42559004  0.26326018  0.75267954  1
  O  O315  1  0.42489006  0.77504091  0.08708956  1
  O  O316  1  0.41291504  0.76119819  0.41221681  1
  O  O317  1  0.41283848  0.77146170  0.75584742  1
  O  O318  1  0.74998928  0.27231428  0.07944427  1
  O  O319  1  0.74735429  0.27312284  0.42237747  1
  O  O320  1  0.75091478  0.27485589  0.75569585  1
  O  O321  1  0.75398786  0.77425568  0.09059353  1
  O  O322  1  0.75476039  0.76658056  0.41825534  1
  O  O323  1  0.75865341  0.76048795  0.76207328  1
  O  O324  1  0.24877082  0.00941696  0.24913205  1
  O  O325  1  0.24844353  0.01443963  0.57913662  1
  O  O326  1  0.24337261  0.01476016  0.90768445  1
  O  O327  1  0.24904037  0.52881049  0.24518103  1
  O  O328  1  0.24070800  0.50792346  0.57398683  1
  O  O329  1  0.25215293  0.51359531  0.92083976  1
  O  O330  1  0.58776259  0.00137564  0.25084701  1
  O  O331  1  0.58349176  0.01849116  0.58871941  1
  O  O332  1  0.59185255  0.02217913  0.92217112  1
  O  O333  1  0.57414930  0.51854775  0.24167097  1
  O  O334  1  0.57302172  0.51713905  0.57260213  1
  O  O335  1  0.57421898  0.52273380  0.91110386  1
  O  O336  1  0.91366842  0.01057469  0.24243101  1
  O  O337  1  0.91721608  0.00191956  0.57875250  1
  O  O338  1  0.91387546  0.02419452  0.91884179  1
  O  O339  1  0.90708550  0.50857912  0.23850425  1
  O  O340  1  0.91240492  0.51426888  0.58090180  1
  O  O341  1  0.89962967  0.51354911  0.90579884  1
  O  O342  1  0.09089281  0.23593674  0.23830727  1
  O  O343  1  0.09179689  0.23797989  0.57247500  1
  O  O344  1  0.08206517  0.22793418  0.91594051  1
  O  O345  1  0.08681846  0.73432287  0.24823168  1
  O  O346  1  0.07139560  0.73976328  0.59031856  1
  O  O347  1  0.07637755  0.75018659  0.91445011  1
  O  O348  1  0.41992211  0.25427575  0.24814451  1
  O  O349  1  0.42755153  0.24001672  0.57491231  1
  O  O350  1  0.42780470  0.24147330  0.91237607  1
  O  O351  1  0.41460597  0.72273245  0.25143061  1
  O  O352  1  0.41296522  0.73328416  0.58293394  1
  O  O353  1  0.41464550  0.73156864  0.92410727  1
  O  O354  1  0.75664004  0.24308747  0.24083755  1
  O  O355  1  0.74349364  0.24010008  0.59336180  1
  O  O356  1  0.75289647  0.22327816  0.91690895  1
  O  O357  1  0.74524849  0.72436488  0.25201837  1
  O  O358  1  0.75443810  0.73293982  0.58117948  1
  O  O359  1  0.73989467  0.73208306  0.92865068  1
