# generated using pymatgen
data_Ba17Sr5La8Pr42Mn72O216
_symmetry_space_group_name_H-M   'P 1'
_cell_length_a   16.66747411
_cell_length_b   15.70554756
_cell_length_c   16.81815469
_cell_angle_alpha   89.99237544
_cell_angle_beta   89.98341352
_cell_angle_gamma   90.00786149
_symmetry_Int_Tables_number   1
_chemical_formula_structural   Ba17Sr5La8Pr42Mn72O216
_chemical_formula_sum   'Ba17 Sr5 La8 Pr42 Mn72 O216'
_cell_volume   4402.51848562
_cell_formula_units_Z   1
loop_
 _symmetry_equiv_pos_site_id
 _symmetry_equiv_pos_as_xyz
  1  'x, y, z'
loop_
 _atom_site_type_symbol
 _atom_site_label
 _atom_site_symmetry_multiplicity
 _atom_site_fract_x
 _atom_site_fract_y
 _atom_site_fract_z
 _atom_site_occupancy
  Ba  Ba0  1  0.00079198  0.12795063  0.33250861  1
  Ba  Ba1  1  0.16552554  0.87616573  0.83455628  1
  Ba  Ba2  1  0.49969348  0.37434294  0.16510175  1
  Ba  Ba3  1  -0.00155211  0.87540538  0.00212136  1
  Ba  Ba4  1  0.66596354  0.87513538  0.33524029  1
  Ba  Ba5  1  0.33292461  0.87669834  0.00087923  1
  Ba  Ba6  1  -0.00079423  0.87372493  0.66739928  1
  Ba  Ba7  1  0.16688728  0.62469776  0.16919097  1
  Ba  Ba8  1  0.00143073  0.62479054  0.66540680  1
  Ba  Ba9  1  0.16524359  0.87443164  0.16567537  1
  Ba  Ba10  1  0.66586078  0.12340458  0.33339792  1
  Ba  Ba11  1  0.83294052  0.87469664  0.16659736  1
  Ba  Ba12  1  0.66650215  0.37515315  -0.00182883  1
  Ba  Ba13  1  0.33314411  0.37390348  0.00132682  1
  Ba  Ba14  1  0.33212530  0.37327238  0.66933811  1
  Ba  Ba15  1  0.33429099  0.62568804  0.33394433  1
  Ba  Ba16  1  0.50241427  0.62674903  0.83300312  1
  Sr  Sr17  1  0.82912518  0.37752860  0.49874916  1
  Sr  Sr18  1  -0.00015725  0.87317892  0.33250103  1
  Sr  Sr19  1  0.00008929  0.62336627  0.33201623  1
  Sr  Sr20  1  0.82543083  0.37541238  0.82747055  1
  Sr  Sr21  1  0.66410645  0.37389338  0.66949437  1
  La  La22  1  0.83678199  0.12329433  0.50046702  1
  La  La23  1  0.66918327  0.12601687  1.00022405  1
  La  La24  1  0.33115478  0.87562118  0.67052512  1
  La  La25  1  0.66538189  0.87555717  0.66722503  1
  La  La26  1  0.33664642  0.62697092  0.66390040  1
  La  La27  1  0.16150969  0.37614932  0.49966534  1
  La  La28  1  0.50113185  0.62291771  0.16549457  1
  La  La29  1  0.00244491  0.12314287  1.00148842  1
  Pr  Pr30  1  0.16917995  0.62470134  0.83614788  1
  Pr  Pr31  1  0.83865690  0.12770343  0.83325422  1
  Pr  Pr32  1  0.00565460  0.12498788  0.66154528  1
  Pr  Pr33  1  -0.00339050  0.37579664  -0.00051128  1
  Pr  Pr34  1  -0.00835201  0.37514984  0.66967404  1
  Pr  Pr35  1  0.50205929  0.12764353  0.83484986  1
  Pr  Pr36  1  0.83158107  0.87416902  0.83146153  1
  Pr  Pr37  1  0.16085099  0.87413745  0.49551655  1
  Pr  Pr38  1  -0.00649694  0.37775347  0.33471203  1
  Pr  Pr39  1  0.83537001  0.12465558  0.16904777  1
  Pr  Pr40  1  0.16306381  0.37612696  0.16683539  1
  Pr  Pr41  1  0.67272834  0.61963037  0.66511340  1
  Pr  Pr42  1  0.67503079  0.12955804  0.66299262  1
  Pr  Pr43  1  0.50016496  0.37679851  0.82952485  1
  Pr  Pr44  1  0.17147605  0.12282817  0.16762239  1
  Pr  Pr45  1  0.32496644  0.37694087  0.33750098  1
  Pr  Pr46  1  0.83749285  0.87161883  0.49141614  1
  Pr  Pr47  1  0.83679956  0.62739464  0.50151306  1
  Pr  Pr48  1  0.66964208  0.62427820  0.33189859  1
  Pr  Pr49  1  0.49518181  0.87544224  0.83111531  1
  Pr  Pr50  1  0.67181590  0.62224115  0.99745882  1
  Pr  Pr51  1  0.49958651  0.87628764  0.16758644  1
  Pr  Pr52  1  0.50501074  0.62689975  0.50646213  1
  Pr  Pr53  1  0.17108548  0.12489400  0.83476726  1
  Pr  Pr54  1  0.49182175  0.87574740  0.49521531  1
  Pr  Pr55  1  0.50880290  0.12491174  0.50380350  1
  Pr  Pr56  1  0.16805317  0.62618955  0.50191708  1
  Pr  Pr57  1  0.32566631  0.87347018  0.33335818  1
  Pr  Pr58  1  0.00520396  0.62823767  0.99814919  1
  Pr  Pr59  1  0.66026232  0.37381212  0.33691272  1
  Pr  Pr60  1  0.33536065  0.12501123  0.33237030  1
  Pr  Pr61  1  0.16844951  0.12399113  0.50242437  1
  Pr  Pr62  1  0.83667431  0.62346280  0.16638924  1
  Pr  Pr63  1  0.33898116  0.12265536  0.66334603  1
  Pr  Pr64  1  0.49463703  0.37460619  0.49669674  1
  Pr  Pr65  1  0.33641398  0.12361517  1.00153133  1
  Pr  Pr66  1  0.83922241  0.62146805  0.83404202  1
  Pr  Pr67  1  0.15954128  0.37445835  0.82829599  1
  Pr  Pr68  1  0.83213592  0.37056635  0.16509364  1
  Pr  Pr69  1  0.66416066  0.87168794  0.00479360  1
  Pr  Pr70  1  0.50056764  0.12701339  0.16643338  1
  Pr  Pr71  1  0.33655862  0.62703152  1.00144040  1
  Mn  Mn72  1  -0.00036056  0.00183403  0.16704220  1
  Mn  Mn73  1  0.00021042  0.00119397  0.49978560  1
  Mn  Mn74  1  -0.00148023  0.00235814  0.83174481  1
  Mn  Mn75  1  -0.00187722  0.49710404  0.16621275  1
  Mn  Mn76  1  -0.00063703  0.49886095  0.49915960  1
  Mn  Mn77  1  -0.00054709  0.49858740  0.83335892  1
  Mn  Mn78  1  0.33479763  0.00222565  0.16806923  1
  Mn  Mn79  1  0.33260584  0.00122289  0.49982715  1
  Mn  Mn80  1  0.33501118  0.00215648  0.83191295  1
  Mn  Mn81  1  0.33364151  0.49934427  0.16814486  1
  Mn  Mn82  1  0.33382452  0.49963285  0.50120680  1
  Mn  Mn83  1  0.33308788  0.49993542  0.83452838  1
  Mn  Mn84  1  0.66606536  -0.00076484  0.16437914  1
  Mn  Mn85  1  0.66831174  0.00057415  0.50309590  1
  Mn  Mn86  1  0.66725569  -0.00017349  0.83336910  1
  Mn  Mn87  1  0.66849322  0.50140923  0.16758779  1
  Mn  Mn88  1  0.66533204  0.49874845  0.49934749  1
  Mn  Mn89  1  0.66727775  0.50042045  0.83108967  1
  Mn  Mn90  1  0.00060153  0.25181302  0.16509389  1
  Mn  Mn91  1  -0.00070572  0.25213815  0.49983633  1
  Mn  Mn92  1  -0.00133512  0.24938696  0.83156024  1
  Mn  Mn93  1  -0.00137227  0.74781059  0.16722808  1
  Mn  Mn94  1  0.00087095  0.74842388  0.49769652  1
  Mn  Mn95  1  -0.00035397  0.74892420  0.83319062  1
  Mn  Mn96  1  0.33228159  0.24933359  0.16901252  1
  Mn  Mn97  1  0.33282061  0.24880313  0.50009901  1
  Mn  Mn98  1  0.33353842  0.24906402  0.83441095  1
  Mn  Mn99  1  0.33635390  0.75036728  0.16716434  1
  Mn  Mn100  1  0.33292829  0.75118946  0.50064503  1
  Mn  Mn101  1  0.33358106  0.74928410  0.83241382  1
  Mn  Mn102  1  0.66723148  0.24938722  0.16697617  1
  Mn  Mn103  1  0.66709415  0.25227007  0.50111752  1
  Mn  Mn104  1  0.66606748  0.24821129  0.83062690  1
  Mn  Mn105  1  0.66645738  0.74829378  0.16628379  1
  Mn  Mn106  1  0.66643509  0.74914827  0.50176094  1
  Mn  Mn107  1  0.66912119  0.75166694  0.83440647  1
  Mn  Mn108  1  0.16634040  0.25118317  -0.00042658  1
  Mn  Mn109  1  0.16668033  0.24981317  0.33347410  1
  Mn  Mn110  1  0.16622739  0.24966470  0.66673334  1
  Mn  Mn111  1  0.16703048  0.74781637  0.00089058  1
  Mn  Mn112  1  0.16386968  0.75041725  0.33398490  1
  Mn  Mn113  1  0.16867903  0.74894949  0.66653945  1
  Mn  Mn114  1  0.50103167  0.24722486  -0.00071511  1
  Mn  Mn115  1  0.49766892  0.24957602  0.33404512  1
  Mn  Mn116  1  0.50141812  0.24927576  0.66736750  1
  Mn  Mn117  1  0.50135882  0.75104393  0.00103804  1
  Mn  Mn118  1  0.49983596  0.74951395  0.33465147  1
  Mn  Mn119  1  0.50252062  0.75193050  0.66595997  1
  Mn  Mn120  1  0.83409913  0.25084301  -0.00147949  1
  Mn  Mn121  1  0.83089810  0.25213478  0.33323749  1
  Mn  Mn122  1  0.83403534  0.25085705  0.66659279  1
  Mn  Mn123  1  0.83306351  0.74718876  -0.00152255  1
  Mn  Mn124  1  0.83470515  0.74701836  0.33321888  1
  Mn  Mn125  1  0.83123219  0.75066708  0.66575416  1
  Mn  Mn126  1  0.16650933  0.00359812  0.00117959  1
  Mn  Mn127  1  0.16617858  0.00157153  0.33491215  1
  Mn  Mn128  1  0.16783030  0.00195963  0.66619857  1
  Mn  Mn129  1  0.16709229  0.49810896  -0.00085958  1
  Mn  Mn130  1  0.16431001  0.49854528  0.33417985  1
  Mn  Mn131  1  0.16715830  0.49950499  0.66706865  1
  Mn  Mn132  1  0.50268009  0.00022245  -0.00014125  1
  Mn  Mn133  1  0.49683522  0.00052985  0.33402172  1
  Mn  Mn134  1  0.50309496  0.00001079  0.66703703  1
  Mn  Mn135  1  0.50077795  0.50102569  -0.00079580  1
  Mn  Mn136  1  0.49966258  0.50052705  0.33483662  1
  Mn  Mn137  1  0.50098349  0.49956553  0.66591825  1
  Mn  Mn138  1  0.83213945  0.00328875  -0.00204386  1
  Mn  Mn139  1  0.83407572  0.00076189  0.33384755  1
  Mn  Mn140  1  0.83322389  -0.00003203  0.66708462  1
  Mn  Mn141  1  0.83468245  0.49708415  -0.00009930  1
  Mn  Mn142  1  0.83078465  0.49955396  0.33254950  1
  Mn  Mn143  1  0.83192507  0.49929141  0.66502967  1
  O  O144  1  0.16365609  0.13141889  0.02319000  1
  O  O145  1  0.17309744  0.12678535  0.35986778  1
  O  O146  1  0.16102900  0.12810869  0.68968725  1
  O  O147  1  0.15947918  0.61953907  0.01128722  1
  O  O148  1  0.16244040  0.62256355  0.35716069  1
  O  O149  1  0.17241010  0.62145515  0.68918435  1
  O  O150  1  0.50313336  0.12113604  0.02201428  1
  O  O151  1  0.49071616  0.12413430  0.36148429  1
  O  O152  1  0.49777220  0.12354985  0.69103722  1
  O  O153  1  0.49965420  0.63090683  0.01896276  1
  O  O154  1  0.50491408  0.62258033  0.36239922  1
  O  O155  1  0.49537270  0.62803354  0.67594667  1
  O  O156  1  0.82943759  0.12960436  0.02359295  1
  O  O157  1  0.83272098  0.13008378  0.35601031  1
  O  O158  1  0.83313191  0.12441739  0.68932591  1
  O  O159  1  0.82775311  0.61904731  0.02170407  1
  O  O160  1  0.82675583  0.62107819  0.35936091  1
  O  O161  1  0.82617205  0.62529577  0.68813856  1
  O  O162  1  0.17382600  0.37113746  0.31160705  1
  O  O163  1  0.16419481  0.37297799  0.64383715  1
  O  O164  1  0.16404772  0.37293046  0.97076507  1
  O  O165  1  0.17018031  0.87869789  0.32512137  1
  O  O166  1  0.17571192  0.87882217  0.64232184  1
  O  O167  1  0.16677616  0.87595287  0.99198327  1
  O  O168  1  0.50618835  0.37476767  0.32139947  1
  O  O169  1  0.50271974  0.37096817  0.64167431  1
  O  O170  1  0.50017069  0.36970003  0.97522993  1
  O  O171  1  0.49444498  0.87833901  0.31196094  1
  O  O172  1  0.50478361  0.87689468  0.63879372  1
  O  O173  1  0.50761045  0.87680691  0.97400328  1
  O  O174  1  0.83061082  0.37662282  0.30865492  1
  O  O175  1  0.83704851  0.37463143  0.64868781  1
  O  O176  1  0.84041014  0.37355208  0.97537267  1
  O  O177  1  0.83673448  0.87245366  0.32764434  1
  O  O178  1  0.82674477  0.87673666  0.63880108  1
  O  O179  1  0.82702660  0.87620341  0.97505315  1
  O  O180  1  -0.00101036  0.37348988  0.19065102  1
  O  O181  1  0.00363351  0.37470326  0.52632745  1
  O  O182  1  0.00658626  0.37265572  0.85667472  1
  O  O183  1  -0.00128935  0.87935667  0.17946724  1
  O  O184  1  -0.00114542  0.87607975  0.51028524  1
  O  O185  1  -0.00845107  0.87342938  0.84480535  1
  O  O186  1  0.33033651  0.36986387  0.19196059  1
  O  O187  1  0.33384364  0.37337647  0.51397296  1
  O  O188  1  0.33449578  0.37288341  0.84581645  1
  O  O189  1  0.34265016  0.87917500  0.18870507  1
  O  O190  1  0.33238909  0.87868046  0.52782024  1
  O  O191  1  0.33992872  0.87790506  0.84320063  1
  O  O192  1  0.67343767  0.37898258  0.19215485  1
  O  O193  1  0.66017622  0.37534276  0.52086633  1
  O  O194  1  0.66264223  0.37284701  0.84232406  1
  O  O195  1  0.66227804  0.87339336  0.17873631  1
  O  O196  1  0.67044056  0.87643064  0.52343855  1
  O  O197  1  0.67688672  0.87716778  0.86270072  1
  O  O198  1  -0.00203596  0.13144251  0.14693864  1
  O  O199  1  -0.00032853  0.12765026  0.48923115  1
  O  O200  1  -0.00848696  0.12950593  0.80422448  1
  O  O201  1  -0.00716173  0.61564511  0.14341980  1
  O  O202  1  0.00295048  0.62210333  0.48273245  1
  O  O203  1  -0.00180429  0.62255838  0.82147858  1
  O  O204  1  0.32913159  0.12587012  0.14724093  1
  O  O205  1  0.33106347  0.12376078  0.47426973  1
  O  O206  1  0.33542026  0.12548198  0.80728164  1
  O  O207  1  0.34048506  0.62713524  0.14939288  1
  O  O208  1  0.33738187  0.62566733  0.48958178  1
  O  O209  1  0.32755096  0.62388918  0.80838296  1
  O  O210  1  0.66482117  0.12141842  0.14554205  1
  O  O211  1  0.66442159  0.12659883  0.48924089  1
  O  O212  1  0.65835929  0.12080514  0.80435735  1
  O  O213  1  0.66891733  0.62557834  0.14238026  1
  O  O214  1  0.66018999  0.62196232  0.47538465  1
  O  O215  1  0.67203800  0.62924451  0.80819113  1
  O  O216  1  0.09067549  0.01837426  0.24634204  1
  O  O217  1  0.08785781  0.01967486  0.58094777  1
  O  O218  1  0.08422536  0.02438926  0.91350748  1
  O  O219  1  0.08058706  0.50272566  0.25154985  1
  O  O220  1  0.09579273  0.51386533  0.57436824  1
  O  O221  1  0.08907053  0.51488006  0.90902699  1
  O  O222  1  0.41601744  0.02637703  0.25139871  1
  O  O223  1  0.41986146  0.02207668  0.57736663  1
  O  O224  1  0.42057679  0.02185921  0.91595262  1
  O  O225  1  0.42607414  0.51448096  0.24685517  1
  O  O226  1  0.42485456  0.51358098  0.57644508  1
  O  O227  1  0.41513007  0.51486152  0.91671111  1
  O  O228  1  0.75306285  0.01485633  0.24138591  1
  O  O229  1  0.75374358  0.02461122  0.58560463  1
  O  O230  1  0.75476121  0.02794248  0.90771443  1
  O  O231  1  0.75062007  0.52616380  0.24914937  1
  O  O232  1  0.75143312  0.52219671  0.57498247  1
  O  O233  1  0.75447307  0.51922073  0.91309612  1
  O  O234  1  0.25554560  0.22719066  0.25870033  1
  O  O235  1  0.25409660  0.22504546  0.58908271  1
  O  O236  1  0.25459569  0.22419753  0.92291439  1
  O  O237  1  0.25531789  0.74857372  0.25533608  1
  O  O238  1  0.25436909  0.72834333  0.58488495  1
  O  O239  1  0.24859419  0.72818594  0.91509033  1
  O  O240  1  0.57931233  0.23543024  0.24998537  1
  O  O241  1  0.58741460  0.22756419  0.58933611  1
  O  O242  1  0.58419813  0.22618851  0.91451942  1
  O  O243  1  0.58921125  0.72718573  0.25359656  1
  O  O244  1  0.59004879  0.72923037  0.59058865  1
  O  O245  1  0.59713301  0.73679225  0.92748970  1
  O  O246  1  0.91291940  0.23993065  0.24383506  1
  O  O247  1  0.92205734  0.23224494  0.59096103  1
  O  O248  1  0.92017083  0.22723198  0.91868833  1
  O  O249  1  0.91323831  0.72722001  0.24936612  1
  O  O250  1  0.91196018  0.73789363  0.57642756  1
  O  O251  1  0.91825769  0.72613705  0.91994494  1
  O  O252  1  0.07953219  0.47508393  0.07818822  1
  O  O253  1  0.07917369  0.47355631  0.41352079  1
  O  O254  1  0.07758333  0.47644851  0.74413465  1
  O  O255  1  0.08110631  1.00280053  0.08200420  1
  O  O256  1  0.08693132  0.98885888  0.42097280  1
  O  O257  1  0.08137294  0.99678949  0.74740481  1
  O  O258  1  0.41475871  0.49747921  0.08093563  1
  O  O259  1  0.41156977  0.47760371  0.41260657  1
  O  O260  1  0.41762169  0.48651841  0.75082790  1
  O  O261  1  0.42467197  0.99084492  0.08964845  1
  O  O262  1  0.40917524  0.97615859  0.41439726  1
  O  O263  1  0.41913276  0.98120682  0.74530829  1
  O  O264  1  0.75655880  0.48409303  0.08860030  1
  O  O265  1  0.73882773  0.48094287  0.40854507  1
  O  O266  1  0.74490338  0.48971874  0.74357858  1
  O  O267  1  0.74118591  0.98908247  0.06950611  1
  O  O268  1  0.75335111  0.98880896  0.42498182  1
  O  O269  1  0.74513061  0.97883280  0.74615420  1
  O  O270  1  0.24009576  0.26388848  0.09728796  1
  O  O271  1  0.24323286  0.26988999  0.42092271  1
  O  O272  1  0.23682310  0.26060697  0.76051484  1
  O  O273  1  0.25538282  0.74982851  0.07938162  1
  O  O274  1  0.24565944  0.76881492  0.42460363  1
  O  O275  1  0.25644559  0.76360003  0.74319269  1
  O  O276  1  0.58422774  0.25298366  0.08121334  1
  O  O277  1  0.57502976  0.26444134  0.42416262  1
  O  O278  1  0.57718923  0.26604787  0.75448859  1
  O  O279  1  0.57816616  0.76933878  0.08885445  1
  O  O280  1  0.57223518  0.76626862  0.42898728  1
  O  O281  1  0.58201116  0.77610802  0.75828372  1
  O  O282  1  0.91773869  0.27125451  0.08110440  1
  O  O283  1  0.91305398  0.27183276  0.41558827  1
  O  O284  1  0.91329050  0.27120183  0.75305245  1
  O  O285  1  0.91100706  0.75022461  0.08299165  1
  O  O286  1  0.91484299  0.75818262  0.41814736  1
  O  O287  1  0.90576141  0.75984858  0.75714932  1
  O  O288  1  0.24193034  0.48353304  0.08943327  1
  O  O289  1  0.24302887  0.48267926  0.42394754  1
  O  O290  1  0.23794446  0.48463488  0.76225950  1
  O  O291  1  0.25174503  1.00008923  0.08451739  1
  O  O292  1  0.24863743  0.97940718  0.42222239  1
  O  O293  1  0.25502483  0.99250587  0.74246598  1
  O  O294  1  0.58470747  0.49718596  0.08625630  1
  O  O295  1  0.57699462  0.47751650  0.42377390  1
  O  O296  1  0.57892000  0.48478732  0.75141912  1
  O  O297  1  0.58310856  0.97789470  0.08150555  1
  O  O298  1  0.57240723  0.98789382  0.42696776  1
  O  O299  1  0.58195436  0.97215414  0.75790806  1
  O  O300  1  0.91567587  0.47333880  0.08387240  1
  O  O301  1  0.91428393  0.48137682  0.41239667  1
  O  O302  1  0.91476164  0.48403029  0.75349773  1
  O  O303  1  0.91192443  1.00063296  0.08255510  1
  O  O304  1  0.91352002  0.98978129  0.42501242  1
  O  O305  1  0.90435018  0.98594885  0.75797120  1
  O  O306  1  0.07853735  0.27486853  0.07577006  1
  O  O307  1  0.07953096  0.27427430  0.40997830  1
  O  O308  1  0.07543855  0.27131738  0.74162294  1
  O  O309  1  0.07996988  0.75004527  0.08071409  1
  O  O310  1  0.08473798  0.76596702  0.41925990  1
  O  O311  1  0.08621836  0.75499150  0.75058525  1
  O  O312  1  0.41377494  0.24938791  0.08233287  1
  O  O313  1  0.41105728  0.27031301  0.41139734  1
  O  O314  1  0.42110754  0.26209751  0.75404420  1
  O  O315  1  0.42143712  0.76641034  0.08735125  1
  O  O316  1  0.40793414  0.77589987  0.41441974  1
  O  O317  1  0.41901125  0.77043177  0.74488077  1
  O  O318  1  0.75585376  0.26403931  0.08593264  1
  O  O319  1  0.74156391  0.27182548  0.41238934  1
  O  O320  1  0.74551769  0.25568361  0.74441199  1
  O  O321  1  0.74045723  0.75984358  0.07081751  1
  O  O322  1  0.75293008  0.75927595  0.42299503  1
  O  O323  1  0.74487443  0.77572719  0.74688606  1
  O  O324  1  0.25366479  0.01959411  0.25604034  1
  O  O325  1  0.25312372  0.02781315  0.58340073  1
  O  O326  1  0.25115640  0.02416303  0.91664730  1
  O  O327  1  0.25239561  0.50388893  0.25681312  1
  O  O328  1  0.25611797  0.52021249  0.58938657  1
  O  O329  1  0.25459475  0.52361266  0.92209971  1
  O  O330  1  0.57481742  0.01310625  0.24331512  1
  O  O331  1  0.58895654  0.02184454  0.59164749  1
  O  O332  1  0.58756479  0.02259529  0.91776504  1
  O  O333  1  0.58902272  0.52072715  0.25741079  1
  O  O334  1  0.58803922  0.52220565  0.58569399  1
  O  O335  1  0.59062152  0.51584384  0.91987425  1
  O  O336  1  0.91497822  0.01755661  0.24710851  1
  O  O337  1  0.91990483  0.02079997  0.58913496  1
  O  O338  1  0.91775128  0.02579242  0.91865262  1
  O  O339  1  0.91124251  0.51420189  0.24688345  1
  O  O340  1  0.91388021  0.51403910  0.57899591  1
  O  O341  1  0.92224497  0.51897650  0.92286766  1
  O  O342  1  0.09572577  0.23778104  0.23909339  1
  O  O343  1  0.09128610  0.22983475  0.57890795  1
  O  O344  1  0.08667041  0.22651530  0.90619764  1
  O  O345  1  0.07929883  0.74052616  0.25489523  1
  O  O346  1  0.09265307  0.73837047  0.57579083  1
  O  O347  1  0.08401189  0.73132019  0.91516357  1
  O  O348  1  0.41766365  0.22609677  0.24929450  1
  O  O349  1  0.42231768  0.22611792  0.58110479  1
  O  O350  1  0.41961099  0.22382711  0.91712857  1
  O  O351  1  0.42760554  0.73643145  0.24474137  1
  O  O352  1  0.42253632  0.73913228  0.57569763  1
  O  O353  1  0.41447333  0.73684907  0.92001461  1
  O  O354  1  0.75446559  0.23474230  0.24494328  1
  O  O355  1  0.75685918  0.23084196  0.57933024  1
  O  O356  1  0.75084450  0.22787613  0.91213849  1
  O  O357  1  0.75239505  0.72730105  0.24872352  1
  O  O358  1  0.74942184  0.72473420  0.58299906  1
  O  O359  1  0.75839103  0.72575316  0.90803520  1
