# generated using pymatgen
data_Ba17Sr5La8Pr42Mn72O216
_symmetry_space_group_name_H-M   'P 1'
_cell_length_a   16.67155160
_cell_length_b   15.70309991
_cell_length_c   16.81649117
_cell_angle_alpha   89.99913105
_cell_angle_beta   90.00277239
_cell_angle_gamma   89.99450320
_symmetry_Int_Tables_number   1
_chemical_formula_structural   Ba17Sr5La8Pr42Mn72O216
_chemical_formula_sum   'Ba17 Sr5 La8 Pr42 Mn72 O216'
_cell_volume   4402.47396085
_cell_formula_units_Z   1
loop_
 _symmetry_equiv_pos_site_id
 _symmetry_equiv_pos_as_xyz
  1  'x, y, z'
loop_
 _atom_site_type_symbol
 _atom_site_label
 _atom_site_symmetry_multiplicity
 _atom_site_fract_x
 _atom_site_fract_y
 _atom_site_fract_z
 _atom_site_occupancy
  Ba  Ba0  1  0.66740284  0.87294586  0.00332580  1
  Ba  Ba1  1  0.32980831  0.62562044  0.33001099  1
  Ba  Ba2  1  0.50147511  0.37624275  0.16700428  1
  Ba  Ba3  1  0.16688177  0.37372113  0.49737170  1
  Ba  Ba4  1  0.66867103  0.87414050  0.33566768  1
  Ba  Ba5  1  -0.00020009  0.87511086  0.67081269  1
  Ba  Ba6  1  0.83484928  0.12615920  0.17073670  1
  Ba  Ba7  1  0.83346003  0.12457348  0.50404466  1
  Ba  Ba8  1  0.50174361  0.87414681  0.16467985  1
  Ba  Ba9  1  0.66470481  0.37684126  0.66745431  1
  Ba  Ba10  1  0.16669420  0.87465844  0.83030640  1
  Ba  Ba11  1  0.33093545  0.62364950  0.99699313  1
  Ba  Ba12  1  0.33399305  0.37374653  0.66256074  1
  Ba  Ba13  1  0.00061570  0.12525417  1.00224109  1
  Ba  Ba14  1  0.66795169  0.12444287  1.00099711  1
  Ba  Ba15  1  0.33452377  0.12570881  0.99744053  1
  Ba  Ba16  1  0.33526575  0.37625425  0.33453145  1
  Sr  Sr17  1  0.50186594  0.37544177  0.49514552  1
  Sr  Sr18  1  0.00251741  0.87621723  0.00155070  1
  Sr  Sr19  1  0.66079800  0.62615485  1.00076391  1
  Sr  Sr20  1  0.50041530  0.37513320  0.82933662  1
  Sr  Sr21  1  0.50285565  0.87403280  0.49418135  1
  La  La22  1  -0.00072979  0.62562589  0.99990271  1
  La  La23  1  -0.00171438  0.37306330  0.67051992  1
  La  La24  1  0.83672938  0.87578592  0.83985040  1
  La  La25  1  0.83030956  0.62424169  0.83890447  1
  La  La26  1  0.16976139  0.12334088  0.83355362  1
  La  La27  1  0.83556448  0.87532968  0.16472622  1
  La  La28  1  0.82953276  0.37502615  0.83817175  1
  La  La29  1  0.00032674  0.37323452  0.33696250  1
  Pr  Pr30  1  0.33852127  0.37391231  -0.00085119  1
  Pr  Pr31  1  0.82733471  0.62440363  0.17306879  1
  Pr  Pr32  1  0.33508389  0.87587660  0.00083308  1
  Pr  Pr33  1  0.83284400  0.12374947  0.84276948  1
  Pr  Pr34  1  0.83532779  0.37615010  0.50252376  1
  Pr  Pr35  1  0.65666915  0.62630458  0.33319741  1
  Pr  Pr36  1  -0.00480321  0.62764550  0.66550192  1
  Pr  Pr37  1  -0.00242920  0.62229020  0.33293416  1
  Pr  Pr38  1  0.00147097  0.37384457  0.00107357  1
  Pr  Pr39  1  0.33877285  0.87441950  0.66618653  1
  Pr  Pr40  1  0.83343003  0.37484010  0.16957798  1
  Pr  Pr41  1  0.16472971  0.62045584  0.49976361  1
  Pr  Pr42  1  0.32918069  0.62505748  0.66187866  1
  Pr  Pr43  1  0.49510193  0.62878350  0.16646910  1
  Pr  Pr44  1  -0.00034011  0.87763698  0.33618885  1
  Pr  Pr45  1  0.50275024  0.12138321  0.16644771  1
  Pr  Pr46  1  0.16837259  0.87248855  0.15807449  1
  Pr  Pr47  1  0.16203374  0.62611206  0.16779624  1
  Pr  Pr48  1  0.16895700  0.37456645  0.82741123  1
  Pr  Pr49  1  0.83645108  0.87512504  0.50104367  1
  Pr  Pr50  1  0.82583440  0.62705475  0.50767749  1
  Pr  Pr51  1  0.33512340  0.12801002  0.32657180  1
  Pr  Pr52  1  0.66064297  0.12530404  0.33028639  1
  Pr  Pr53  1  0.49891549  0.12303092  0.49835499  1
  Pr  Pr54  1  0.33345207  0.12357028  0.66343048  1
  Pr  Pr55  1  0.66841650  0.37706381  0.00289632  1
  Pr  Pr56  1  0.65360226  0.62466105  0.66602574  1
  Pr  Pr57  1  0.48900551  0.62711394  0.49868881  1
  Pr  Pr58  1  0.00205480  0.12787904  0.32778248  1
  Pr  Pr59  1  0.16385848  0.62519131  0.83107148  1
  Pr  Pr60  1  0.67078969  0.87478594  0.66990262  1
  Pr  Pr61  1  0.50325541  0.87715211  0.83419813  1
  Pr  Pr62  1  0.16732944  0.12156188  0.16675325  1
  Pr  Pr63  1  0.16786758  0.87347188  0.49683451  1
  Pr  Pr64  1  0.67140982  0.37409899  0.34314430  1
  Pr  Pr65  1  0.49732745  0.13023897  0.83331038  1
  Pr  Pr66  1  0.33719774  0.87514987  0.33320207  1
  Pr  Pr67  1  0.49365558  0.62041664  0.83253794  1
  Pr  Pr68  1  0.66280184  0.12680601  0.66647303  1
  Pr  Pr69  1  0.16825989  0.12738226  0.49862091  1
  Pr  Pr70  1  0.17018027  0.37654709  0.16287702  1
  Pr  Pr71  1  0.00154348  0.12228520  0.66922235  1
  Mn  Mn72  1  0.00255102  -0.00137588  0.16960811  1
  Mn  Mn73  1  0.00146494  -0.00002037  0.50027484  1
  Mn  Mn74  1  -0.00085925  0.00118496  0.83490853  1
  Mn  Mn75  1  -0.00038511  0.49909886  0.16702244  1
  Mn  Mn76  1  -0.00242880  0.50166411  0.50146262  1
  Mn  Mn77  1  -0.00013126  0.49994263  0.83428184  1
  Mn  Mn78  1  0.33338719  0.00060050  0.16540366  1
  Mn  Mn79  1  0.33246206  -0.00057647  0.49706002  1
  Mn  Mn80  1  0.33570165  -0.00222385  0.83007221  1
  Mn  Mn81  1  0.33193995  0.49877864  0.16257634  1
  Mn  Mn82  1  0.33306676  0.50082014  0.49781364  1
  Mn  Mn83  1  0.33199946  0.49938474  0.83020285  1
  Mn  Mn84  1  0.66847577  0.00080686  0.16885584  1
  Mn  Mn85  1  0.66662128  0.00036554  0.50257704  1
  Mn  Mn86  1  0.66782099  -0.00199009  0.83168951  1
  Mn  Mn87  1  0.66719089  0.50125998  0.16953184  1
  Mn  Mn88  1  0.66531037  0.50260420  0.50043941  1
  Mn  Mn89  1  0.66602938  0.50324644  0.83569143  1
  Mn  Mn90  1  0.00276652  0.25274792  0.16827620  1
  Mn  Mn91  1  -0.00023708  0.24802536  0.50211458  1
  Mn  Mn92  1  -0.00058922  0.25205314  0.83416435  1
  Mn  Mn93  1  -0.00055175  0.74849451  0.16822987  1
  Mn  Mn94  1  -0.00019810  0.74999045  0.49943240  1
  Mn  Mn95  1  -0.00163253  0.74751107  0.83440528  1
  Mn  Mn96  1  0.33318044  0.25048877  0.16343343  1
  Mn  Mn97  1  0.33556482  0.24715993  0.49665129  1
  Mn  Mn98  1  0.33360300  0.25054008  0.83069454  1
  Mn  Mn99  1  0.33128871  0.75034612  0.16363154  1
  Mn  Mn100  1  0.33025879  0.75280494  0.49823243  1
  Mn  Mn101  1  0.33449339  0.75067862  0.82953755  1
  Mn  Mn102  1  0.66678982  0.25221946  0.17025574  1
  Mn  Mn103  1  0.66680087  0.24885806  0.50111407  1
  Mn  Mn104  1  0.66668153  0.25021210  0.83339742  1
  Mn  Mn105  1  0.66807433  0.74677781  0.16741039  1
  Mn  Mn106  1  0.66536418  0.74911995  0.50248044  1
  Mn  Mn107  1  0.66648858  0.74931372  0.83350790  1
  Mn  Mn108  1  0.16649335  0.25168926  -0.00405733  1
  Mn  Mn109  1  0.16713472  0.24824268  0.33090749  1
  Mn  Mn110  1  0.16565873  0.24818482  0.66549232  1
  Mn  Mn111  1  0.16597109  0.74856003  -0.00202866  1
  Mn  Mn112  1  0.16379122  0.75263691  0.33027076  1
  Mn  Mn113  1  0.16661104  0.74864871  0.66339066  1
  Mn  Mn114  1  0.50232346  0.25192151  -0.00230330  1
  Mn  Mn115  1  0.50168075  0.24990209  0.33298818  1
  Mn  Mn116  1  0.49902259  0.24781392  0.66452763  1
  Mn  Mn117  1  0.49921183  0.74713404  -0.00302153  1
  Mn  Mn118  1  0.49881259  0.75066247  0.33329932  1
  Mn  Mn119  1  0.49921261  0.75234883  0.66483280  1
  Mn  Mn120  1  0.83393651  0.25314196  0.00272926  1
  Mn  Mn121  1  0.83457915  0.25076416  0.33847121  1
  Mn  Mn122  1  0.83279387  0.25037779  0.67271620  1
  Mn  Mn123  1  0.83566376  0.74709948  0.00434924  1
  Mn  Mn124  1  0.83479454  0.74794829  0.33720156  1
  Mn  Mn125  1  0.83045802  0.74914108  0.67115420  1
  Mn  Mn126  1  0.16689703  0.00005280  -0.00125401  1
  Mn  Mn127  1  0.16721324  -0.00246792  0.33179947  1
  Mn  Mn128  1  0.16844274  0.00150208  0.66336083  1
  Mn  Mn129  1  0.16514764  0.49915308  -0.00364156  1
  Mn  Mn130  1  0.16368946  0.50172573  0.33114017  1
  Mn  Mn131  1  0.16485004  0.50047698  0.66636288  1
  Mn  Mn132  1  0.50048438  0.00167641  -0.00215496  1
  Mn  Mn133  1  0.49952870  -0.00097368  0.33449653  1
  Mn  Mn134  1  0.50132478  -0.00223810  0.66432646  1
  Mn  Mn135  1  0.50126241  0.49977734  -0.00249224  1
  Mn  Mn136  1  0.50141777  0.50136397  0.33209902  1
  Mn  Mn137  1  0.49711241  0.50058642  0.66492482  1
  Mn  Mn138  1  0.83602240  -0.00144415  0.00323285  1
  Mn  Mn139  1  0.83485140  -0.00075428  0.33710086  1
  Mn  Mn140  1  0.83208198  0.00010001  0.67149051  1
  Mn  Mn141  1  0.83326488  0.50070997  0.00522219  1
  Mn  Mn142  1  0.83294504  0.50168660  0.33863192  1
  Mn  Mn143  1  0.83207887  0.50088867  0.67081997  1
  O  O144  1  0.16832443  0.12696802  0.02230080  1
  O  O145  1  0.16501750  0.11898751  0.35586233  1
  O  O146  1  0.17326377  0.12452165  0.68738920  1
  O  O147  1  0.16275950  0.62167000  0.02474957  1
  O  O148  1  0.15985244  0.63115960  0.35594837  1
  O  O149  1  0.17648601  0.62340213  0.68641230  1
  O  O150  1  0.49952912  0.12925189  0.02031556  1
  O  O151  1  0.50002692  0.12242580  0.35308626  1
  O  O152  1  0.49701204  0.11820046  0.68997964  1
  O  O153  1  0.49820023  0.62137731  0.02171196  1
  O  O154  1  0.50291648  0.62657949  0.35272454  1
  O  O155  1  0.49429702  0.63214789  0.68851101  1
  O  O156  1  0.83546554  0.13024830  0.00801264  1
  O  O157  1  0.84610531  0.12898586  0.34713044  1
  O  O158  1  0.83176096  0.12714786  0.69653010  1
  O  O159  1  0.84427321  0.62132333  0.02943784  1
  O  O160  1  0.84430606  0.62417193  0.36523586  1
  O  O161  1  0.83922755  0.62474130  0.69364613  1
  O  O162  1  0.15930579  0.37381229  0.31039047  1
  O  O163  1  0.15498235  0.37462981  0.65467483  1
  O  O164  1  0.15491747  0.37716782  0.96969364  1
  O  O165  1  0.16006690  0.87620067  0.30154765  1
  O  O166  1  0.16926526  0.87736291  0.64194736  1
  O  O167  1  0.16681248  0.87454352  0.98818535  1
  O  O168  1  0.51156295  0.37696630  0.32578177  1
  O  O169  1  0.50056343  0.37449773  0.64749735  1
  O  O170  1  0.50464001  0.37664177  0.97919206  1
  O  O171  1  0.49263493  0.87531708  0.32195368  1
  O  O172  1  0.50423087  0.87396115  0.64091840  1
  O  O173  1  0.49551268  0.87344762  0.97871342  1
  O  O174  1  0.82872191  0.37795888  0.31422856  1
  O  O175  1  0.83725067  0.37718288  0.64447163  1
  O  O176  1  0.82479406  0.37932667  0.98350397  1
  O  O177  1  0.83960398  0.86859915  0.31015770  1
  O  O178  1  0.82663510  0.87112275  0.64303977  1
  O  O179  1  0.83730866  0.86918105  0.98559722  1
  O  O180  1  0.00894810  0.37813479  0.19381828  1
  O  O181  1  -0.00443162  0.37872814  0.52690809  1
  O  O182  1  0.01497936  0.37798514  0.85564540  1
  O  O183  1  0.00677015  0.87108532  0.19243762  1
  O  O184  1  0.00226063  0.87456368  0.51693490  1
  O  O185  1  -0.00363754  0.86958352  0.84944196  1
  O  O186  1  0.32487391  0.37298984  0.17811909  1
  O  O187  1  0.33670650  0.37618191  0.50569856  1
  O  O188  1  0.32691839  0.37729755  0.85239065  1
  O  O189  1  0.32503745  0.87683947  0.18938279  1
  O  O190  1  0.32534726  0.87762332  0.52397560  1
  O  O191  1  0.33823427  0.87377029  0.85605015  1
  O  O192  1  0.67264259  0.37851834  0.19727301  1
  O  O193  1  0.66274026  0.37658907  0.50975496  1
  O  O194  1  0.66450704  0.38128725  0.85715171  1
  O  O195  1  0.67510074  0.87164639  0.17798486  1
  O  O196  1  0.66706175  0.87296927  0.52566339  1
  O  O197  1  0.65531596  0.87268105  0.84700982  1
  O  O198  1  0.00324392  0.12737842  0.15915452  1
  O  O199  1  0.00422851  0.12024933  0.47223834  1
  O  O200  1  -0.01635440  0.13117326  0.81451346  1
  O  O201  1  -0.00232237  0.62141861  0.14244720  1
  O  O202  1  -0.00291342  0.62642237  0.47571052  1
  O  O203  1  -0.00755773  0.62160929  0.81060203  1
  O  O204  1  0.33221264  0.12581921  0.15312213  1
  O  O205  1  0.33284029  0.11881914  0.47117148  1
  O  O206  1  0.33624095  0.12135097  0.80918998  1
  O  O207  1  0.33099490  0.62461842  0.15353241  1
  O  O208  1  0.33268796  0.62768864  0.48871923  1
  O  O209  1  0.33461428  0.62678534  0.80694700  1
  O  O210  1  0.66413366  0.12768447  0.16012555  1
  O  O211  1  0.66601467  0.12454901  0.47667770  1
  O  O212  1  0.67971083  0.11862509  0.80998034  1
  O  O213  1  0.67744031  0.62245056  0.14977852  1
  O  O214  1  0.67657497  0.62582737  0.47726936  1
  O  O215  1  0.67663453  0.62767153  0.80950161  1
  O  O216  1  0.08746918  0.02313243  0.25143577  1
  O  O217  1  0.08565489  0.02439777  0.58042785  1
  O  O218  1  0.08646260  0.01637924  0.91159437  1
  O  O219  1  0.07892295  0.52586139  0.24940836  1
  O  O220  1  0.07919585  0.52647303  0.58569281  1
  O  O221  1  0.07949539  0.52781780  0.91727336  1
  O  O222  1  0.41715598  0.02016935  0.24801035  1
  O  O223  1  0.41351212  0.01964037  0.58208776  1
  O  O224  1  0.42252796  0.01302857  0.90594408  1
  O  O225  1  0.41976849  0.51246301  0.24597211  1
  O  O226  1  0.41270864  0.52279605  0.58492027  1
  O  O227  1  0.41659669  0.51087451  0.90991438  1
  O  O228  1  0.74801041  0.01427083  0.26184750  1
  O  O229  1  0.74198369  0.01480400  0.59639056  1
  O  O230  1  0.75439795  0.00564926  0.90953827  1
  O  O231  1  0.74642722  0.52362154  0.26328094  1
  O  O232  1  0.74282571  0.52336439  0.58967879  1
  O  O233  1  0.74956892  0.51885346  0.92559001  1
  O  O234  1  0.24808237  0.22809514  0.24775534  1
  O  O235  1  0.25161198  0.22867892  0.58155267  1
  O  O236  1  0.24752257  0.23992966  0.91234556  1
  O  O237  1  0.23620293  0.73745003  0.23766826  1
  O  O238  1  0.23876843  0.73279850  0.57065529  1
  O  O239  1  0.24288443  0.73327059  0.90371079  1
  O  O240  1  0.57805332  0.22838641  0.24581828  1
  O  O241  1  0.57916473  0.22509211  0.57771855  1
  O  O242  1  0.58090281  0.23257075  0.90853011  1
  O  O243  1  0.58191654  0.72868814  0.24691547  1
  O  O244  1  0.57397282  0.72422287  0.57992442  1
  O  O245  1  0.57738312  0.72955159  0.90600888  1
  O  O246  1  0.92513340  0.24791941  0.26125321  1
  O  O247  1  0.92286880  0.23482281  0.59853936  1
  O  O248  1  0.91990104  0.25394922  0.91982394  1
  O  O249  1  0.91303007  0.72466457  0.24860488  1
  O  O250  1  0.90938558  0.73021613  0.58328573  1
  O  O251  1  0.91510357  0.72667245  0.91998278  1
  O  O252  1  0.08615721  0.47890150  0.08235068  1
  O  O253  1  0.07633825  0.49013322  0.41227979  1
  O  O254  1  0.08404179  0.48908926  0.75199840  1
  O  O255  1  0.08778299  0.98682263  0.09113440  1
  O  O256  1  0.08659860  0.97529372  0.41326218  1
  O  O257  1  0.08089035  1.00437721  0.74877741  1
  O  O258  1  0.41372999  0.48370911  0.07610720  1
  O  O259  1  0.42649685  0.49701843  0.42209218  1
  O  O260  1  0.41780572  0.49219616  0.74959753  1
  O  O261  1  0.41004617  0.98453604  0.07816128  1
  O  O262  1  0.41116518  0.98224640  0.41278747  1
  O  O263  1  0.42109883  0.97353573  0.74722292  1
  O  O264  1  0.75747582  0.48055054  0.09729360  1
  O  O265  1  0.75741475  0.48141242  0.42737958  1
  O  O266  1  0.75782161  0.48666462  0.76270200  1
  O  O267  1  0.75836017  0.98858366  0.08970517  1
  O  O268  1  0.75628950  0.98186815  0.42954719  1
  O  O269  1  0.75099571  0.97157456  0.75291323  1
  O  O270  1  0.24587831  0.27461570  0.07674458  1
  O  O271  1  0.24951630  0.25097588  0.41273034  1
  O  O272  1  0.24206797  0.26178053  0.75359028  1
  O  O273  1  0.25317724  0.77074751  0.07764348  1
  O  O274  1  0.24967705  0.77697142  0.40603552  1
  O  O275  1  0.26354172  0.76452749  0.73433813  1
  O  O276  1  0.59141635  0.26827655  0.07653952  1
  O  O277  1  0.59483680  0.25751493  0.40538570  1
  O  O278  1  0.58423318  0.24956145  0.74642388  1
  O  O279  1  0.58252183  0.74943574  0.08185219  1
  O  O280  1  0.58597089  0.75498149  0.41797097  1
  O  O281  1  0.58831955  0.76311557  0.73653419  1
  O  O282  1  0.91738655  0.27582252  0.08904980  1
  O  O283  1  0.91502135  0.27409501  0.42469331  1
  O  O284  1  0.91465682  0.27848087  0.75819675  1
  O  O285  1  0.92244976  0.76876059  0.08567858  1
  O  O286  1  0.92226359  0.77304538  0.41386651  1
  O  O287  1  0.91161270  0.76167975  0.75607873  1
  O  O288  1  0.24935637  0.47434459  0.07186236  1
  O  O289  1  0.24580643  0.49767825  0.41552995  1
  O  O290  1  0.24565425  0.48531883  0.74977999  1
  O  O291  1  0.24985249  0.98102812  0.08375219  1
  O  O292  1  0.24819513  0.97202879  0.41245645  1
  O  O293  1  0.26049390  0.98567471  0.73745767  1
  O  O294  1  0.59450546  0.48577498  0.07555205  1
  O  O295  1  0.59654671  0.49438437  0.40509885  1
  O  O296  1  0.58340173  0.50169394  0.74555919  1
  O  O297  1  0.58142526  0.99768794  0.08579651  1
  O  O298  1  0.58045147  0.99254413  0.42053498  1
  O  O299  1  0.58881644  0.98164754  0.74364271  1
  O  O300  1  0.92034537  0.47156571  0.08488224  1
  O  O301  1  0.91671830  0.47574102  0.41772627  1
  O  O302  1  0.92098185  0.47625782  0.75269175  1
  O  O303  1  0.91993453  0.98126091  0.09110051  1
  O  O304  1  0.91682168  0.97601537  0.42051557  1
  O  O305  1  0.90885896  0.98650727  0.75855709  1
  O  O306  1  0.08277473  0.27353036  0.07896015  1
  O  O307  1  0.07696585  0.26037356  0.40613654  1
  O  O308  1  0.07444079  0.25828820  0.74369840  1
  O  O309  1  0.08884438  0.75961131  0.09229810  1
  O  O310  1  0.08787360  0.77284370  0.41706726  1
  O  O311  1  0.08617277  0.74694978  0.74938472  1
  O  O312  1  0.41399671  0.26704288  0.07556843  1
  O  O313  1  0.42580909  0.25435432  0.41975813  1
  O  O314  1  0.41711984  0.25568629  0.74735301  1
  O  O315  1  0.41151599  0.76466880  0.07645880  1
  O  O316  1  0.41419815  0.76499146  0.41919821  1
  O  O317  1  0.42587765  0.77711623  0.74995028  1
  O  O318  1  0.75243405  0.27352151  0.09129324  1
  O  O319  1  0.75545005  0.27147911  0.42559095  1
  O  O320  1  0.75509307  0.26944531  0.75778094  1
  O  O321  1  0.76328860  0.75741379  0.09640169  1
  O  O322  1  0.76338725  0.76419885  0.43188444  1
  O  O323  1  0.75246229  0.77340980  0.75565983  1
  O  O324  1  0.25100618  0.02184407  0.25200961  1
  O  O325  1  0.24890752  0.02474472  0.57539746  1
  O  O326  1  0.24974306  0.01270608  0.90784579  1
  O  O327  1  0.23779060  0.51071704  0.23674351  1
  O  O328  1  0.24625850  0.51801923  0.58118417  1
  O  O329  1  0.23914888  0.51385314  0.90593118  1
  O  O330  1  0.58177896  0.01824807  0.25229110  1
  O  O331  1  0.58132341  0.02580740  0.58242867  1
  O  O332  1  0.57977411  0.01658945  0.90338811  1
  O  O333  1  0.57953617  0.52762645  0.24253685  1
  O  O334  1  0.57629896  0.52666158  0.57507955  1
  O  O335  1  0.57929438  0.52400448  0.91055125  1
  O  O336  1  0.92771282  0.00690768  0.25975436  1
  O  O337  1  0.91914600  0.01493169  0.59422297  1
  O  O338  1  0.91447547  0.00858704  0.91651121  1
  O  O339  1  0.91187601  0.51751124  0.25159095  1
  O  O340  1  0.91229862  0.52348882  0.58297615  1
  O  O341  1  0.91620445  0.51261556  0.91795347  1
  O  O342  1  0.08980899  0.22828386  0.24482862  1
  O  O343  1  0.08510158  0.22408520  0.57963121  1
  O  O344  1  0.08945873  0.23056010  0.90588758  1
  O  O345  1  0.07543631  0.72431238  0.25462211  1
  O  O346  1  0.07835051  0.72441324  0.58295065  1
  O  O347  1  0.07983768  0.72585033  0.91773683  1
  O  O348  1  0.41782495  0.23134868  0.25146537  1
  O  O349  1  0.41583429  0.22272709  0.58243306  1
  O  O350  1  0.42057937  0.24060351  0.90920740  1
  O  O351  1  0.41615816  0.73859801  0.24355310  1
  O  O352  1  0.40965152  0.73601755  0.59224733  1
  O  O353  1  0.41873666  0.73339309  0.90855090  1
  O  O354  1  0.74295001  0.23845966  0.26535603  1
  O  O355  1  0.74386013  0.23449846  0.59328728  1
  O  O356  1  0.75454531  0.24356135  0.91560460  1
  O  O357  1  0.74930321  0.72465958  0.26258762  1
  O  O358  1  0.74136522  0.72664848  0.59481651  1
  O  O359  1  0.75356785  0.73309335  0.92100291  1
