# generated using pymatgen
data_Ba17Sr5La8Pr42Mn72O216
_symmetry_space_group_name_H-M   'P 1'
_cell_length_a   16.67306907
_cell_length_b   15.70004872
_cell_length_c   16.81941395
_cell_angle_alpha   90.00159732
_cell_angle_beta   90.05964264
_cell_angle_gamma   90.01148159
_symmetry_Int_Tables_number   1
_chemical_formula_structural   Ba17Sr5La8Pr42Mn72O216
_chemical_formula_sum   'Ba17 Sr5 La8 Pr42 Mn72 O216'
_cell_volume   4402.78181925
_cell_formula_units_Z   1
loop_
 _symmetry_equiv_pos_site_id
 _symmetry_equiv_pos_as_xyz
  1  'x, y, z'
loop_
 _atom_site_type_symbol
 _atom_site_label
 _atom_site_symmetry_multiplicity
 _atom_site_fract_x
 _atom_site_fract_y
 _atom_site_fract_z
 _atom_site_occupancy
  Ba  Ba0  1  0.33568004  0.37426187  -0.00319304  1
  Ba  Ba1  1  -0.00292637  0.12433983  0.99693828  1
  Ba  Ba2  1  0.50027167  0.12442778  0.16798520  1
  Ba  Ba3  1  0.33250281  0.12524203  0.33191833  1
  Ba  Ba4  1  -0.00146449  0.62556875  0.99770273  1
  Ba  Ba5  1  -0.00006164  0.12611174  0.66641019  1
  Ba  Ba6  1  0.83647738  0.37545259  0.16574720  1
  Ba  Ba7  1  0.33015966  0.62678675  0.66743171  1
  Ba  Ba8  1  0.33455044  0.12372021  0.99954735  1
  Ba  Ba9  1  0.66578898  0.12286103  0.66719801  1
  Ba  Ba10  1  0.50140432  0.37542179  0.16606719  1
  Ba  Ba11  1  0.50047152  0.37613925  0.50190146  1
  Ba  Ba12  1  0.49861226  0.12486529  0.50203813  1
  Ba  Ba13  1  0.16488445  0.62427103  0.16600849  1
  Ba  Ba14  1  0.83274757  0.62600487  0.50165817  1
  Ba  Ba15  1  -0.00020122  0.87474373  0.33348687  1
  Ba  Ba16  1  0.49795599  0.62485327  0.50491273  1
  Sr  Sr17  1  0.17033553  0.37566794  0.83053523  1
  Sr  Sr18  1  0.16954345  0.37408468  0.50056384  1
  Sr  Sr19  1  0.66998222  0.87486449  0.00484661  1
  Sr  Sr20  1  0.66427178  0.62537191  0.66405010  1
  Sr  Sr21  1  0.16598122  0.62332571  0.83803464  1
  La  La22  1  0.16714798  0.87617197  0.49752252  1
  La  La23  1  0.16789224  0.87732894  0.16445586  1
  La  La24  1  0.16437259  0.12666020  0.83609389  1
  La  La25  1  0.50285065  0.37454772  0.83050947  1
  La  La26  1  0.66348639  0.12663384  0.33326582  1
  La  La27  1  0.33620378  0.87232939  0.66749594  1
  La  La28  1  -0.00088462  0.62322419  0.66790946  1
  La  La29  1  0.83616549  0.37200381  0.49657807  1
  Pr  Pr30  1  0.66277265  0.12742678  0.99816330  1
  Pr  Pr31  1  0.83140144  0.87748077  0.49886396  1
  Pr  Pr32  1  0.82680189  0.62554982  0.83581009  1
  Pr  Pr33  1  0.49602257  0.62581112  0.16999425  1
  Pr  Pr34  1  0.83619910  0.87520904  0.83366342  1
  Pr  Pr35  1  0.16218897  0.87498890  0.83246858  1
  Pr  Pr36  1  0.16680502  0.12893664  0.16633619  1
  Pr  Pr37  1  0.66887823  0.87133163  0.66928464  1
  Pr  Pr38  1  -0.00746792  0.62527225  0.32802483  1
  Pr  Pr39  1  0.82611441  0.12415341  0.83771907  1
  Pr  Pr40  1  0.33115155  0.62124361  0.33407965  1
  Pr  Pr41  1  0.83756992  0.87350648  0.16336303  1
  Pr  Pr42  1  0.66298274  0.62306126  0.99937767  1
  Pr  Pr43  1  -0.00125412  0.87366145  0.66493063  1
  Pr  Pr44  1  0.67061872  0.37483270  0.00523705  1
  Pr  Pr45  1  0.32995282  0.12675353  0.66203451  1
  Pr  Pr46  1  0.17210472  0.37314801  0.16184783  1
  Pr  Pr47  1  0.00717559  0.37674858  0.66687992  1
  Pr  Pr48  1  0.66543955  0.87512460  0.33612242  1
  Pr  Pr49  1  0.83030108  0.12392860  0.16699964  1
  Pr  Pr50  1  0.49510004  0.62696906  0.83424198  1
  Pr  Pr51  1  0.83427882  0.12261757  0.50151878  1
  Pr  Pr52  1  0.49882470  0.12563336  0.83701868  1
  Pr  Pr53  1  0.01010963  0.37511353  0.00111892  1
  Pr  Pr54  1  0.33491122  0.87069950  0.00296153  1
  Pr  Pr55  1  0.33771507  0.37462470  0.33425003  1
  Pr  Pr56  1  0.33495917  0.87563446  0.33494370  1
  Pr  Pr57  1  0.82890659  0.62693306  0.17099099  1
  Pr  Pr58  1  0.49804591  0.87758553  0.16453913  1
  Pr  Pr59  1  0.16425182  0.12336113  0.50032615  1
  Pr  Pr60  1  -0.00201742  0.12634789  0.32739364  1
  Pr  Pr61  1  0.65933693  0.62299252  0.33399602  1
  Pr  Pr62  1  0.84023426  0.37469981  0.83171919  1
  Pr  Pr63  1  0.34031952  0.37722271  0.66939831  1
  Pr  Pr64  1  0.66787031  0.37294200  0.33723588  1
  Pr  Pr65  1  0.16187528  0.62637353  0.50321835  1
  Pr  Pr66  1  0.32956534  0.62114471  0.99485967  1
  Pr  Pr67  1  0.67115560  0.37800698  0.66515006  1
  Pr  Pr68  1  0.49934545  0.87267080  0.50243818  1
  Pr  Pr69  1  0.00868943  0.37993706  0.33443662  1
  Pr  Pr70  1  0.50052938  0.87644809  0.83306612  1
  Pr  Pr71  1  0.00457635  0.87449631  0.00400256  1
  Mn  Mn72  1  0.00002321  0.00094091  0.16517195  1
  Mn  Mn73  1  0.00004489  0.00059023  0.49855511  1
  Mn  Mn74  1  -0.00207990  -0.00105719  0.83246265  1
  Mn  Mn75  1  -0.00070926  0.49920625  0.16643762  1
  Mn  Mn76  1  0.00121791  0.49954226  0.49967185  1
  Mn  Mn77  1  -0.00050926  0.49934933  0.83231140  1
  Mn  Mn78  1  0.33187866  -0.00175676  0.16668242  1
  Mn  Mn79  1  0.33196394  -0.00036487  0.50098743  1
  Mn  Mn80  1  0.33311977  -0.00276696  0.83123249  1
  Mn  Mn81  1  0.33318674  0.50209936  0.16593176  1
  Mn  Mn82  1  0.32942034  0.49881455  0.50056546  1
  Mn  Mn83  1  0.33403667  0.50095626  0.83266541  1
  Mn  Mn84  1  0.66907991  -0.00238342  0.16827049  1
  Mn  Mn85  1  0.66675274  -0.00244509  0.50084871  1
  Mn  Mn86  1  0.66661078  -0.00317317  0.83560989  1
  Mn  Mn87  1  0.66685719  0.50215132  0.16658987  1
  Mn  Mn88  1  0.66906134  0.50054097  0.50147884  1
  Mn  Mn89  1  0.66705422  0.50099307  0.83423098  1
  Mn  Mn90  1  0.00005260  0.24996385  0.16570032  1
  Mn  Mn91  1  0.00112133  0.25141025  0.49626243  1
  Mn  Mn92  1  -0.00064375  0.25083573  0.83150275  1
  Mn  Mn93  1  -0.00060092  0.74981323  0.16637531  1
  Mn  Mn94  1  -0.00046956  0.74953299  0.50043087  1
  Mn  Mn95  1  -0.00164018  0.75124066  0.83256431  1
  Mn  Mn96  1  0.33319118  0.25027942  0.16658356  1
  Mn  Mn97  1  0.33065986  0.25059948  0.50028868  1
  Mn  Mn98  1  0.33466925  0.24868227  0.82918973  1
  Mn  Mn99  1  0.33275017  0.74966785  0.16816799  1
  Mn  Mn100  1  0.33044856  0.75176607  0.49950597  1
  Mn  Mn101  1  0.33299703  0.75138599  0.83636852  1
  Mn  Mn102  1  0.66890905  0.24978181  0.16704678  1
  Mn  Mn103  1  0.66929004  0.24900805  0.50111632  1
  Mn  Mn104  1  0.66744862  0.25255238  0.83444589  1
  Mn  Mn105  1  0.66671130  0.75075295  0.16844046  1
  Mn  Mn106  1  0.66730289  0.75155562  0.50221169  1
  Mn  Mn107  1  0.66653710  0.75038072  0.83561202  1
  Mn  Mn108  1  0.16726541  0.24939673  -0.00209266  1
  Mn  Mn109  1  0.16570111  0.25188211  0.33247917  1
  Mn  Mn110  1  0.16778757  0.25074373  0.66485683  1
  Mn  Mn111  1  0.16754783  0.75060099  -0.00150069  1
  Mn  Mn112  1  0.16751261  0.74936225  0.33461598  1
  Mn  Mn113  1  0.16376242  0.75051239  0.66712949  1
  Mn  Mn114  1  0.50138063  0.24966742  -0.00152937  1
  Mn  Mn115  1  0.50039031  0.25084162  0.33426254  1
  Mn  Mn116  1  0.50101701  0.24986511  0.66883754  1
  Mn  Mn117  1  0.50177048  0.75055902  0.00239778  1
  Mn  Mn118  1  0.49950281  0.75062758  0.33371414  1
  Mn  Mn119  1  0.50115409  0.75167272  0.66842585  1
  Mn  Mn120  1  0.83294174  0.25069709  -0.00138623  1
  Mn  Mn121  1  0.83432946  0.24994396  0.33298662  1
  Mn  Mn122  1  0.83439701  0.25022055  0.66553510  1
  Mn  Mn123  1  0.83190907  0.74988295  0.00012307  1
  Mn  Mn124  1  0.83012711  0.75114766  0.33332948  1
  Mn  Mn125  1  0.83339378  0.75037809  0.66845598  1
  Mn  Mn126  1  0.16782251  -0.00072812  -0.00250359  1
  Mn  Mn127  1  0.16560719  0.00044075  0.33160425  1
  Mn  Mn128  1  0.16632099  -0.00243112  0.66667543  1
  Mn  Mn129  1  0.16714331  0.49902586  -0.00159705  1
  Mn  Mn130  1  0.16741919  0.50021882  0.33534061  1
  Mn  Mn131  1  0.16678014  0.50069264  0.66651053  1
  Mn  Mn132  1  0.50171376  -0.00280739  -0.00090859  1
  Mn  Mn133  1  0.50100064  -0.00344022  0.33406411  1
  Mn  Mn134  1  0.49898068  -0.00249637  0.66846180  1
  Mn  Mn135  1  0.50197312  0.50261071  -0.00023028  1
  Mn  Mn136  1  0.49980003  0.50159632  0.33344290  1
  Mn  Mn137  1  0.50192018  0.50057526  0.66887467  1
  Mn  Mn138  1  0.83149082  -0.00165059  0.00021756  1
  Mn  Mn139  1  0.83155257  0.00054240  0.33278758  1
  Mn  Mn140  1  0.83397028  -0.00036443  0.66678147  1
  Mn  Mn141  1  0.83302927  0.50078630  -0.00107238  1
  Mn  Mn142  1  0.83212055  0.49986971  0.33341702  1
  Mn  Mn143  1  0.83390859  0.49880938  0.66727304  1
  O  O144  1  0.16696747  0.12214203  0.01903534  1
  O  O145  1  0.16196907  0.12936715  0.35662751  1
  O  O146  1  0.17505211  0.11950567  0.69390198  1
  O  O147  1  0.17516379  0.62578636  0.00696689  1
  O  O148  1  0.17671503  0.62536108  0.36019676  1
  O  O149  1  0.15999622  0.62772488  0.68870307  1
  O  O150  1  0.50990488  0.12107707  0.01028270  1
  O  O151  1  0.50786933  0.11979504  0.34411991  1
  O  O152  1  0.49701151  0.11973203  0.69101072  1
  O  O153  1  0.50938871  0.63007550  0.02775539  1
  O  O154  1  0.50236437  0.62817009  0.34915249  1
  O  O155  1  0.50746464  0.62823749  0.68782737  1
  O  O156  1  0.82942738  0.12217379  0.02262928  1
  O  O157  1  0.84206857  0.12650664  0.35863844  1
  O  O158  1  0.83435591  0.12388373  0.69398256  1
  O  O159  1  0.83039084  0.62637290  0.02530062  1
  O  O160  1  0.84193945  0.62599044  0.34502794  1
  O  O161  1  0.84045846  0.62482455  0.69324058  1
  O  O162  1  0.15956381  0.37526792  0.30541383  1
  O  O163  1  0.16073740  0.37782633  0.64896330  1
  O  O164  1  0.16126253  0.37405481  0.98597022  1
  O  O165  1  0.17023517  0.87184799  0.30843126  1
  O  O166  1  0.15889073  0.87465297  0.64029251  1
  O  O167  1  0.16524508  0.87571357  0.97801183  1
  O  O168  1  0.49928001  0.37991366  0.32434888  1
  O  O169  1  0.48916171  0.37634148  0.66379035  1
  O  O170  1  0.50862925  0.37752731  0.97656383  1
  O  O171  1  0.50123386  0.87085214  0.30829338  1
  O  O172  1  0.49420787  0.87502099  0.64837087  1
  O  O173  1  0.49445357  0.87212184  0.97608878  1
  O  O174  1  0.82032169  0.37370765  0.32058154  1
  O  O175  1  0.82642409  0.37394549  0.64233898  1
  O  O176  1  0.82146892  0.37770279  0.97529918  1
  O  O177  1  0.82158646  0.87544850  0.30681940  1
  O  O178  1  0.83080812  0.87653474  0.64350785  1
  O  O179  1  0.82985375  0.87385017  0.97718614  1
  O  O180  1  0.00736374  0.37281706  0.19001399  1
  O  O181  1  -0.00253044  0.37534155  0.52323111  1
  O  O182  1  -0.00810213  0.37426040  0.85698253  1
  O  O183  1  0.00301952  0.87557674  0.17719534  1
  O  O184  1  0.00173098  0.87437905  0.52074766  1
  O  O185  1  -0.00354322  0.87530986  0.85972134  1
  O  O186  1  0.32610377  0.37800537  0.18680738  1
  O  O187  1  0.32755501  0.37217444  0.52460379  1
  O  O188  1  0.34411303  0.37628582  0.83707337  1
  O  O189  1  0.33242739  0.87183647  0.19075095  1
  O  O190  1  0.32852357  0.87676168  0.52296789  1
  O  O191  1  0.34042798  0.87421796  0.85979575  1
  O  O192  1  0.66889147  0.38079752  0.19109200  1
  O  O193  1  0.67885509  0.37322387  0.51733563  1
  O  O194  1  0.66498354  0.37808396  0.86351717  1
  O  O195  1  0.67681043  0.87302415  0.19369180  1
  O  O196  1  0.67815175  0.87530898  0.52311682  1
  O  O197  1  0.66931347  0.87308038  0.85755399  1
  O  O198  1  -0.00453495  0.12512305  0.15185509  1
  O  O199  1  -0.00062134  0.12739140  0.47187007  1
  O  O200  1  -0.00087859  0.12392064  0.82157356  1
  O  O201  1  -0.01154769  0.62678182  0.15621642  1
  O  O202  1  0.00525325  0.62374467  0.47325213  1
  O  O203  1  -0.00540178  0.62665507  0.81121728  1
  O  O204  1  0.32469727  0.12132572  0.15716544  1
  O  O205  1  0.32600585  0.12252017  0.48819154  1
  O  O206  1  0.33210682  0.11939011  0.80645780  1
  O  O207  1  0.33872140  0.62965851  0.14066479  1
  O  O208  1  0.32398466  0.62904592  0.47773283  1
  O  O209  1  0.33258176  0.62805792  0.82518481  1
  O  O210  1  0.67178290  0.11907150  0.14282015  1
  O  O211  1  0.67095319  0.12092351  0.47912818  1
  O  O212  1  0.66789169  0.12362956  0.82138940  1
  O  O213  1  0.66458019  0.62815955  0.14250964  1
  O  O214  1  0.66496326  0.62990144  0.48008076  1
  O  O215  1  0.67071330  0.62604481  0.81123780  1
  O  O216  1  0.08049702  0.02259416  0.25045536  1
  O  O217  1  0.08863329  0.01715299  0.57965409  1
  O  O218  1  0.08508170  0.00883864  0.91069290  1
  O  O219  1  0.07504435  0.51790435  0.26401014  1
  O  O220  1  0.07972319  0.52186129  0.58581831  1
  O  O221  1  0.07877363  0.50629870  0.91575479  1
  O  O222  1  0.41587595  -0.00001785  0.25058473  1
  O  O223  1  0.40897521  0.01136360  0.59112431  1
  O  O224  1  0.42118492  0.01438784  0.90644088  1
  O  O225  1  0.41458769  0.52193702  0.25046364  1
  O  O226  1  0.40970404  0.50552871  0.58863955  1
  O  O227  1  0.41765236  0.52374253  0.92095921  1
  O  O228  1  0.75189143  0.02747761  0.25173031  1
  O  O229  1  0.75666344  0.01407089  0.57627834  1
  O  O230  1  0.74592320  0.02064792  0.92248250  1
  O  O231  1  0.74368734  0.52625410  0.25324010  1
  O  O232  1  0.74679043  0.51167183  0.59325140  1
  O  O233  1  0.74358881  0.52473888  0.92143548  1
  O  O234  1  0.23794156  0.23927528  0.24260006  1
  O  O235  1  0.24413345  0.22696159  0.57869678  1
  O  O236  1  0.24555357  0.23693655  0.90278066  1
  O  O237  1  0.25528683  0.73224135  0.25537685  1
  O  O238  1  0.23864088  0.73928042  0.57678488  1
  O  O239  1  0.25571781  0.74188098  0.92357740  1
  O  O240  1  0.59144497  0.24049983  0.25302960  1
  O  O241  1  0.58378996  0.24857817  0.58782658  1
  O  O242  1  0.58083414  0.23153444  0.91097993  1
  O  O243  1  0.58266154  0.73069014  0.24988357  1
  O  O244  1  0.58369911  0.75047643  0.58506183  1
  O  O245  1  0.58112516  0.72854634  0.91502010  1
  O  O246  1  0.91369809  0.23010907  0.24619065  1
  O  O247  1  0.91183560  0.23572471  0.56877412  1
  O  O248  1  0.90275678  0.23749480  0.90251588  1
  O  O249  1  0.90674695  0.73979969  0.24494727  1
  O  O250  1  0.92064813  0.73863698  0.59129445  1
  O  O251  1  0.90565752  0.73663058  0.90656865  1
  O  O252  1  0.08592249  0.48182062  0.08766110  1
  O  O253  1  0.08710470  0.48112530  0.42078770  1
  O  O254  1  0.08094461  0.48392034  0.74831623  1
  O  O255  1  0.08785316  0.98168020  0.08260773  1
  O  O256  1  0.08902258  0.98769736  0.41948313  1
  O  O257  1  0.08344187  0.97598681  0.74886733  1
  O  O258  1  0.42110987  0.49758113  0.08403489  1
  O  O259  1  0.41056975  0.49140599  0.41214833  1
  O  O260  1  0.42705248  0.49609305  0.75966124  1
  O  O261  1  0.41653777  0.97764372  0.08256849  1
  O  O262  1  0.41825906  0.97548108  0.41999584  1
  O  O263  1  0.41604083  0.97392078  0.75122449  1
  O  O264  1  0.75120336  0.49004428  0.08333905  1
  O  O265  1  0.75441369  0.48562847  0.41893348  1
  O  O266  1  0.75583889  0.47883145  0.75812172  1
  O  O267  1  0.75775686  0.98016784  0.09150622  1
  O  O268  1  0.74601194  0.98056197  0.41248456  1
  O  O269  1  0.75110047  0.97808074  0.75385240  1
  O  O270  1  0.24789762  0.26105165  0.08525847  1
  O  O271  1  0.25102879  0.27180452  0.40783896  1
  O  O272  1  0.26130918  0.26469466  0.73699894  1
  O  O273  1  0.25109467  0.77269057  0.08568740  1
  O  O274  1  0.25291701  0.77549605  0.41365866  1
  O  O275  1  0.24755876  0.77421606  0.74966507  1
  O  O276  1  0.59268022  0.26241827  0.07319519  1
  O  O277  1  0.59312512  0.26157042  0.41253114  1
  O  O278  1  0.58972771  0.27342738  0.75052844  1
  O  O279  1  0.58294279  0.77423289  0.08751295  1
  O  O280  1  0.58396411  0.77407516  0.41765365  1
  O  O281  1  0.58593814  0.77453629  0.75228969  1
  O  O282  1  0.92464340  0.26839480  0.07097210  1
  O  O283  1  0.92166879  0.27515195  0.40795980  1
  O  O284  1  0.92250148  0.27512394  0.74188074  1
  O  O285  1  0.91822328  0.77324908  0.07547770  1
  O  O286  1  0.91187131  0.76650853  0.41988599  1
  O  O287  1  0.91737219  0.77635651  0.74892398  1
  O  O288  1  0.24959074  0.48796304  0.08629378  1
  O  O289  1  0.25338805  0.47786571  0.41063731  1
  O  O290  1  0.25582541  0.48318347  0.74214924  1
  O  O291  1  0.25372985  0.97501863  0.07880910  1
  O  O292  1  0.25204970  0.97981588  0.41262892  1
  O  O293  1  0.25062293  0.96977786  0.74781671  1
  O  O294  1  0.59388116  0.48710442  0.07255263  1
  O  O295  1  0.59404673  0.48959330  0.40619089  1
  O  O296  1  0.59135678  0.47703119  0.74969802  1
  O  O297  1  0.58431662  0.97674719  0.09013861  1
  O  O298  1  0.58251572  0.97275211  0.42054299  1
  O  O299  1  0.58356950  0.97538283  0.75228468  1
  O  O300  1  0.92373738  0.48067439  0.06824862  1
  O  O301  1  0.92244572  0.47973403  0.41216420  1
  O  O302  1  0.92076752  0.47467214  0.74442228  1
  O  O303  1  0.91904736  0.97753489  0.07789446  1
  O  O304  1  0.90712131  0.98340053  0.41998408  1
  O  O305  1  0.91847802  0.97426931  0.74734410  1
  O  O306  1  0.08706093  0.26602311  0.08972293  1
  O  O307  1  0.08219201  0.27208735  0.41265721  1
  O  O308  1  0.08615648  0.26510747  0.74954157  1
  O  O309  1  0.08626112  0.76741736  0.08086895  1
  O  O310  1  0.09335336  0.76334098  0.42574619  1
  O  O311  1  0.07985608  0.77524687  0.74837601  1
  O  O312  1  0.42043788  0.25589731  0.08165851  1
  O  O313  1  0.41291284  0.26264027  0.41771080  1
  O  O314  1  0.42555219  0.25723226  0.75637490  1
  O  O315  1  0.41805410  0.77361982  0.08713650  1
  O  O316  1  0.41682170  0.77390450  0.41583053  1
  O  O317  1  0.42106548  0.76643753  0.75764794  1
  O  O318  1  0.75093909  0.26152107  0.08346606  1
  O  O319  1  0.75505761  0.26189364  0.41754549  1
  O  O320  1  0.75330945  0.27200410  0.75743820  1
  O  O321  1  0.75769690  0.76528622  0.09374757  1
  O  O322  1  0.74938383  0.77154193  0.41668506  1
  O  O323  1  0.75365391  0.77144094  0.75528367  1
  O  O324  1  0.23818672  0.01081367  0.23971850  1
  O  O325  1  0.24662323  0.01788412  0.58340105  1
  O  O326  1  0.24475928  0.01196141  0.90652297  1
  O  O327  1  0.25354782  0.51531806  0.25494350  1
  O  O328  1  0.23973363  0.51664193  0.57500414  1
  O  O329  1  0.25226303  0.50972477  0.91494328  1
  O  O330  1  0.59343700  0.00607175  0.25767402  1
  O  O331  1  0.58264609  -0.00145153  0.58419494  1
  O  O332  1  0.58364296  0.01444987  0.91470042  1
  O  O333  1  0.57965475  0.52408087  0.24434898  1
  O  O334  1  0.58471162  0.50259454  0.58756667  1
  O  O335  1  0.57878378  0.52673311  0.91058807  1
  O  O336  1  0.91227152  0.01738629  0.24835888  1
  O  O337  1  0.91468770  0.01354669  0.57914014  1
  O  O338  1  0.90360672  0.01150156  0.90718795  1
  O  O339  1  0.91099565  0.51408750  0.24639082  1
  O  O340  1  0.92015731  0.51185306  0.58584045  1
  O  O341  1  0.90307695  0.51440446  0.90309095  1
  O  O342  1  0.07949217  0.22734396  0.25251914  1
  O  O343  1  0.08587065  0.23389297  0.57665446  1
  O  O344  1  0.08107375  0.24059116  0.91503605  1
  O  O345  1  0.07787920  0.73156476  0.26106938  1
  O  O346  1  0.07881755  0.72762364  0.58728146  1
  O  O347  1  0.08548292  0.74392205  0.91045477  1
  O  O348  1  0.41234379  0.24886439  0.25297533  1
  O  O349  1  0.40754235  0.23763704  0.59435587  1
  O  O350  1  0.42067771  0.23495268  0.91140798  1
  O  O351  1  0.41546942  0.72915943  0.25024522  1
  O  O352  1  0.41240444  0.74729319  0.58414224  1
  O  O353  1  0.41776022  0.72619509  0.92452413  1
  O  O354  1  0.75192415  0.22435272  0.25295090  1
  O  O355  1  0.75391452  0.23119988  0.58009247  1
  O  O356  1  0.74428949  0.22919016  0.92192757  1
  O  O357  1  0.74373734  0.72383850  0.25488663  1
  O  O358  1  0.74754909  0.73994070  0.59136484  1
  O  O359  1  0.74568011  0.72675604  0.92245774  1
