# generated using pymatgen
data_Ba17Sr5La8Pr42Mn72O216
_symmetry_space_group_name_H-M   'P 1'
_cell_length_a   16.67163483
_cell_length_b   15.70119353
_cell_length_c   16.82165182
_cell_angle_alpha   90.00822584
_cell_angle_beta   90.00548074
_cell_angle_gamma   89.99444480
_symmetry_Int_Tables_number   1
_chemical_formula_structural   Ba17Sr5La8Pr42Mn72O216
_chemical_formula_sum   'Ba17 Sr5 La8 Pr42 Mn72 O216'
_cell_volume   4403.31228157
_cell_formula_units_Z   1
loop_
 _symmetry_equiv_pos_site_id
 _symmetry_equiv_pos_as_xyz
  1  'x, y, z'
loop_
 _atom_site_type_symbol
 _atom_site_label
 _atom_site_symmetry_multiplicity
 _atom_site_fract_x
 _atom_site_fract_y
 _atom_site_fract_z
 _atom_site_occupancy
  Ba  Ba0  1  0.33509552  0.87453103  0.66672609  1
  Ba  Ba1  1  0.49882615  0.37351919  0.49912506  1
  Ba  Ba2  1  0.16616070  0.62560979  0.83713549  1
  Ba  Ba3  1  0.66563611  0.62564680  0.66462192  1
  Ba  Ba4  1  0.00019890  0.37390115  0.00233027  1
  Ba  Ba5  1  0.50062494  0.37361861  0.83348831  1
  Ba  Ba6  1  0.16410613  0.12423813  0.83650221  1
  Ba  Ba7  1  0.66810431  0.62619277  0.99834612  1
  Ba  Ba8  1  0.83361148  0.37496761  0.49772028  1
  Ba  Ba9  1  0.66744065  0.87569194  -0.00143758  1
  Ba  Ba10  1  0.16343057  0.37466300  0.83477955  1
  Ba  Ba11  1  0.83249174  0.37468571  0.16285670  1
  Ba  Ba12  1  0.33544687  0.62618548  0.33138518  1
  Ba  Ba13  1  0.16683183  0.62726109  0.17074898  1
  Ba  Ba14  1  0.16965292  0.87587063  0.50089258  1
  Ba  Ba15  1  0.49962505  0.12584535  0.83343938  1
  Ba  Ba16  1  0.83327453  0.87467666  0.49671602  1
  Sr  Sr17  1  0.66338167  0.37502638  -0.00026786  1
  Sr  Sr18  1  0.33594152  0.87137571  0.33916707  1
  Sr  Sr19  1  0.83576327  0.87277596  0.82960125  1
  Sr  Sr20  1  0.17362058  0.87444647  0.17245729  1
  Sr  Sr21  1  0.83382250  0.62365588  0.16296999  1
  La  La22  1  0.33160041  0.37517525  0.67173809  1
  La  La23  1  0.33221203  0.62572278  1.00178126  1
  La  La24  1  0.33069698  0.37217301  -0.00170578  1
  La  La25  1  0.00731417  0.87271188  0.33651098  1
  La  La26  1  0.50489951  0.87501275  0.83096892  1
  La  La27  1  -0.00495711  0.37431850  0.67402282  1
  La  La28  1  0.00612035  0.87561848  0.00222459  1
  La  La29  1  0.50590178  0.62748377  0.16838799  1
  Pr  Pr30  1  -0.00716807  0.12500370  0.99906951  1
  Pr  Pr31  1  0.16345639  0.12543270  0.17110806  1
  Pr  Pr32  1  0.16250022  0.11969179  0.50606978  1
  Pr  Pr33  1  0.83731806  0.87438745  0.16028606  1
  Pr  Pr34  1  0.50221859  0.87326176  0.49769415  1
  Pr  Pr35  1  0.49579996  0.87379691  0.16607369  1
  Pr  Pr36  1  0.82846654  0.37835941  0.83048701  1
  Pr  Pr37  1  0.49675680  0.37704540  0.15989355  1
  Pr  Pr38  1  0.49627009  0.62467983  0.50038120  1
  Pr  Pr39  1  0.00498323  0.87510468  0.67104194  1
  Pr  Pr40  1  -0.00756291  0.12222112  0.33482385  1
  Pr  Pr41  1  0.49835279  0.62663301  0.83578282  1
  Pr  Pr42  1  0.32903619  0.13010229  0.66489827  1
  Pr  Pr43  1  0.66921131  0.37580544  0.33302701  1
  Pr  Pr44  1  0.33378231  0.37813292  0.33357277  1
  Pr  Pr45  1  0.16648672  0.63050525  0.50312574  1
  Pr  Pr46  1  0.65968146  0.12440444  0.66348526  1
  Pr  Pr47  1  0.66766451  0.12817668  0.33380838  1
  Pr  Pr48  1  0.50408067  0.12141793  0.16648760  1
  Pr  Pr49  1  0.17085262  0.87503213  0.83138186  1
  Pr  Pr50  1  0.33211322  0.87733639  0.00087890  1
  Pr  Pr51  1  -0.00557717  0.12448615  0.66576706  1
  Pr  Pr52  1  -0.00394724  0.62376002  0.99981211  1
  Pr  Pr53  1  0.49470304  0.12330039  0.50355669  1
  Pr  Pr54  1  0.83196396  0.12392259  0.83353682  1
  Pr  Pr55  1  0.66837483  0.12797115  0.99465497  1
  Pr  Pr56  1  0.33216522  0.12322542  0.33234856  1
  Pr  Pr57  1  0.66360770  0.37452465  0.67015442  1
  Pr  Pr58  1  0.00386735  0.37645997  0.33472555  1
  Pr  Pr59  1  0.82858496  0.12575275  0.50381005  1
  Pr  Pr60  1  0.33072383  0.12426275  0.99762444  1
  Pr  Pr61  1  0.16905642  0.37817494  0.16371531  1
  Pr  Pr62  1  0.67116328  0.87648470  0.67142011  1
  Pr  Pr63  1  -0.00180353  0.62496525  0.66627780  1
  Pr  Pr64  1  0.66809027  0.87511763  0.33253048  1
  Pr  Pr65  1  0.82880840  0.12699057  0.16354472  1
  Pr  Pr66  1  0.16784150  0.37475062  0.50089837  1
  Pr  Pr67  1  -0.00377693  0.62740021  0.33096402  1
  Pr  Pr68  1  0.33160580  0.61955013  0.66417937  1
  Pr  Pr69  1  0.83317533  0.62696377  0.83650554  1
  Pr  Pr70  1  0.67135147  0.62306980  0.32888946  1
  Pr  Pr71  1  0.83355703  0.62339889  0.50022129  1
  Mn  Mn72  1  0.00158515  0.00081355  0.16783069  1
  Mn  Mn73  1  -0.00167008  0.00077257  0.50039569  1
  Mn  Mn74  1  -0.00104180  -0.00058513  0.83520961  1
  Mn  Mn75  1  -0.00046709  0.50161298  0.16850084  1
  Mn  Mn76  1  0.00170385  0.49947065  0.50016494  1
  Mn  Mn77  1  -0.00327520  0.50086482  0.83364556  1
  Mn  Mn78  1  0.33363115  0.00070748  0.16788609  1
  Mn  Mn79  1  0.33433807  0.00073285  0.49854975  1
  Mn  Mn80  1  0.33430633  -0.00013824  0.83491322  1
  Mn  Mn81  1  0.33519372  0.49947226  0.16680121  1
  Mn  Mn82  1  0.33175861  0.49861779  0.49967699  1
  Mn  Mn83  1  0.33331711  0.50075921  0.83305275  1
  Mn  Mn84  1  0.66754354  0.00054936  0.16707381  1
  Mn  Mn85  1  0.66514617  -0.00071921  0.49872881  1
  Mn  Mn86  1  0.66834895  0.00105042  0.83136093  1
  Mn  Mn87  1  0.66648724  0.50001757  0.16531854  1
  Mn  Mn88  1  0.66546231  0.50002756  0.49714601  1
  Mn  Mn89  1  0.66600781  0.50045561  0.83180820  1
  Mn  Mn90  1  0.00110147  0.24615262  0.16948927  1
  Mn  Mn91  1  0.00058038  0.25020588  0.50045713  1
  Mn  Mn92  1  -0.00354952  0.24815940  0.83392268  1
  Mn  Mn93  1  0.00063326  0.75230875  0.16773903  1
  Mn  Mn94  1  -0.00039780  0.74875785  0.50005804  1
  Mn  Mn95  1  -0.00027017  0.75108911  0.83475562  1
  Mn  Mn96  1  0.33448650  0.24651345  0.16802045  1
  Mn  Mn97  1  0.33089865  0.25085378  0.49677486  1
  Mn  Mn98  1  0.33184746  0.24870780  0.83337006  1
  Mn  Mn99  1  0.33478823  0.75430043  0.16762880  1
  Mn  Mn100  1  0.33469474  0.74850913  0.50090464  1
  Mn  Mn101  1  0.33512739  0.74988228  0.83518630  1
  Mn  Mn102  1  0.66389642  0.24827806  0.16484980  1
  Mn  Mn103  1  0.66487608  0.24998582  0.49808371  1
  Mn  Mn104  1  0.66794750  0.25001162  0.83186637  1
  Mn  Mn105  1  0.66932529  0.75098146  0.16773955  1
  Mn  Mn106  1  0.66596001  0.75009050  0.49696735  1
  Mn  Mn107  1  0.66775995  0.75075960  0.83019420  1
  Mn  Mn108  1  0.16650140  0.24860237  0.00547939  1
  Mn  Mn109  1  0.16667031  0.24913388  0.33561024  1
  Mn  Mn110  1  0.16347661  0.24848511  0.66490902  1
  Mn  Mn111  1  0.16708104  0.75173296  0.00302829  1
  Mn  Mn112  1  0.16795930  0.75035367  0.33610702  1
  Mn  Mn113  1  0.16662357  0.74954880  0.66991815  1
  Mn  Mn114  1  0.49895299  0.24948527  0.00216460  1
  Mn  Mn115  1  0.50024318  0.24771126  0.33021814  1
  Mn  Mn116  1  0.49834074  0.24919963  0.66429498  1
  Mn  Mn117  1  0.49794605  0.75123737  0.00012492  1
  Mn  Mn118  1  0.50417535  0.75131270  0.33400969  1
  Mn  Mn119  1  0.50020146  0.74960594  0.66563989  1
  Mn  Mn120  1  0.83152530  0.24948220  -0.00192039  1
  Mn  Mn121  1  0.83440810  0.24911217  0.33242025  1
  Mn  Mn122  1  0.83103124  0.24918306  0.66659384  1
  Mn  Mn123  1  0.83541317  0.75222202  -0.00159069  1
  Mn  Mn124  1  0.83365626  0.75059674  0.32939045  1
  Mn  Mn125  1  0.83471145  0.74977376  0.66481207  1
  Mn  Mn126  1  0.16677851  -0.00099588  0.00492483  1
  Mn  Mn127  1  0.16799384  0.00311121  0.33624790  1
  Mn  Mn128  1  0.16623105  0.00006698  0.67001332  1
  Mn  Mn129  1  0.16687627  0.50081738  0.00342751  1
  Mn  Mn130  1  0.16553065  0.49742038  0.33530975  1
  Mn  Mn131  1  0.16368103  0.50140587  0.66510533  1
  Mn  Mn132  1  0.49956973  -0.00030325  0.00120283  1
  Mn  Mn133  1  0.50153671  0.00169805  0.33457744  1
  Mn  Mn134  1  0.49922704  0.00008370  0.66509672  1
  Mn  Mn135  1  0.49846544  0.50060738  -0.00017030  1
  Mn  Mn136  1  0.50286759  0.49833126  0.33070555  1
  Mn  Mn137  1  0.49916068  0.50044797  0.66594552  1
  Mn  Mn138  1  0.83453980  -0.00130491  -0.00146403  1
  Mn  Mn139  1  0.83261674  0.00150715  0.32971881  1
  Mn  Mn140  1  0.83375582  -0.00068436  0.66604369  1
  Mn  Mn141  1  0.83260847  0.50082029  -0.00135561  1
  Mn  Mn142  1  0.83487345  0.49966740  0.33130679  1
  Mn  Mn143  1  0.83215508  0.50092230  0.66503773  1
  O  O144  1  0.17387268  0.12293793  0.02745213  1
  O  O145  1  0.17618817  0.12943649  0.36385538  1
  O  O146  1  0.17168825  0.12389728  0.67942030  1
  O  O147  1  0.16895334  0.62744977  0.01404516  1
  O  O148  1  0.16051198  0.61905233  0.35778281  1
  O  O149  1  0.16652165  0.62609169  0.68069655  1
  O  O150  1  0.50061975  0.12364634  0.02307315  1
  O  O151  1  0.50505004  0.12483380  0.36166606  1
  O  O152  1  0.50138907  0.12394596  0.67686705  1
  O  O153  1  0.49358344  0.62665338  0.02454714  1
  O  O154  1  0.51219802  0.62637692  0.35625653  1
  O  O155  1  0.49360285  0.62409431  0.69044729  1
  O  O156  1  0.83039387  0.12251328  0.01965218  1
  O  O157  1  0.83528282  0.12431606  0.35999380  1
  O  O158  1  0.83511385  0.12422581  0.68969273  1
  O  O159  1  0.83868462  0.62886248  0.01228425  1
  O  O160  1  0.83553775  0.62319213  0.35652939  1
  O  O161  1  0.83997072  0.62535302  0.69118729  1
  O  O162  1  0.15997280  0.36935351  0.30685223  1
  O  O163  1  0.16123105  0.37440867  0.64419476  1
  O  O164  1  0.17117786  0.37332827  0.99335291  1
  O  O165  1  0.15908481  0.88134935  0.32256060  1
  O  O166  1  0.15847445  0.87509653  0.65664954  1
  O  O167  1  0.16581250  0.87591954  0.97591438  1
  O  O168  1  0.49790607  0.36864477  0.30420016  1
  O  O169  1  0.50200484  0.37376147  0.65531024  1
  O  O170  1  0.49629321  0.37478508  0.99061588  1
  O  O171  1  0.50192532  0.87982513  0.30954729  1
  O  O172  1  0.50582671  0.87728616  0.64180534  1
  O  O173  1  0.49148714  0.87563829  0.97562226  1
  O  O174  1  0.83392219  0.37361786  0.31922298  1
  O  O175  1  0.83617411  0.37480107  0.65258280  1
  O  O176  1  0.83188504  0.37183637  0.97681297  1
  O  O177  1  0.82696262  0.88051594  0.30437647  1
  O  O178  1  0.83313725  0.87554474  0.65125226  1
  O  O179  1  0.84325460  0.87734491  0.98108158  1
  O  O180  1  0.00443250  0.36807282  0.19133223  1
  O  O181  1  0.00637578  0.37453549  0.52992304  1
  O  O182  1  -0.00992663  0.37490435  0.84323477  1
  O  O183  1  -0.01114745  0.87910862  0.19412270  1
  O  O184  1  -0.00096112  0.87579290  0.52424963  1
  O  O185  1  -0.00046100  0.87608343  0.85702131  1
  O  O186  1  0.33942924  0.36716011  0.19241433  1
  O  O187  1  0.32674815  0.37424134  0.52672192  1
  O  O188  1  0.33274472  0.37311904  0.85013971  1
  O  O189  1  0.34276767  0.87947077  0.19041057  1
  O  O190  1  0.34401413  0.87385999  0.51017068  1
  O  O191  1  0.33571782  0.87506041  0.85608106  1
  O  O192  1  0.65776812  0.37051546  0.18991311  1
  O  O193  1  0.66740621  0.37117200  0.52580021  1
  O  O194  1  0.67274553  0.37291875  0.84801429  1
  O  O195  1  0.67308441  0.87796205  0.19021726  1
  O  O196  1  0.66255136  0.87627451  0.52690573  1
  O  O197  1  0.66153593  0.87705549  0.83970547  1
  O  O198  1  0.01066834  0.12201568  0.14171200  1
  O  O199  1  -0.00156736  0.12654970  0.47868070  1
  O  O200  1  -0.00668498  0.12233758  0.81032406  1
  O  O201  1  0.00082895  0.63268410  0.14473054  1
  O  O202  1  -0.00013474  0.62219310  0.47522969  1
  O  O203  1  -0.00671535  0.62635873  0.81104856  1
  O  O204  1  0.33064067  0.12404548  0.13972557  1
  O  O205  1  0.33343871  0.12841853  0.47594850  1
  O  O206  1  0.33179543  0.12382353  0.81166281  1
  O  O207  1  0.34010727  0.63042474  0.14684550  1
  O  O208  1  0.33407527  0.62172143  0.48830641  1
  O  O209  1  0.33926581  0.62717398  0.80931158  1
  O  O210  1  0.66414544  0.12243868  0.13795674  1
  O  O211  1  0.66473275  0.12452857  0.47683802  1
  O  O212  1  0.67491036  0.12513916  0.80850296  1
  O  O213  1  0.66032430  0.62833342  0.15522842  1
  O  O214  1  0.66256598  0.62770030  0.47333428  1
  O  O215  1  0.66631971  0.62678502  0.82172967  1
  O  O216  1  0.08000750  0.02371769  0.25783603  1
  O  O217  1  0.07604447  0.01966645  0.59144251  1
  O  O218  1  0.07391669  0.01437130  0.93141323  1
  O  O219  1  0.07527315  0.51231282  0.26301705  1
  O  O220  1  0.08348601  0.52566140  0.58015895  1
  O  O221  1  0.07684360  0.51412382  0.92273073  1
  O  O222  1  0.41739064  0.02590450  0.25194665  1
  O  O223  1  0.41110459  0.02337704  0.58638534  1
  O  O224  1  0.41006273  0.01644449  0.92561637  1
  O  O225  1  0.42747317  0.51282425  0.23964891  1
  O  O226  1  0.41430151  0.51796055  0.58382792  1
  O  O227  1  0.41888196  0.52291404  0.91570707  1
  O  O228  1  0.74844639  0.02950323  0.25049132  1
  O  O229  1  0.74485778  0.02249494  0.58422712  1
  O  O230  1  0.74897567  0.02070637  0.91776072  1
  O  O231  1  0.74891864  0.51340652  0.25008779  1
  O  O232  1  0.75651623  0.51848068  0.57577894  1
  O  O233  1  0.75891196  0.51124060  0.90438257  1
  O  O234  1  0.25076025  0.22631794  0.25104257  1
  O  O235  1  0.24589355  0.22964524  0.57685303  1
  O  O236  1  0.25245734  0.23610227  0.92634052  1
  O  O237  1  0.25264173  0.74796432  0.25117804  1
  O  O238  1  0.24893340  0.73147281  0.58481303  1
  O  O239  1  0.25608929  0.74099879  0.92187194  1
  O  O240  1  0.58368227  0.22066827  0.24946200  1
  O  O241  1  0.58027980  0.22831707  0.57864909  1
  O  O242  1  0.59062420  0.23610983  0.92356796  1
  O  O243  1  0.59103455  0.73801740  0.25711439  1
  O  O244  1  0.57286662  0.73408897  0.57094977  1
  O  O245  1  0.57477620  0.74054654  0.90750821  1
  O  O246  1  0.91601174  0.22270323  0.24711684  1
  O  O247  1  0.91394407  0.22764069  0.58315770  1
  O  O248  1  0.91317384  0.22547208  0.91583416  1
  O  O249  1  0.91558347  0.73246292  0.24752488  1
  O  O250  1  0.91584155  0.72431600  0.57947646  1
  O  O251  1  0.91646252  0.72965735  0.91332390  1
  O  O252  1  0.08829516  0.48663494  0.09456647  1
  O  O253  1  0.08680310  0.47229582  0.42164533  1
  O  O254  1  0.07169809  0.48928506  0.74206713  1
  O  O255  1  0.08866402  0.97905858  0.09215549  1
  O  O256  1  0.08507498  0.99593264  0.42143558  1
  O  O257  1  0.08475564  0.97936584  0.75948103  1
  O  O258  1  0.41090035  0.48023704  0.07744023  1
  O  O259  1  0.41398222  0.48470921  0.40837431  1
  O  O260  1  0.41071219  0.48683572  0.74312254  1
  O  O261  1  0.41869725  0.98083127  0.08614574  1
  O  O262  1  0.42660507  0.98915081  0.42412935  1
  O  O263  1  0.42601430  0.98373756  0.75588143  1
  O  O264  1  0.74447868  0.48929314  0.07761133  1
  O  O265  1  0.74691738  0.48872572  0.40886633  1
  O  O266  1  0.74707412  0.48012622  0.74272726  1
  O  O267  1  0.76121740  0.98618346  0.08971127  1
  O  O268  1  0.74587269  0.98824469  0.41135591  1
  O  O269  1  0.75431579  0.98403158  0.74784805  1
  O  O270  1  0.25258536  0.27068638  0.08925743  1
  O  O271  1  0.25056306  0.27922917  0.41378471  1
  O  O272  1  0.25027071  0.26358977  0.73993409  1
  O  O273  1  0.25423793  0.76999455  0.08114159  1
  O  O274  1  0.25234710  0.75477579  0.41962277  1
  O  O275  1  0.24964236  0.76570095  0.75760050  1
  O  O276  1  0.57489258  0.26331104  0.09154008  1
  O  O277  1  0.58805345  0.26731984  0.40588854  1
  O  O278  1  0.59117862  0.25869375  0.74215503  1
  O  O279  1  0.57670599  0.76658581  0.09202534  1
  O  O280  1  0.58566518  0.77946135  0.41508121  1
  O  O281  1  0.58742406  0.76991947  0.74101627  1
  O  O282  1  0.91701828  0.24893888  0.08284692  1
  O  O283  1  0.92838817  0.26373671  0.41091061  1
  O  O284  1  0.91026629  0.26422581  0.74993489  1
  O  O285  1  0.92260942  0.77232902  0.08189105  1
  O  O286  1  0.92241504  0.76350179  0.40839180  1
  O  O287  1  0.92544185  0.76766768  0.74396499  1
  O  O288  1  0.25213910  0.48178172  0.08780437  1
  O  O289  1  0.24841419  0.47455869  0.41682259  1
  O  O290  1  0.25030539  0.48744841  0.74262989  1
  O  O291  1  0.25516537  0.97875452  0.08204261  1
  O  O292  1  0.26036039  0.99148511  0.41013436  1
  O  O293  1  0.24926191  0.98384682  0.75582613  1
  O  O294  1  0.57467729  0.48717843  0.09000953  1
  O  O295  1  0.58739802  0.47782981  0.40830835  1
  O  O296  1  0.58597392  0.48657235  0.74392160  1
  O  O297  1  0.57755313  0.98315838  0.09217132  1
  O  O298  1  0.58578123  0.97518568  0.41526633  1
  O  O299  1  0.59009859  0.98753113  0.73968127  1
  O  O300  1  0.91836322  0.49660729  0.08107273  1
  O  O301  1  0.92552527  0.48544737  0.41183632  1
  O  O302  1  0.90922378  0.48369135  0.75254490  1
  O  O303  1  0.92438672  0.98630757  0.07715618  1
  O  O304  1  0.92368925  0.98549510  0.40300114  1
  O  O305  1  0.92536805  0.98458608  0.73958945  1
  O  O306  1  0.09350929  0.26100444  0.09898457  1
  O  O307  1  0.08841762  0.27259729  0.42168535  1
  O  O308  1  0.07369389  0.25912033  0.74302793  1
  O  O309  1  0.08410510  0.77409703  0.08953587  1
  O  O310  1  0.08259668  0.75968186  0.42107017  1
  O  O311  1  0.08480444  0.77065066  0.75711260  1
  O  O312  1  0.41405393  0.26719460  0.08591316  1
  O  O313  1  0.40966580  0.26314660  0.40639027  1
  O  O314  1  0.41054537  0.25867566  0.74013001  1
  O  O315  1  0.41411267  0.77504434  0.08180039  1
  O  O316  1  0.42639102  0.75981714  0.42255108  1
  O  O317  1  0.42771375  0.76586112  0.76109402  1
  O  O318  1  0.74214250  0.25681067  0.07523549  1
  O  O319  1  0.74614352  0.26038788  0.41169272  1
  O  O320  1  0.75002771  0.27174246  0.74760109  1
  O  O321  1  0.75717384  0.76603436  0.08723765  1
  O  O322  1  0.74474948  0.76453167  0.40670952  1
  O  O323  1  0.75046454  0.76572630  0.74430293  1
  O  O324  1  0.24717909  0.02352734  0.24789111  1
  O  O325  1  0.24878123  0.01890304  0.57914844  1
  O  O326  1  0.25104643  0.01152424  0.92340501  1
  O  O327  1  0.25135873  0.49993403  0.25314958  1
  O  O328  1  0.24585567  0.51834844  0.58082053  1
  O  O329  1  0.25719110  0.51072737  0.92431065  1
  O  O330  1  0.58471822  0.02319801  0.25406931  1
  O  O331  1  0.57831514  0.02120618  0.57663684  1
  O  O332  1  0.58500921  0.01428467  0.92132845  1
  O  O333  1  0.58764263  0.51784035  0.25262274  1
  O  O334  1  0.57607081  0.51666416  0.57610269  1
  O  O335  1  0.57874173  0.51370083  0.91455290  1
  O  O336  1  0.91186687  0.02771562  0.24166375  1
  O  O337  1  0.91000325  0.02453910  0.57775445  1
  O  O338  1  0.91209953  0.02338025  0.91220590  1
  O  O339  1  0.91777720  0.51914570  0.25136425  1
  O  O340  1  0.91942196  0.52176553  0.58475532  1
  O  O341  1  0.91620955  0.52243416  0.91497640  1
  O  O342  1  0.08073365  0.22147858  0.26039698  1
  O  O343  1  0.08090841  0.22383237  0.58287513  1
  O  O344  1  0.07687182  0.23251187  0.92795907  1
  O  O345  1  0.07484531  0.74052072  0.25905213  1
  O  O346  1  0.07809655  0.72967143  0.58700326  1
  O  O347  1  0.07464506  0.73811795  0.92700835  1
  O  O348  1  0.41857801  0.21873390  0.24695784  1
  O  O349  1  0.41239447  0.22988388  0.57910320  1
  O  O350  1  0.41301244  0.23576259  0.92573438  1
  O  O351  1  0.42975003  0.73860882  0.24416599  1
  O  O352  1  0.41316127  0.72687294  0.58878869  1
  O  O353  1  0.41431966  0.72536011  0.91911669  1
  O  O354  1  0.74747959  0.22774247  0.24520060  1
  O  O355  1  0.74729518  0.22509235  0.58561477  1
  O  O356  1  0.75281998  0.22734415  0.91103334  1
  O  O357  1  0.75071065  0.72991440  0.24968484  1
  O  O358  1  0.75308677  0.73251151  0.57219533  1
  O  O359  1  0.75433775  0.74164275  0.90805975  1
