# generated using pymatgen
data_Ba17Sr5La8Pr42Mn72O216
_symmetry_space_group_name_H-M   'P 1'
_cell_length_a   16.67392642
_cell_length_b   15.70598160
_cell_length_c   16.81970185
_cell_angle_alpha   89.99979188
_cell_angle_beta   89.99918211
_cell_angle_gamma   89.98946479
_symmetry_Int_Tables_number   1
_chemical_formula_structural   Ba17Sr5La8Pr42Mn72O216
_chemical_formula_sum   'Ba17 Sr5 La8 Pr42 Mn72 O216'
_cell_volume   4404.74986169
_cell_formula_units_Z   1
loop_
 _symmetry_equiv_pos_site_id
 _symmetry_equiv_pos_as_xyz
  1  'x, y, z'
loop_
 _atom_site_type_symbol
 _atom_site_label
 _atom_site_symmetry_multiplicity
 _atom_site_fract_x
 _atom_site_fract_y
 _atom_site_fract_z
 _atom_site_occupancy
  Ba  Ba0  1  0.33291551  0.87329878  0.33268789  1
  Ba  Ba1  1  0.16538158  0.87535902  0.16399706  1
  Ba  Ba2  1  0.83548240  0.12607507  0.50265175  1
  Ba  Ba3  1  0.66598665  0.87445045  0.00193029  1
  Ba  Ba4  1  0.33495583  0.62255608  0.66484261  1
  Ba  Ba5  1  0.83279744  0.62469393  0.83781492  1
  Ba  Ba6  1  0.83048412  0.12531014  0.83672840  1
  Ba  Ba7  1  0.00196215  0.37420975  0.33374659  1
  Ba  Ba8  1  0.33144238  0.87626898  0.00081155  1
  Ba  Ba9  1  0.66859231  0.37728885  0.33616671  1
  Ba  Ba10  1  0.50046493  0.12543436  0.50087112  1
  Ba  Ba11  1  0.33293280  0.87362971  0.66602303  1
  Ba  Ba12  1  0.33560637  0.62250992  0.33074743  1
  Ba  Ba13  1  0.16740151  0.12920804  0.83084377  1
  Ba  Ba14  1  0.16532324  0.87395402  0.49731144  1
  Ba  Ba15  1  0.83290558  0.12442379  0.17109209  1
  Ba  Ba16  1  0.00177810  0.62326358  0.99544451  1
  Sr  Sr17  1  0.00160828  0.12640262  0.33195099  1
  Sr  Sr18  1  0.49768399  0.87419315  0.16459212  1
  Sr  Sr19  1  0.33546696  0.37410809  0.33354747  1
  Sr  Sr20  1  0.49891623  0.87389659  0.49835172  1
  Sr  Sr21  1  0.82969913  0.87237276  0.83480794  1
  La  La22  1  0.83520602  0.37634300  0.83747152  1
  La  La23  1  0.66509109  0.87941257  0.67186444  1
  La  La24  1  0.50032852  0.62692568  0.49909066  1
  La  La25  1  0.83215937  0.62590851  0.16944827  1
  La  La26  1  0.33463804  0.62561785  0.99815980  1
  La  La27  1  -0.00443451  0.87742620  0.66880001  1
  La  La28  1  0.17198506  0.62520729  0.83307031  1
  La  La29  1  -0.00015585  0.12352109  0.99874001  1
  Pr  Pr30  1  0.83468964  0.61848752  0.50607939  1
  Pr  Pr31  1  0.32948126  0.36836988  0.00129375  1
  Pr  Pr32  1  0.16767251  0.12686665  0.49963048  1
  Pr  Pr33  1  0.49957264  0.37742893  0.16305726  1
  Pr  Pr34  1  0.17328100  0.62387540  0.49672163  1
  Pr  Pr35  1  -0.00184861  0.37245325  0.00089869  1
  Pr  Pr36  1  0.84090475  0.37236354  0.16854919  1
  Pr  Pr37  1  -0.00452115  0.87641067  -0.00356213  1
  Pr  Pr38  1  0.50005575  0.37808752  0.83018168  1
  Pr  Pr39  1  0.00198461  0.62651744  0.66458787  1
  Pr  Pr40  1  0.83731166  0.37405765  0.49827260  1
  Pr  Pr41  1  0.66849732  0.62828605  0.66694516  1
  Pr  Pr42  1  0.33498875  0.12200300  1.00023674  1
  Pr  Pr43  1  0.67157081  0.37489247  0.00875955  1
  Pr  Pr44  1  -0.00104065  0.37285295  0.66509053  1
  Pr  Pr45  1  0.49936456  0.12044695  0.17088461  1
  Pr  Pr46  1  0.33393005  0.12081990  0.33317753  1
  Pr  Pr47  1  0.00147656  0.12389877  0.66168861  1
  Pr  Pr48  1  0.83149946  0.87425879  0.50116842  1
  Pr  Pr49  1  0.49829237  0.62834040  0.83401400  1
  Pr  Pr50  1  0.66819855  0.12246198  0.66518236  1
  Pr  Pr51  1  0.00394793  0.62582966  0.32656053  1
  Pr  Pr52  1  0.66242757  0.62687801  0.99766141  1
  Pr  Pr53  1  0.66513159  0.62655631  0.33420583  1
  Pr  Pr54  1  0.66441940  0.12499924  0.33310700  1
  Pr  Pr55  1  0.17086892  0.37820270  0.49258778  1
  Pr  Pr56  1  0.49711833  0.12226555  0.83294511  1
  Pr  Pr57  1  0.49834592  0.87390260  0.82911530  1
  Pr  Pr58  1  0.16126370  0.87488736  0.82637279  1
  Pr  Pr59  1  0.33587211  0.37339725  0.66602548  1
  Pr  Pr60  1  0.33116981  0.12562875  0.65911453  1
  Pr  Pr61  1  0.66645533  0.87756154  0.33551212  1
  Pr  Pr62  1  0.16922123  0.12530256  0.16802535  1
  Pr  Pr63  1  0.65966358  0.12257971  1.00135084  1
  Pr  Pr64  1  0.66888225  0.37083346  0.66980826  1
  Pr  Pr65  1  0.83516587  0.87624053  0.16422581  1
  Pr  Pr66  1  0.50149214  0.63019299  0.16686550  1
  Pr  Pr67  1  0.50080250  0.37840808  0.49413440  1
  Pr  Pr68  1  0.16325204  0.37776812  0.82759802  1
  Pr  Pr69  1  0.17165484  0.62641359  0.16531507  1
  Pr  Pr70  1  -0.00389131  0.87840206  0.33542772  1
  Pr  Pr71  1  0.16610106  0.37630596  0.16563148  1
  Mn  Mn72  1  0.00083944  0.00005735  0.16694785  1
  Mn  Mn73  1  0.00016073  -0.00013235  0.49959679  1
  Mn  Mn74  1  -0.00170627  0.00196952  0.83232652  1
  Mn  Mn75  1  0.00042497  0.50067424  0.16439037  1
  Mn  Mn76  1  0.00144070  0.50230620  0.49901778  1
  Mn  Mn77  1  0.00129776  0.49779458  0.83132089  1
  Mn  Mn78  1  0.33311972  0.00174783  0.16539067  1
  Mn  Mn79  1  0.33348279  0.00028592  0.49826493  1
  Mn  Mn80  1  0.33194648  0.00167379  0.83279270  1
  Mn  Mn81  1  0.33477230  0.49587198  0.16287820  1
  Mn  Mn82  1  0.33563399  0.49907683  0.49789511  1
  Mn  Mn83  1  0.33436639  0.49720288  0.83277019  1
  Mn  Mn84  1  0.66546052  -0.00079493  0.16885394  1
  Mn  Mn85  1  0.66753276  -0.00148755  0.50216701  1
  Mn  Mn86  1  0.66445589  0.00149917  0.83516365  1
  Mn  Mn87  1  0.66709088  0.50036913  0.16849087  1
  Mn  Mn88  1  0.66779813  0.50138371  0.50395610  1
  Mn  Mn89  1  0.66407563  0.49782261  0.83652111  1
  Mn  Mn90  1  0.00211165  0.25084406  0.16587805  1
  Mn  Mn91  1  0.00276030  0.25050930  0.50048291  1
  Mn  Mn92  1  -0.00122138  0.25171840  0.83294439  1
  Mn  Mn93  1  -0.00012148  0.74923284  0.16509224  1
  Mn  Mn94  1  -0.00195786  0.74719038  0.49697517  1
  Mn  Mn95  1  0.00007101  0.74995792  0.83059436  1
  Mn  Mn96  1  0.33422986  0.25075166  0.16827853  1
  Mn  Mn97  1  0.33418575  0.25245101  0.49832848  1
  Mn  Mn98  1  0.33456184  0.25099458  0.83234720  1
  Mn  Mn99  1  0.33367047  0.74923481  0.16432592  1
  Mn  Mn100  1  0.33487750  0.74969701  0.49866205  1
  Mn  Mn101  1  0.33249526  0.74963472  0.83417501  1
  Mn  Mn102  1  0.66532378  0.25126719  0.16899438  1
  Mn  Mn103  1  0.66727978  0.25072451  0.50291388  1
  Mn  Mn104  1  0.66322212  0.25145896  0.83792449  1
  Mn  Mn105  1  0.66762959  0.74848453  0.16842410  1
  Mn  Mn106  1  0.66867361  0.74990923  0.50076154  1
  Mn  Mn107  1  0.66509381  0.74962485  0.83338508  1
  Mn  Mn108  1  0.16599337  0.25059390  -0.00042275  1
  Mn  Mn109  1  0.16930734  0.25036091  0.33274105  1
  Mn  Mn110  1  0.16653859  0.25276442  0.66322809  1
  Mn  Mn111  1  0.16590793  0.74964475  -0.00333608  1
  Mn  Mn112  1  0.16471180  0.74869542  0.33117180  1
  Mn  Mn113  1  0.16424617  0.74797283  0.66386649  1
  Mn  Mn114  1  0.49972776  0.25051093  -0.00095005  1
  Mn  Mn115  1  0.50023647  0.25071864  0.33278408  1
  Mn  Mn116  1  0.50130098  0.25258671  0.66717113  1
  Mn  Mn117  1  0.49890422  0.74911937  0.00020754  1
  Mn  Mn118  1  0.50231087  0.75045194  0.33307476  1
  Mn  Mn119  1  0.50188982  0.74911680  0.66579476  1
  Mn  Mn120  1  0.83117481  0.24927811  0.00285505  1
  Mn  Mn121  1  0.83327784  0.25012201  0.33542971  1
  Mn  Mn122  1  0.83372104  0.25204541  0.66982699  1
  Mn  Mn123  1  0.83298688  0.75081059  0.00222250  1
  Mn  Mn124  1  0.83290255  0.74926042  0.33607509  1
  Mn  Mn125  1  0.83357957  0.74822063  0.66719011  1
  Mn  Mn126  1  0.16441069  0.00233816  -0.00281730  1
  Mn  Mn127  1  0.16464116  0.00230948  0.33262402  1
  Mn  Mn128  1  0.16583213  0.00112767  0.66475155  1
  Mn  Mn129  1  0.16873071  0.49657966  -0.00279615  1
  Mn  Mn130  1  0.16822961  0.49941641  0.33018634  1
  Mn  Mn131  1  0.16476323  0.49860825  0.66264871  1
  Mn  Mn132  1  0.49893072  0.00152618  0.00089988  1
  Mn  Mn133  1  0.50073574  -0.00053732  0.33399778  1
  Mn  Mn134  1  0.49931029  0.00077823  0.66784900  1
  Mn  Mn135  1  0.49927375  0.49736905  -0.00262623  1
  Mn  Mn136  1  0.50155945  0.49978549  0.33080261  1
  Mn  Mn137  1  0.50384496  0.49877422  0.66458493  1
  Mn  Mn138  1  0.83238574  0.00039111  0.00262193  1
  Mn  Mn139  1  0.83247471  -0.00099239  0.33540731  1
  Mn  Mn140  1  0.83367725  -0.00060018  0.66992706  1
  Mn  Mn141  1  0.83126063  0.49842253  0.00375602  1
  Mn  Mn142  1  0.83430886  0.50260800  0.33685465  1
  Mn  Mn143  1  0.83330360  0.49872321  0.66937765  1
  O  O144  1  0.15751010  0.12989879  0.02303128  1
  O  O145  1  0.16722408  0.12932469  0.35467405  1
  O  O146  1  0.17142203  0.12864975  0.67624546  1
  O  O147  1  0.17044047  0.61586976  0.02116865  1
  O  O148  1  0.15852695  0.62233129  0.35049408  1
  O  O149  1  0.16042872  0.61943711  0.69003505  1
  O  O150  1  0.50081162  0.13025464  0.02689634  1
  O  O151  1  0.50279248  0.12637329  0.34510415  1
  O  O152  1  0.49906441  0.12979787  0.68953925  1
  O  O153  1  0.49852098  0.61749251  0.02294288  1
  O  O154  1  0.50747653  0.62433281  0.35366327  1
  O  O155  1  0.50819879  0.62106641  0.69125865  1
  O  O156  1  0.83829247  0.12660660  0.01348321  1
  O  O157  1  0.82774062  0.12261095  0.34653932  1
  O  O158  1  0.83868467  0.12955857  0.68033556  1
  O  O159  1  0.82837245  0.62213662  0.02261269  1
  O  O160  1  0.83398769  0.62742966  0.36404812  1
  O  O161  1  0.83646131  0.62277463  0.68299167  1
  O  O162  1  0.17099354  0.37485028  0.31005117  1
  O  O163  1  0.15887144  0.37557393  0.63515395  1
  O  O164  1  0.17309574  0.37309723  0.97063122  1
  O  O165  1  0.15758306  0.87414260  0.32159791  1
  O  O166  1  0.15673026  0.87667284  0.65655570  1
  O  O167  1  0.16244019  0.87975200  0.97206079  1
  O  O168  1  0.50040378  0.37483055  0.30816486  1
  O  O169  1  0.50778143  0.37590574  0.63743297  1
  O  O170  1  0.50046753  0.37351929  0.97131082  1
  O  O171  1  0.51017919  0.87454240  0.31498232  1
  O  O172  1  0.50851366  0.87391884  0.65202878  1
  O  O173  1  0.49875766  0.87780966  0.97467802  1
  O  O174  1  0.83295197  0.38005603  0.31283943  1
  O  O175  1  0.82756064  0.37689877  0.64181535  1
  O  O176  1  0.82309321  0.37425647  0.98281948  1
  O  O177  1  0.83183005  0.87092212  0.30751087  1
  O  O178  1  0.83209405  0.86980240  0.64512405  1
  O  O179  1  0.83655512  0.87690502  0.98653957  1
  O  O180  1  -0.00022288  0.37683813  0.17835394  1
  O  O181  1  0.00702743  0.37807903  0.52197046  1
  O  O182  1  0.00880382  0.37457434  0.85544570  1
  O  O183  1  -0.00413192  0.87034240  0.19187045  1
  O  O184  1  -0.00309463  0.87002267  0.52384432  1
  O  O185  1  0.01263655  0.87566432  0.84910294  1
  O  O186  1  0.33434518  0.37276384  0.18683492  1
  O  O187  1  0.33361414  0.37586249  0.52184733  1
  O  O188  1  0.33646371  0.37328671  0.85832555  1
  O  O189  1  0.33546481  0.87975860  0.17468311  1
  O  O190  1  0.33596470  0.87415017  0.50681261  1
  O  O191  1  0.33663271  0.87279273  0.84439120  1
  O  O192  1  0.65620435  0.37623410  0.18122325  1
  O  O193  1  0.66310003  0.37800717  0.52620314  1
  O  O194  1  0.65611190  0.37395380  0.86541648  1
  O  O195  1  0.66901793  0.86968105  0.19115983  1
  O  O196  1  0.67050590  0.87056743  0.52751299  1
  O  O197  1  0.65868179  0.87439405  0.84421006  1
  O  O198  1  0.00673010  0.12984660  0.14206295  1
  O  O199  1  0.00441016  0.12672400  0.48398258  1
  O  O200  1  -0.00473961  0.13060282  0.80706882  1
  O  O201  1  -0.00339890  0.62366509  0.15047626  1
  O  O202  1  -0.01260050  0.62497203  0.47027584  1
  O  O203  1  0.00253821  0.62103743  0.81030815  1
  O  O204  1  0.33588007  0.13011732  0.14342347  1
  O  O205  1  0.32856710  0.13048803  0.48004808  1
  O  O206  1  0.33959034  0.13198771  0.80206634  1
  O  O207  1  0.33367538  0.61673291  0.14240896  1
  O  O208  1  0.33492264  0.62081364  0.49000509  1
  O  O209  1  0.33267944  0.62154719  0.82013756  1
  O  O210  1  0.66133714  0.12988396  0.14499991  1
  O  O211  1  0.66917109  0.12558097  0.47905019  1
  O  O212  1  0.65956213  0.13018462  0.80792746  1
  O  O213  1  0.66898496  0.62250912  0.14109233  1
  O  O214  1  0.67275762  0.62671744  0.47696496  1
  O  O215  1  0.66063307  0.62204690  0.81045226  1
  O  O216  1  0.08876580  0.02115030  0.24212101  1
  O  O217  1  0.08757677  0.02166965  0.57793242  1
  O  O218  1  0.08128922  0.01893542  0.91373416  1
  O  O219  1  0.08398574  0.51829129  0.24637664  1
  O  O220  1  0.08092879  0.52887115  0.58042459  1
  O  O221  1  0.09504639  0.51077705  0.90553479  1
  O  O222  1  0.41573279  0.02030197  0.24991162  1
  O  O223  1  0.41296431  0.01581027  0.59178363  1
  O  O224  1  0.41632180  0.02554202  0.91779221  1
  O  O225  1  0.42596959  0.51169827  0.23421520  1
  O  O226  1  0.42737759  0.50947196  0.57606391  1
  O  O227  1  0.42231205  0.51805553  0.91200893  1
  O  O228  1  0.73968599  0.01063463  0.26275406  1
  O  O229  1  0.74877970  0.01157687  0.58946170  1
  O  O230  1  0.74082292  0.01636633  0.92468946  1
  O  O231  1  0.75060216  0.52527828  0.25809899  1
  O  O232  1  0.74775948  0.52131311  0.59034773  1
  O  O233  1  0.73962780  0.51225306  0.93064712  1
  O  O234  1  0.25319097  0.22518382  0.25133929  1
  O  O235  1  0.24849576  0.23517117  0.57975898  1
  O  O236  1  0.25656801  0.23335732  0.92698642  1
  O  O237  1  0.24779265  0.73349019  0.24530297  1
  O  O238  1  0.24543823  0.73524691  0.58305913  1
  O  O239  1  0.25387888  0.72885362  0.92075788  1
  O  O240  1  0.57997312  0.22955724  0.24609306  1
  O  O241  1  0.58869827  0.23323467  0.59250259  1
  O  O242  1  0.57865121  0.22241635  0.91558856  1
  O  O243  1  0.58676019  0.72542637  0.25048431  1
  O  O244  1  0.58915648  0.72619553  0.58440745  1
  O  O245  1  0.57967219  0.72715239  0.91515142  1
  O  O246  1  0.91797090  0.24394680  0.24821283  1
  O  O247  1  0.92551665  0.24491732  0.59094028  1
  O  O248  1  0.91340536  0.24823631  0.91902589  1
  O  O249  1  0.91655629  0.72765222  0.25557173  1
  O  O250  1  0.91986822  0.72702155  0.58406816  1
  O  O251  1  0.92220052  0.74814918  0.91724606  1
  O  O252  1  0.08580170  0.47556477  0.07606109  1
  O  O253  1  0.09096859  0.48898611  0.42200486  1
  O  O254  1  0.08196291  0.47577168  0.74162269  1
  O  O255  1  0.07438480  0.98571326  0.07117377  1
  O  O256  1  0.07235137  0.98841312  0.40735920  1
  O  O257  1  0.07539807  0.99087518  0.74155059  1
  O  O258  1  0.41481138  0.47221177  0.07424018  1
  O  O259  1  0.42006166  0.48209705  0.41459881  1
  O  O260  1  0.41727994  0.47579082  0.74398199  1
  O  O261  1  0.41828499  0.99676825  0.08375518  1
  O  O262  1  0.41803786  0.99438141  0.41457293  1
  O  O263  1  0.42329046  0.98735714  0.75693284  1
  O  O264  1  0.75474608  0.47748810  0.09377375  1
  O  O265  1  0.75781847  0.48641766  0.43046992  1
  O  O266  1  0.74856846  0.47534299  0.75756205  1
  O  O267  1  0.75373002  0.98612639  0.09402077  1
  O  O268  1  0.75141957  0.97442350  0.42056261  1
  O  O269  1  0.74438794  0.98829901  0.74915856  1
  O  O270  1  0.24728663  0.27017919  0.08872101  1
  O  O271  1  0.25185065  0.27050416  0.41714796  1
  O  O272  1  0.24922790  0.27758225  0.74464583  1
  O  O273  1  0.24672983  0.74936604  0.08364285  1
  O  O274  1  0.24255065  0.74868971  0.41660459  1
  O  O275  1  0.23984067  0.75975113  0.76187727  1
  O  O276  1  0.58416340  0.27160016  0.07831190  1
  O  O277  1  0.58181618  0.26554916  0.42125817  1
  O  O278  1  0.58330421  0.27599314  0.75267667  1
  O  O279  1  0.58236736  0.75424487  0.08543882  1
  O  O280  1  0.58998407  0.76399521  0.41467786  1
  O  O281  1  0.58230890  0.76634275  0.75098280  1
  O  O282  1  0.91817340  0.27093168  0.08046253  1
  O  O283  1  0.91679405  0.26624891  0.42470411  1
  O  O284  1  0.91574392  0.27898746  0.75148362  1
  O  O285  1  0.91563374  0.77057880  0.08807277  1
  O  O286  1  0.91164969  0.77724076  0.41942314  1
  O  O287  1  0.91577056  0.76793819  0.74909428  1
  O  O288  1  0.24978842  0.47176001  0.08051946  1
  O  O289  1  0.25056908  0.48495798  0.41512116  1
  O  O290  1  0.24764549  0.47549230  0.74838701  1
  O  O291  1  0.24505810  1.00319637  0.08445473  1
  O  O292  1  0.24590637  0.99984135  0.41501461  1
  O  O293  1  0.24235730  0.98697864  0.75416105  1
  O  O294  1  0.58071765  0.47973332  0.07829984  1
  O  O295  1  0.58147464  0.48977199  0.42621852  1
  O  O296  1  0.58346924  0.47438437  0.74904464  1
  O  O297  1  0.58177954  0.99345337  0.08435487  1
  O  O298  1  0.58965617  0.98431968  0.41383326  1
  O  O299  1  0.58029054  0.98619201  0.75345191  1
  O  O300  1  0.91501828  0.47712065  0.08310918  1
  O  O301  1  0.91457938  0.48191278  0.42352267  1
  O  O302  1  0.91659447  0.47374550  0.74846685  1
  O  O303  1  0.91660672  0.98031164  0.08771643  1
  O  O304  1  0.91208775  0.97626489  0.42219184  1
  O  O305  1  0.91335347  0.97852097  0.75404082  1
  O  O306  1  0.08455336  0.27671229  0.08076704  1
  O  O307  1  0.09267406  0.26426976  0.42429140  1
  O  O308  1  0.08360862  0.27241741  0.74646110  1
  O  O309  1  0.07703008  0.76518557  0.06961427  1
  O  O310  1  0.06908669  0.75823848  0.40319240  1
  O  O311  1  0.07371886  0.76187989  0.73813316  1
  O  O312  1  0.41752078  0.27369734  0.08182987  1
  O  O313  1  0.41993622  0.27044823  0.42023291  1
  O  O314  1  0.42079707  0.27967193  0.74877159  1
  O  O315  1  0.41778734  0.75365107  0.08190852  1
  O  O316  1  0.42411369  0.75532991  0.41713109  1
  O  O317  1  0.42240864  0.75866717  0.75600390  1
  O  O318  1  0.75360562  0.27235610  0.09354603  1
  O  O319  1  0.75521564  0.26910367  0.43001346  1
  O  O320  1  0.74925567  0.27462430  0.76022901  1
  O  O321  1  0.75669985  0.76237214  0.09651796  1
  O  O322  1  0.74951143  0.77547296  0.41690943  1
  O  O323  1  0.74362348  0.76186060  0.74500127  1
  O  O324  1  0.25174469  0.02386856  0.25092553  1
  O  O325  1  0.25093441  0.01905248  0.58355215  1
  O  O326  1  0.25411685  0.02121681  0.92222086  1
  O  O327  1  0.24392981  0.51292436  0.23908253  1
  O  O328  1  0.24361459  0.50967938  0.57705885  1
  O  O329  1  0.25413998  0.51617501  0.91963566  1
  O  O330  1  0.58226064  0.02014265  0.24954341  1
  O  O331  1  0.58894860  0.01463834  0.59227937  1
  O  O332  1  0.57896142  0.02479923  0.91651087  1
  O  O333  1  0.58579794  0.52483344  0.24911422  1
  O  O334  1  0.58792152  0.52660166  0.58610580  1
  O  O335  1  0.57941591  0.52466838  0.91525034  1
  O  O336  1  0.92081636  0.00668021  0.25759825  1
  O  O337  1  0.92710966  0.00954876  0.59295281  1
  O  O338  1  0.92295763  0.00938792  0.92426203  1
  O  O339  1  0.91346515  0.52122639  0.25269036  1
  O  O340  1  0.91892763  0.51559340  0.58447420  1
  O  O341  1  0.91320016  0.49742062  0.91849932  1
  O  O342  1  0.09091208  0.23714916  0.24335253  1
  O  O343  1  0.08354602  0.22817792  0.58505498  1
  O  O344  1  0.07530237  0.23723230  0.92118693  1
  O  O345  1  0.08592770  0.72615946  0.24189854  1
  O  O346  1  0.08287547  0.72038602  0.57193171  1
  O  O347  1  0.09440309  0.73514397  0.90010081  1
  O  O348  1  0.41587513  0.22833166  0.24965499  1
  O  O349  1  0.40840722  0.24043691  0.59208744  1
  O  O350  1  0.41837005  0.22573332  0.91888801  1
  O  O351  1  0.42387158  0.73606713  0.24300812  1
  O  O352  1  0.42613646  0.73671551  0.58064997  1
  O  O353  1  0.41748497  0.72882352  0.91534431  1
  O  O354  1  0.74044876  0.23640062  0.25882394  1
  O  O355  1  0.74401986  0.23755656  0.59721869  1
  O  O356  1  0.73692066  0.23656606  0.93195277  1
  O  O357  1  0.74971809  0.72389141  0.25590224  1
  O  O358  1  0.75471126  0.72633547  0.58054947  1
  O  O359  1  0.74237817  0.73481405  0.92256408  1
