# generated using pymatgen
data_Ba17Sr5La8Pr42Mn72O216
_symmetry_space_group_name_H-M   'P 1'
_cell_length_a   16.67463305
_cell_length_b   15.70417847
_cell_length_c   16.81947008
_cell_angle_alpha   89.99081745
_cell_angle_beta   89.98842586
_cell_angle_gamma   90.00629628
_symmetry_Int_Tables_number   1
_chemical_formula_structural   Ba17Sr5La8Pr42Mn72O216
_chemical_formula_sum   'Ba17 Sr5 La8 Pr42 Mn72 O216'
_cell_volume   4404.37003199
_cell_formula_units_Z   1
loop_
 _symmetry_equiv_pos_site_id
 _symmetry_equiv_pos_as_xyz
  1  'x, y, z'
loop_
 _atom_site_type_symbol
 _atom_site_label
 _atom_site_symmetry_multiplicity
 _atom_site_fract_x
 _atom_site_fract_y
 _atom_site_fract_z
 _atom_site_occupancy
  Ba  Ba0  1  -0.00088784  0.87676177  0.66790240  1
  Ba  Ba1  1  0.33357711  0.37364369  0.33120952  1
  Ba  Ba2  1  0.49730839  0.12430627  0.49935458  1
  Ba  Ba3  1  0.83344801  0.12412597  0.50286746  1
  Ba  Ba4  1  0.66646873  0.12583601  0.66339191  1
  Ba  Ba5  1  0.66518593  0.87596574  -0.00087489  1
  Ba  Ba6  1  0.33029584  0.62577881  0.66648418  1
  Ba  Ba7  1  0.83260298  0.62264174  0.83290394  1
  Ba  Ba8  1  0.00126811  0.37520239  0.33471903  1
  Ba  Ba9  1  -0.00148426  0.62536257  0.33459456  1
  Ba  Ba10  1  0.83088734  0.62553085  0.50033453  1
  Ba  Ba11  1  0.66507581  0.62579018  0.33274728  1
  Ba  Ba12  1  0.33549690  0.62369980  0.99674147  1
  Ba  Ba13  1  -0.00167637  0.62552951  0.99936852  1
  Ba  Ba14  1  -0.00070900  0.87693447  -0.00012044  1
  Ba  Ba15  1  0.16842486  0.12475917  0.16876471  1
  Ba  Ba16  1  0.16822996  0.62385676  0.83550614  1
  Sr  Sr17  1  0.16530136  0.37382232  0.16878843  1
  Sr  Sr18  1  0.00578058  0.12623518  1.00022027  1
  Sr  Sr19  1  0.33663142  0.12772293  0.33051426  1
  Sr  Sr20  1  0.17041178  0.12221960  0.83967256  1
  Sr  Sr21  1  0.83297092  0.87701636  0.50163978  1
  La  La22  1  0.83605124  0.37392800  0.83461570  1
  La  La23  1  0.49601713  0.87427358  0.16259815  1
  La  La24  1  0.66608648  0.37447049  0.33354392  1
  La  La25  1  0.16572508  0.37354842  0.83674207  1
  La  La26  1  0.33234663  0.62532545  0.32920924  1
  La  La27  1  0.16460250  0.62455246  0.16671033  1
  La  La28  1  -0.00145937  0.37529473  0.66736313  1
  La  La29  1  0.33135941  0.12575682  0.66491678  1
  Pr  Pr30  1  0.83135413  0.37214752  0.49667864  1
  Pr  Pr31  1  0.50423262  0.12265678  0.17082685  1
  Pr  Pr32  1  0.50131109  0.87203619  0.82858019  1
  Pr  Pr33  1  0.00030239  0.12519283  0.33111836  1
  Pr  Pr34  1  0.49941898  0.62763719  0.16632173  1
  Pr  Pr35  1  0.66657498  0.62486094  0.99744835  1
  Pr  Pr36  1  0.66895573  0.37372122  0.00145006  1
  Pr  Pr37  1  0.16640401  0.12866369  0.50087064  1
  Pr  Pr38  1  0.66538932  0.37244776  0.66395332  1
  Pr  Pr39  1  0.66982888  0.12316876  0.33301542  1
  Pr  Pr40  1  0.83687764  0.37652104  0.16539609  1
  Pr  Pr41  1  0.83891152  0.12250919  0.83597124  1
  Pr  Pr42  1  0.83763115  0.12078011  0.17022087  1
  Pr  Pr43  1  0.33423982  0.87830562  0.67089752  1
  Pr  Pr44  1  0.33792125  0.12854553  0.99746727  1
  Pr  Pr45  1  0.32623847  0.37622778  0.00501972  1
  Pr  Pr46  1  0.66357824  0.62384741  0.65775705  1
  Pr  Pr47  1  0.49855216  0.37674816  0.82950287  1
  Pr  Pr48  1  0.33118940  0.88212340  0.33408995  1
  Pr  Pr49  1  0.16288753  0.87378102  0.83263504  1
  Pr  Pr50  1  0.83954927  0.87313790  0.83132369  1
  Pr  Pr51  1  0.66668786  0.87535169  0.33497222  1
  Pr  Pr52  1  0.00490347  0.37577419  0.00601955  1
  Pr  Pr53  1  0.16677712  0.87252184  0.50019967  1
  Pr  Pr54  1  0.50120853  0.62502579  0.83348290  1
  Pr  Pr55  1  0.67325728  0.12493578  0.99505199  1
  Pr  Pr56  1  0.00104233  0.87830595  0.33896960  1
  Pr  Pr57  1  0.50603172  0.12526738  0.83329960  1
  Pr  Pr58  1  0.83066542  0.87105048  0.16499639  1
  Pr  Pr59  1  0.50066467  0.37403557  0.49400855  1
  Pr  Pr60  1  0.67322638  0.87697439  0.66911134  1
  Pr  Pr61  1  0.16053596  0.62071780  0.50526158  1
  Pr  Pr62  1  0.00210157  0.62871340  0.66416465  1
  Pr  Pr63  1  0.49540659  0.62295394  0.49991001  1
  Pr  Pr64  1  0.33264237  0.37330213  0.66500935  1
  Pr  Pr65  1  0.17030527  0.37745522  0.49425537  1
  Pr  Pr66  1  0.16258968  0.87377777  0.16492050  1
  Pr  Pr67  1  0.32828092  0.87498190  0.00022601  1
  Pr  Pr68  1  0.49972646  0.87580511  0.49914648  1
  Pr  Pr69  1  0.83296233  0.62864131  0.17302926  1
  Pr  Pr70  1  0.49863073  0.37544935  0.16207172  1
  Pr  Pr71  1  0.00171112  0.12410042  0.66692648  1
  Mn  Mn72  1  -0.00053695  -0.00019421  0.16930501  1
  Mn  Mn73  1  0.00152384  0.00068431  0.50091101  1
  Mn  Mn74  1  0.00209039  0.00266647  0.83541502  1
  Mn  Mn75  1  -0.00057739  0.49922973  0.16657037  1
  Mn  Mn76  1  -0.00165927  0.49947527  0.50377944  1
  Mn  Mn77  1  -0.00007906  0.49588916  0.83500939  1
  Mn  Mn78  1  0.33426087  -0.00026781  0.16613937  1
  Mn  Mn79  1  0.33086275  -0.00015153  0.50175923  1
  Mn  Mn80  1  0.33724241  0.00171004  0.83482210  1
  Mn  Mn81  1  0.33366212  0.50083046  0.16538628  1
  Mn  Mn82  1  0.33298685  0.50107250  0.49836725  1
  Mn  Mn83  1  0.33544133  0.49618399  0.83308145  1
  Mn  Mn84  1  0.66645214  0.00130207  0.16628659  1
  Mn  Mn85  1  0.66477678  -0.00294136  0.50032017  1
  Mn  Mn86  1  0.66731390  0.00058241  0.83343671  1
  Mn  Mn87  1  0.66643152  0.49784845  0.16459299  1
  Mn  Mn88  1  0.66396162  0.49904050  0.49905532  1
  Mn  Mn89  1  0.66627689  0.49791795  0.83137185  1
  Mn  Mn90  1  -0.00026906  0.24885217  0.16679918  1
  Mn  Mn91  1  0.00120581  0.24914269  0.50249687  1
  Mn  Mn92  1  0.00178553  0.24940139  0.83558582  1
  Mn  Mn93  1  -0.00086361  0.75066436  0.16866514  1
  Mn  Mn94  1  -0.00105769  0.75256808  0.50059291  1
  Mn  Mn95  1  0.00028703  0.74954553  0.83315699  1
  Mn  Mn96  1  0.33533779  0.25038346  0.16458824  1
  Mn  Mn97  1  0.33222391  0.24822954  0.50017704  1
  Mn  Mn98  1  0.33611481  0.25049019  0.83311190  1
  Mn  Mn99  1  0.33259627  0.75066346  0.16651813  1
  Mn  Mn100  1  0.33239927  0.75296441  0.49717234  1
  Mn  Mn101  1  0.33574004  0.75216004  0.83366837  1
  Mn  Mn102  1  0.66724876  0.24863096  0.16566456  1
  Mn  Mn103  1  0.66469609  0.25091012  0.49873045  1
  Mn  Mn104  1  0.66741271  0.25083811  0.83341188  1
  Mn  Mn105  1  0.66463301  0.75053899  0.16568700  1
  Mn  Mn106  1  0.66399237  0.75167826  0.50034283  1
  Mn  Mn107  1  0.66680698  0.74909007  0.83107280  1
  Mn  Mn108  1  0.16827471  0.24746885  0.00056626  1
  Mn  Mn109  1  0.16743698  0.24982215  0.33451804  1
  Mn  Mn110  1  0.16644319  0.24981189  0.66829894  1
  Mn  Mn111  1  0.16719141  0.75218419  0.00014270  1
  Mn  Mn112  1  0.16795708  0.75165602  0.33339625  1
  Mn  Mn113  1  0.16742436  0.75162675  0.66602448  1
  Mn  Mn114  1  0.50208860  0.24968143  -0.00118820  1
  Mn  Mn115  1  0.50180806  0.24891239  0.33017828  1
  Mn  Mn116  1  0.49781968  0.25208855  0.66568587  1
  Mn  Mn117  1  0.49997226  0.75098688  -0.00266582  1
  Mn  Mn118  1  0.49790937  0.75282181  0.33196092  1
  Mn  Mn119  1  0.49920821  0.74960442  0.66368753  1
  Mn  Mn120  1  0.83481156  0.24849853  0.00070363  1
  Mn  Mn121  1  0.83217880  0.24888512  0.33266290  1
  Mn  Mn122  1  0.83465310  0.25288979  0.66779934  1
  Mn  Mn123  1  0.83141458  0.75003252  0.00036380  1
  Mn  Mn124  1  0.83236616  0.75301921  0.33365784  1
  Mn  Mn125  1  0.83175386  0.74912835  0.66773684  1
  Mn  Mn126  1  0.16928194  0.00098367  0.00091957  1
  Mn  Mn127  1  0.16763609  0.00002789  0.33503482  1
  Mn  Mn128  1  0.16782485  0.00277464  0.66900353  1
  Mn  Mn129  1  0.16684090  0.49864476  0.00153524  1
  Mn  Mn130  1  0.16767677  0.50192689  0.33410803  1
  Mn  Mn131  1  0.16539141  0.49580615  0.66697535  1
  Mn  Mn132  1  0.49888648  0.00205369  -0.00039455  1
  Mn  Mn133  1  0.50048920  -0.00071669  0.33155378  1
  Mn  Mn134  1  0.49891773  -0.00087782  0.66656312  1
  Mn  Mn135  1  0.50347106  0.49771443  -0.00363195  1
  Mn  Mn136  1  0.49969090  0.50051411  0.33017595  1
  Mn  Mn137  1  0.49799227  0.49861783  0.66389446  1
  Mn  Mn138  1  0.83438656  0.00092640  0.00187979  1
  Mn  Mn139  1  0.83292023  -0.00005076  0.33395947  1
  Mn  Mn140  1  0.83361859  0.00043598  0.66869592  1
  Mn  Mn141  1  0.83195707  0.49744151  0.00120423  1
  Mn  Mn142  1  0.83138215  0.49870002  0.33239489  1
  Mn  Mn143  1  0.83209999  0.49804479  0.66730872  1
  O  O144  1  0.17623960  0.12402119  0.01178907  1
  O  O145  1  0.16151872  0.12234802  0.35624445  1
  O  O146  1  0.16978361  0.12732990  0.69215245  1
  O  O147  1  0.16830341  0.62645146  0.01881155  1
  O  O148  1  0.17437796  0.63158564  0.36063730  1
  O  O149  1  0.15930761  0.62267086  0.67812267  1
  O  O150  1  0.49504878  0.12641162  0.02816001  1
  O  O151  1  0.50159202  0.12414359  0.34368924  1
  O  O152  1  0.49282123  0.12683380  0.68928593  1
  O  O153  1  0.50773805  0.61954130  0.02276281  1
  O  O154  1  0.49271143  0.63160613  0.35672641  1
  O  O155  1  0.50514891  0.62318972  0.68992447  1
  O  O156  1  0.82679328  0.12649795  0.02707827  1
  O  O157  1  0.83102832  0.12493977  0.34782483  1
  O  O158  1  0.83564934  0.12939649  0.68974386  1
  O  O159  1  0.82509813  0.61908368  0.02649120  1
  O  O160  1  0.83177892  0.62608010  0.34022634  1
  O  O161  1  0.81834027  0.62128116  0.67676241  1
  O  O162  1  0.16713945  0.37509586  0.32193612  1
  O  O163  1  0.16745229  0.37094225  0.63770464  1
  O  O164  1  0.16730015  0.37022632  0.98472572  1
  O  O165  1  0.16674057  0.87493362  0.30764541  1
  O  O166  1  0.17493213  0.87921109  0.64441296  1
  O  O167  1  0.17438604  0.87919800  0.97944066  1
  O  O168  1  0.50752445  0.37147742  0.30675610  1
  O  O169  1  0.49504701  0.37749865  0.63795200  1
  O  O170  1  0.51106721  0.37309745  0.97120553  1
  O  O171  1  0.50124777  0.87526726  0.30533856  1
  O  O172  1  0.49406690  0.87208915  0.64338493  1
  O  O173  1  0.49499222  0.88136335  0.97250885  1
  O  O174  1  0.82598154  0.37080685  0.31021517  1
  O  O175  1  0.84364748  0.37579721  0.64144322  1
  O  O176  1  0.82800800  0.37050358  0.97713158  1
  O  O177  1  0.83000667  0.87920823  0.30881652  1
  O  O178  1  0.83002571  0.87448774  0.65505385  1
  O  O179  1  0.83135257  0.88074802  0.97651614  1
  O  O180  1  -0.00300629  0.37246510  0.17721284  1
  O  O181  1  0.00085429  0.37383602  0.52324074  1
  O  O182  1  -0.00277763  0.36978303  0.85966506  1
  O  O183  1  0.00200758  0.87592632  0.19224025  1
  O  O184  1  0.00477795  0.87818954  0.51273147  1
  O  O185  1  -0.00367823  0.87986558  0.84147305  1
  O  O186  1  0.34188972  0.37600110  0.17514930  1
  O  O187  1  0.32946970  0.37151872  0.52061211  1
  O  O188  1  0.34407510  0.37046020  0.85982708  1
  O  O189  1  0.33677225  0.87251072  0.19103520  1
  O  O190  1  0.33118309  0.87599308  0.52716730  1
  O  O191  1  0.34517235  0.87985970  0.85685256  1
  O  O192  1  0.66355376  0.37112775  0.19120866  1
  O  O193  1  0.65621555  0.37701088  0.51772022  1
  O  O194  1  0.66082041  0.37191283  0.85903242  1
  O  O195  1  0.66623408  0.87941106  0.18976567  1
  O  O196  1  0.65606941  0.87291063  0.52291232  1
  O  O197  1  0.66057471  0.87498229  0.84489846  1
  O  O198  1  -0.00895778  0.12419393  0.14997420  1
  O  O199  1  0.00599451  0.12382746  0.47531363  1
  O  O200  1  -0.00120897  0.12780037  0.81083816  1
  O  O201  1  -0.00621585  0.62573791  0.15715120  1
  O  O202  1  0.00779225  0.62559579  0.49219090  1
  O  O203  1  0.00265333  0.61840665  0.81142751  1
  O  O204  1  0.34260307  0.12567120  0.14190582  1
  O  O205  1  0.32653859  0.12250048  0.48099767  1
  O  O206  1  0.33666172  0.12689068  0.80717887  1
  O  O207  1  0.33638963  0.62711732  0.15200513  1
  O  O208  1  0.33781915  0.63264027  0.47317301  1
  O  O209  1  0.34054437  0.62371172  0.82195891  1
  O  O210  1  0.66143430  0.12641492  0.13763899  1
  O  O211  1  0.66560472  0.12379214  0.47895707  1
  O  O212  1  0.66655593  0.12720331  0.81793771  1
  O  O213  1  0.66698425  0.62072071  0.14151676  1
  O  O214  1  0.66227313  0.62489716  0.48985994  1
  O  O215  1  0.66134113  0.62382271  0.80200968  1
  O  O216  1  0.07637252  0.01315280  0.26013585  1
  O  O217  1  0.08479991  0.02422423  0.58438463  1
  O  O218  1  0.08896099  0.01045720  0.91544779  1
  O  O219  1  0.08923650  0.51559874  0.24785229  1
  O  O220  1  0.07846920  0.51404906  0.59077234  1
  O  O221  1  0.08269326  0.49910804  0.91760151  1
  O  O222  1  0.42470290  0.01278659  0.24075871  1
  O  O223  1  0.40706182  0.01208858  0.59212109  1
  O  O224  1  0.42352619  0.03079296  0.91260463  1
  O  O225  1  0.41641395  0.52044363  0.24856720  1
  O  O226  1  0.41680982  0.51652091  0.57958695  1
  O  O227  1  0.42904317  0.51049074  0.90768777  1
  O  O228  1  0.75077131  0.02256607  0.24691161  1
  O  O229  1  0.74856285  0.00137612  0.58474476  1
  O  O230  1  0.75423231  0.02261612  0.91572747  1
  O  O231  1  0.74763301  0.51098807  0.24417505  1
  O  O232  1  0.73838721  0.50168225  0.58951770  1
  O  O233  1  0.74243620  0.51075678  0.92758590  1
  O  O234  1  0.25494938  0.23871752  0.25283514  1
  O  O235  1  0.24766343  0.22873798  0.58577237  1
  O  O236  1  0.26065634  0.23782115  0.92029084  1
  O  O237  1  0.25099944  0.73037314  0.25027742  1
  O  O238  1  0.24283163  0.73615447  0.57226459  1
  O  O239  1  0.25606954  0.75065193  0.91693478  1
  O  O240  1  0.58981681  0.22527565  0.25046796  1
  O  O241  1  0.57989515  0.24629257  0.58320450  1
  O  O242  1  0.58657644  0.22451632  0.92277382  1
  O  O243  1  0.57673851  0.73497628  0.24380455  1
  O  O244  1  0.57744040  0.72764177  0.58017684  1
  O  O245  1  0.58447759  0.72719460  0.91124847  1
  O  O246  1  0.91501908  0.23023596  0.25049413  1
  O  O247  1  0.92599111  0.23434980  0.59423935  1
  O  O248  1  0.91558038  0.22831807  0.91847403  1
  O  O249  1  0.91132812  0.74368825  0.24681794  1
  O  O250  1  0.91645747  0.73565256  0.58933673  1
  O  O251  1  0.91255492  0.74511784  0.91470532  1
  O  O252  1  0.08258093  0.48552570  0.08370945  1
  O  O253  1  0.08998453  0.49015035  0.42755607  1
  O  O254  1  0.08485898  0.47119365  0.75197705  1
  O  O255  1  0.08556649  0.98580052  0.09247631  1
  O  O256  1  0.08706294  0.97826505  0.41855243  1
  O  O257  1  0.08984785  0.98790885  0.75362665  1
  O  O258  1  0.42192403  0.47881032  0.07704687  1
  O  O259  1  0.42387948  0.48632573  0.42131741  1
  O  O260  1  0.41594134  0.47590308  0.74524567  1
  O  O261  1  0.41061212  0.97903606  0.07483582  1
  O  O262  1  0.41505429  0.97818579  0.41654748  1
  O  O263  1  0.41927937  0.97785349  0.75202038  1
  O  O264  1  0.75149965  0.47163881  0.08642991  1
  O  O265  1  0.74870880  0.47714285  0.41957427  1
  O  O266  1  0.74989604  0.47157723  0.75233633  1
  O  O267  1  0.74983960  0.98668611  0.08707903  1
  O  O268  1  0.74399977  0.98225992  0.40980871  1
  O  O269  1  0.75017233  0.98146479  0.75170008  1
  O  O270  1  0.25312366  0.26552336  0.08221412  1
  O  O271  1  0.24586227  0.26113065  0.42472848  1
  O  O272  1  0.25099228  0.27496576  0.74955978  1
  O  O273  1  0.24815751  0.77242478  0.08802061  1
  O  O274  1  0.25245114  0.78020299  0.41263302  1
  O  O275  1  0.25332101  0.77377244  0.75005322  1
  O  O276  1  0.58094935  0.27238534  0.08622849  1
  O  O277  1  0.58366916  0.26948432  0.41257614  1
  O  O278  1  0.57869655  0.27131663  0.74955000  1
  O  O279  1  0.57578137  0.76264828  0.08551439  1
  O  O280  1  0.58009159  0.77388366  0.41386838  1
  O  O281  1  0.58383874  0.77036240  0.74366419  1
  O  O282  1  0.91333726  0.27097080  0.08296043  1
  O  O283  1  0.91103212  0.26526216  0.42438714  1
  O  O284  1  0.91412893  0.26998755  0.75506727  1
  O  O285  1  0.91019960  0.76386299  0.08922877  1
  O  O286  1  0.91773878  0.77026123  0.41359960  1
  O  O287  1  0.91446989  0.75607673  0.75152409  1
  O  O288  1  0.25113961  0.48454088  0.08449489  1
  O  O289  1  0.25037971  0.49038303  0.41795296  1
  O  O290  1  0.25041322  0.47474793  0.74719234  1
  O  O291  1  0.24887771  0.97659152  0.08908269  1
  O  O292  1  0.24757642  0.97543543  0.42088059  1
  O  O293  1  0.25420130  0.97882080  0.75370124  1
  O  O294  1  0.58819722  0.47482686  0.07725594  1
  O  O295  1  0.58407149  0.48164146  0.41201840  1
  O  O296  1  0.58135999  0.47381346  0.74356325  1
  O  O297  1  0.57158929  0.98594995  0.09272228  1
  O  O298  1  0.58155761  0.97630209  0.41468052  1
  O  O299  1  0.58021000  0.98281932  0.75058006  1
  O  O300  1  0.91595864  0.47627823  0.07927006  1
  O  O301  1  0.91252673  0.48466950  0.42602285  1
  O  O302  1  0.91791047  0.47735178  0.75262423  1
  O  O303  1  0.90860961  0.98412146  0.09475078  1
  O  O304  1  0.91981250  0.98428449  0.41421027  1
  O  O305  1  0.90880567  0.99364199  0.76013697  1
  O  O306  1  0.07972384  0.26184906  0.08013427  1
  O  O307  1  0.08819304  0.26327381  0.42723818  1
  O  O308  1  0.08228972  0.27298761  0.74748278  1
  O  O309  1  0.08703333  0.76292405  0.09053405  1
  O  O310  1  0.08642795  0.77288946  0.41520704  1
  O  O311  1  0.08892326  0.76472639  0.75319809  1
  O  O312  1  0.41632916  0.27337344  0.07208381  1
  O  O313  1  0.42159149  0.26472245  0.42035111  1
  O  O314  1  0.41621399  0.27554108  0.74869353  1
  O  O315  1  0.41267288  0.77065436  0.08106910  1
  O  O316  1  0.41534455  0.77989602  0.41353037  1
  O  O317  1  0.41741604  0.77070104  0.74694407  1
  O  O318  1  0.74756234  0.27141417  0.08222535  1
  O  O319  1  0.74630669  0.26986166  0.41320371  1
  O  O320  1  0.74997217  0.27643054  0.74644094  1
  O  O321  1  0.75115542  0.76462038  0.08819158  1
  O  O322  1  0.74678267  0.77174195  0.41529052  1
  O  O323  1  0.75211960  0.77254088  0.75521504  1
  O  O324  1  0.25771304  0.01000378  0.25849061  1
  O  O325  1  0.24677781  0.02289624  0.58467701  1
  O  O326  1  0.26452553  0.01494832  0.92288957  1
  O  O327  1  0.24940379  0.52165343  0.25086551  1
  O  O328  1  0.24178477  0.51166715  0.57624174  1
  O  O329  1  0.25242916  0.49674702  0.91715802  1
  O  O330  1  0.59151621  0.02150215  0.25331034  1
  O  O331  1  0.57751995  0.00470455  0.58317669  1
  O  O332  1  0.58604014  0.02400446  0.92116256  1
  O  O333  1  0.57480309  0.51543029  0.23655843  1
  O  O334  1  0.57711873  0.51920291  0.57930065  1
  O  O335  1  0.58470229  0.52468502  0.91217830  1
  O  O336  1  0.91744282  0.01993159  0.25420803  1
  O  O337  1  0.92237721  0.01664530  0.59194335  1
  O  O338  1  0.91783687  0.02255742  0.92039429  1
  O  O339  1  0.90884631  0.50772696  0.24144275  1
  O  O340  1  0.92088471  0.51715151  0.59322569  1
  O  O341  1  0.91258683  0.50232717  0.91697987  1
  O  O342  1  0.07853537  0.23390693  0.25731080  1
  O  O343  1  0.08451011  0.22434176  0.58755153  1
  O  O344  1  0.08970732  0.23870348  0.91337878  1
  O  O345  1  0.09054419  0.73566011  0.24739712  1
  O  O346  1  0.08305708  0.73589135  0.58392935  1
  O  O347  1  0.08629770  0.74881150  0.91488829  1
  O  O348  1  0.42680850  0.23650925  0.23853867  1
  O  O349  1  0.40715969  0.23741955  0.59103058  1
  O  O350  1  0.42519676  0.22575489  0.91123913  1
  O  O351  1  0.41696568  0.73130055  0.24788083  1
  O  O352  1  0.42005545  0.73484914  0.57458419  1
  O  O353  1  0.42716533  0.73697529  0.90725024  1
  O  O354  1  0.74950913  0.22514043  0.24554977  1
  O  O355  1  0.75190501  0.25302185  0.58099376  1
  O  O356  1  0.75471837  0.22932767  0.91689189  1
  O  O357  1  0.75124677  0.74082546  0.24624944  1
  O  O358  1  0.73865654  0.74355252  0.59403736  1
  O  O359  1  0.74353355  0.73230511  0.92223009  1
