# generated using pymatgen
data_Ba17Sr5La8Pr42Mn72O216
_symmetry_space_group_name_H-M   'P 1'
_cell_length_a   16.67442712
_cell_length_b   15.70844365
_cell_length_c   16.81145058
_cell_angle_alpha   89.99934648
_cell_angle_beta   89.99867935
_cell_angle_gamma   90.03389577
_symmetry_Int_Tables_number   1
_chemical_formula_structural   Ba17Sr5La8Pr42Mn72O216
_chemical_formula_sum   'Ba17 Sr5 La8 Pr42 Mn72 O216'
_cell_volume   4403.41069168
_cell_formula_units_Z   1
loop_
 _symmetry_equiv_pos_site_id
 _symmetry_equiv_pos_as_xyz
  1  'x, y, z'
loop_
 _atom_site_type_symbol
 _atom_site_label
 _atom_site_symmetry_multiplicity
 _atom_site_fract_x
 _atom_site_fract_y
 _atom_site_fract_z
 _atom_site_occupancy
  Ba  Ba0  1  0.33689454  0.12504468  0.33025194  1
  Ba  Ba1  1  -0.00182363  0.37498530  0.33498672  1
  Ba  Ba2  1  0.82967821  0.87568295  0.83313754  1
  Ba  Ba3  1  0.83333566  0.37537263  0.83329675  1
  Ba  Ba4  1  0.16629521  0.87212072  0.82905824  1
  Ba  Ba5  1  0.33427989  0.62270281  0.99547738  1
  Ba  Ba6  1  0.50152239  0.62661786  0.50375970  1
  Ba  Ba7  1  0.50163564  0.12304654  0.50386371  1
  Ba  Ba8  1  0.66484892  0.37681533  0.67073450  1
  Ba  Ba9  1  0.16535504  0.87379857  0.16198956  1
  Ba  Ba10  1  0.33354745  0.12457578  0.66396924  1
  Ba  Ba11  1  -0.00092587  0.12424969  0.66833420  1
  Ba  Ba12  1  0.16342312  0.37597067  0.49669376  1
  Ba  Ba13  1  0.16889769  0.12329696  0.16217805  1
  Ba  Ba14  1  0.00065885  0.12607318  0.99767636  1
  Ba  Ba15  1  0.66328163  0.87481524  0.00348905  1
  Ba  Ba16  1  0.33535803  0.12562232  0.99601613  1
  Sr  Sr17  1  0.83849725  0.62559063  0.16935240  1
  Sr  Sr18  1  0.83026879  0.37769269  0.16449159  1
  Sr  Sr19  1  -0.00227448  0.87500938  0.67072154  1
  Sr  Sr20  1  0.00012078  0.37493050  0.66611665  1
  Sr  Sr21  1  0.83822109  0.12715217  0.83304540  1
  La  La22  1  0.00195291  0.62333245  0.33021952  1
  La  La23  1  0.66515243  0.37612356  0.34041119  1
  La  La24  1  0.32942310  0.62591392  0.66256104  1
  La  La25  1  0.65926694  0.87418286  0.67551632  1
  La  La26  1  0.50564120  0.12422869  0.17300691  1
  La  La27  1  0.16666910  0.12822605  0.49938763  1
  La  La28  1  0.82993945  0.87752632  0.50229809  1
  La  La29  1  0.33611490  0.62166209  0.32544309  1
  Pr  Pr30  1  0.49582632  0.37575586  0.83512776  1
  Pr  Pr31  1  0.83128310  0.37268140  0.49992491  1
  Pr  Pr32  1  0.32873365  0.37192735  0.33332446  1
  Pr  Pr33  1  0.32815158  0.87450497  0.00077783  1
  Pr  Pr34  1  0.00721006  0.12593001  0.32984293  1
  Pr  Pr35  1  -0.00088494  0.62683422  0.99949865  1
  Pr  Pr36  1  0.67549890  0.12599373  1.00206729  1
  Pr  Pr37  1  0.32657081  0.87703170  0.33169738  1
  Pr  Pr38  1  0.67640337  0.62377492  0.66821695  1
  Pr  Pr39  1  0.84237042  0.12426104  0.16737634  1
  Pr  Pr40  1  0.16099442  0.62277996  0.49798143  1
  Pr  Pr41  1  0.67620760  0.12447927  0.33416234  1
  Pr  Pr42  1  0.83688265  0.62410012  0.83502726  1
  Pr  Pr43  1  0.67398518  0.12623322  0.66891441  1
  Pr  Pr44  1  -0.00346125  0.62799410  0.66663550  1
  Pr  Pr45  1  0.16579123  0.62594444  0.16561488  1
  Pr  Pr46  1  0.16871281  0.37258929  0.82667027  1
  Pr  Pr47  1  0.67386238  0.62455276  1.00535677  1
  Pr  Pr48  1  0.49132582  0.37379701  0.49911224  1
  Pr  Pr49  1  -0.00734610  0.87754694  0.00084377  1
  Pr  Pr50  1  -0.00163139  0.87456816  0.33351942  1
  Pr  Pr51  1  0.16339734  0.12274706  0.83641079  1
  Pr  Pr52  1  0.49084272  0.87409373  0.83640858  1
  Pr  Pr53  1  0.83590577  0.62399933  0.50060660  1
  Pr  Pr54  1  0.16005475  0.62359535  0.83142552  1
  Pr  Pr55  1  0.32899790  0.87510149  0.66400652  1
  Pr  Pr56  1  0.50568775  0.12720964  0.83792702  1
  Pr  Pr57  1  0.67939283  0.62543552  0.33301349  1
  Pr  Pr58  1  0.83685153  0.12693489  0.50424843  1
  Pr  Pr59  1  -0.00326168  0.37309125  0.00368257  1
  Pr  Pr60  1  0.82875241  0.87373537  0.15965517  1
  Pr  Pr61  1  0.16637942  0.37278469  0.16216255  1
  Pr  Pr62  1  0.16259220  0.87848999  0.49658185  1
  Pr  Pr63  1  0.50606089  0.62261855  0.83742158  1
  Pr  Pr64  1  0.49251617  0.37591528  0.16784545  1
  Pr  Pr65  1  0.32827996  0.37406851  -0.00242251  1
  Pr  Pr66  1  0.33475133  0.37492647  0.66226468  1
  Pr  Pr67  1  0.49018668  0.87446599  0.16455051  1
  Pr  Pr68  1  0.50759305  0.62627245  0.17520123  1
  Pr  Pr69  1  0.65964154  0.87302317  0.33784935  1
  Pr  Pr70  1  0.48839491  0.87501590  0.50218461  1
  Pr  Pr71  1  0.66374445  0.37572357  0.00716094  1
  Mn  Mn72  1  -0.00149342  -0.00110046  0.16757113  1
  Mn  Mn73  1  -0.00169083  -0.00292169  0.49840097  1
  Mn  Mn74  1  -0.00074826  -0.00137179  0.83265436  1
  Mn  Mn75  1  0.00105987  0.49917802  0.16505772  1
  Mn  Mn76  1  -0.00348558  0.50199356  0.50025473  1
  Mn  Mn77  1  0.00155642  0.50005250  0.83346643  1
  Mn  Mn78  1  0.33575844  -0.00023337  0.16424342  1
  Mn  Mn79  1  0.33043824  -0.00149261  0.49855800  1
  Mn  Mn80  1  0.33444687  -0.00024484  0.83008975  1
  Mn  Mn81  1  0.33525732  0.50021256  0.16271197  1
  Mn  Mn82  1  0.33172246  0.50282517  0.49562145  1
  Mn  Mn83  1  0.33446750  0.50060976  0.82829854  1
  Mn  Mn84  1  0.66767294  0.00049448  0.17090188  1
  Mn  Mn85  1  0.66622918  -0.00278200  0.50419553  1
  Mn  Mn86  1  0.66366343  0.00125005  0.83616350  1
  Mn  Mn87  1  0.66753784  0.49945108  0.17141370  1
  Mn  Mn88  1  0.66687034  0.50160451  0.50206043  1
  Mn  Mn89  1  0.66610506  0.50184942  0.83817964  1
  Mn  Mn90  1  -0.00034007  0.25125141  0.16716949  1
  Mn  Mn91  1  -0.00230985  0.24934417  0.49919590  1
  Mn  Mn92  1  0.00124490  0.25291189  0.83301452  1
  Mn  Mn93  1  -0.00086912  0.74949408  0.16603280  1
  Mn  Mn94  1  -0.00172822  0.75184934  0.49960626  1
  Mn  Mn95  1  -0.00108590  0.74908192  0.83226289  1
  Mn  Mn96  1  0.33560086  0.25182035  0.16440978  1
  Mn  Mn97  1  0.33234630  0.25050627  0.49808152  1
  Mn  Mn98  1  0.33544559  0.25125819  0.82993689  1
  Mn  Mn99  1  0.33561198  0.74689489  0.16354115  1
  Mn  Mn100  1  0.32962372  0.74928346  0.49585963  1
  Mn  Mn101  1  0.33430696  0.74773655  0.82985845  1
  Mn  Mn102  1  0.66792313  0.25110267  0.17092288  1
  Mn  Mn103  1  0.66601133  0.24987319  0.50171083  1
  Mn  Mn104  1  0.66649642  0.24987195  0.83763870  1
  Mn  Mn105  1  0.66746480  0.74935023  0.17150679  1
  Mn  Mn106  1  0.66708216  0.75116759  0.50434124  1
  Mn  Mn107  1  0.66360286  0.74819634  0.83652437  1
  Mn  Mn108  1  0.16685126  0.25258315  -0.00551758  1
  Mn  Mn109  1  0.16721628  0.24983116  0.32990789  1
  Mn  Mn110  1  0.16595019  0.25126808  0.66509536  1
  Mn  Mn111  1  0.16532795  0.74755132  -0.00284952  1
  Mn  Mn112  1  0.16693635  0.74956004  0.33160689  1
  Mn  Mn113  1  0.16484476  0.74757260  0.66186911  1
  Mn  Mn114  1  0.50239934  0.25172839  0.00355374  1
  Mn  Mn115  1  0.50437902  0.25113898  0.33468170  1
  Mn  Mn116  1  0.50108655  0.25141946  0.66928626  1
  Mn  Mn117  1  0.50053336  0.74720380  0.00279366  1
  Mn  Mn118  1  0.50051436  0.75088243  0.33594671  1
  Mn  Mn119  1  0.49844929  0.74876816  0.67077324  1
  Mn  Mn120  1  0.83238749  0.25256013  0.00137421  1
  Mn  Mn121  1  0.83235484  0.24857569  0.33315022  1
  Mn  Mn122  1  0.83379750  0.25054075  0.66765461  1
  Mn  Mn123  1  0.83273347  0.74729337  0.00162215  1
  Mn  Mn124  1  0.83477324  0.75385701  0.33337105  1
  Mn  Mn125  1  0.83179541  0.75035527  0.66690587  1
  Mn  Mn126  1  0.16645966  -0.00155699  -0.00422012  1
  Mn  Mn127  1  0.16570392  -0.00268399  0.33133766  1
  Mn  Mn128  1  0.16465512  0.00030922  0.66394049  1
  Mn  Mn129  1  0.16481463  0.50042871  -0.00377644  1
  Mn  Mn130  1  0.16812877  0.50295099  0.32918055  1
  Mn  Mn131  1  0.16598342  0.50062746  0.66454778  1
  Mn  Mn132  1  0.50071765  0.00075592  0.00239451  1
  Mn  Mn133  1  0.50314802  -0.00237091  0.33451841  1
  Mn  Mn134  1  0.50016462  -0.00141915  0.67097698  1
  Mn  Mn135  1  0.50206817  0.49985412  0.00342438  1
  Mn  Mn136  1  0.50198903  0.50053081  0.33581757  1
  Mn  Mn137  1  0.49876707  0.50157603  0.66913648  1
  Mn  Mn138  1  0.83208686  0.00075214  -0.00015128  1
  Mn  Mn139  1  0.83371760  -0.00231454  0.33275466  1
  Mn  Mn140  1  0.83100121  -0.00008408  0.66684850  1
  Mn  Mn141  1  0.83304396  0.50093551  0.00124882  1
  Mn  Mn142  1  0.83339527  0.49949262  0.33295463  1
  Mn  Mn143  1  0.83577594  0.50061079  0.66717790  1
  O  O144  1  0.16735609  0.12674444  0.00303444  1
  O  O145  1  0.16154620  0.11805492  0.35153383  1
  O  O146  1  0.16768946  0.12965902  0.68916648  1
  O  O147  1  0.15991248  0.62218458  0.02338693  1
  O  O148  1  0.17064554  0.62806623  0.35324215  1
  O  O149  1  0.16962842  0.62328858  0.68743706  1
  O  O150  1  0.50164847  0.13035424  0.02930321  1
  O  O151  1  0.50644534  0.12194408  0.34538434  1
  O  O152  1  0.50007291  0.12419065  0.69266970  1
  O  O153  1  0.50221702  0.62182776  0.03143109  1
  O  O154  1  0.48947878  0.62580648  0.34767201  1
  O  O155  1  0.48599697  0.62549556  0.69257068  1
  O  O156  1  0.82897576  0.12833799  0.02233472  1
  O  O157  1  0.82800410  0.11961108  0.36187684  1
  O  O158  1  0.82644297  0.12377488  0.67987084  1
  O  O159  1  0.83557906  0.62422280  0.02124058  1
  O  O160  1  0.83334106  0.63134498  0.35756874  1
  O  O161  1  0.83476267  0.62563441  0.68862550  1
  O  O162  1  0.17193602  0.38185930  0.30876340  1
  O  O163  1  0.16776103  0.37832239  0.65223587  1
  O  O164  1  0.16647199  0.37981282  0.97147184  1
  O  O165  1  0.16346854  0.87143139  0.31785451  1
  O  O166  1  0.16816499  0.86886287  0.64047455  1
  O  O167  1  0.17377766  0.87029149  0.98684497  1
  O  O168  1  0.51090784  0.37857738  0.31204088  1
  O  O169  1  0.49984523  0.38022755  0.64284804  1
  O  O170  1  0.51425286  0.37645881  0.97854700  1
  O  O171  1  0.50914569  0.87325786  0.30909290  1
  O  O172  1  0.51013220  0.87120887  0.64722412  1
  O  O173  1  0.49975758  0.87107402  0.98027607  1
  O  O174  1  0.82581970  0.37073141  0.31516831  1
  O  O175  1  0.83500989  0.37912392  0.64496036  1
  O  O176  1  0.82737398  0.37795527  0.99106927  1
  O  O177  1  0.83901400  0.87615016  0.30198968  1
  O  O178  1  0.82469144  0.87299878  0.64870968  1
  O  O179  1  0.83641387  0.87074566  0.99266293  1
  O  O180  1  0.00549296  0.37735984  0.17856347  1
  O  O181  1  -0.00668089  0.37961470  0.51468332  1
  O  O182  1  0.01019472  0.38093499  0.85809597  1
  O  O183  1  -0.00907715  0.87494705  0.18921036  1
  O  O184  1  0.00845788  0.87252934  0.52226219  1
  O  O185  1  -0.00079953  0.86889554  0.85482945  1
  O  O186  1  0.33252760  0.37862844  0.18868539  1
  O  O187  1  0.33492221  0.37940754  0.51587430  1
  O  O188  1  0.33170751  0.37813112  0.85457601  1
  O  O189  1  0.33896346  0.87035352  0.18603967  1
  O  O190  1  0.32720430  0.87168059  0.51933168  1
  O  O191  1  0.33772516  0.87080904  0.85816020  1
  O  O192  1  0.67046369  0.37522969  0.19542848  1
  O  O193  1  0.67793807  0.37680978  0.51294281  1
  O  O194  1  0.66232904  0.37771079  0.86178984  1
  O  O195  1  0.67758230  0.87426522  0.19254547  1
  O  O196  1  0.67643932  0.87275567  0.53162683  1
  O  O197  1  0.65978057  0.87323490  0.84629091  1
  O  O198  1  -0.00477093  0.12373363  0.15600898  1
  O  O199  1  -0.01048322  0.11786997  0.47442148  1
  O  O200  1  0.00612867  0.12686951  0.82662960  1
  O  O201  1  0.00501617  0.62301690  0.14325307  1
  O  O202  1  -0.00907552  0.62984037  0.47391004  1
  O  O203  1  -0.00163346  0.62411964  0.81118672  1
  O  O204  1  0.34542493  0.12856812  0.15523004  1
  O  O205  1  0.32859334  0.12147633  0.48772541  1
  O  O206  1  0.34144571  0.12849344  0.81981206  1
  O  O207  1  0.34690677  0.62241974  0.15172306  1
  O  O208  1  0.33028153  0.62787508  0.46937540  1
  O  O209  1  0.34415134  0.62302331  0.80629258  1
  O  O210  1  0.65710038  0.12746555  0.14740760  1
  O  O211  1  0.66888652  0.12206573  0.47685979  1
  O  O212  1  0.65574999  0.12453199  0.81344976  1
  O  O213  1  0.65818850  0.62389567  0.14952055  1
  O  O214  1  0.67050181  0.62805779  0.47573153  1
  O  O215  1  0.65776507  0.62540222  0.81257504  1
  O  O216  1  0.07903497  0.00977465  0.25357596  1
  O  O217  1  0.08726264  0.01654389  0.57149619  1
  O  O218  1  0.08828007  0.00744926  0.90985089  1
  O  O219  1  0.08723856  0.52342232  0.24603128  1
  O  O220  1  0.07832341  0.52474684  0.58547003  1
  O  O221  1  0.07803272  0.52691692  0.92064648  1
  O  O222  1  0.43074110  0.00660538  0.23849866  1
  O  O223  1  0.41980474  -0.00403546  0.58067092  1
  O  O224  1  0.42712533  0.01089614  0.90547037  1
  O  O225  1  0.42421110  0.51085827  0.24671877  1
  O  O226  1  0.40736974  0.51385042  0.58514265  1
  O  O227  1  0.42712025  0.50982490  0.90995698  1
  O  O228  1  0.75770443  0.02477005  0.24512845  1
  O  O229  1  0.75333132  0.02107043  0.57658617  1
  O  O230  1  0.74928357  0.01938812  0.91484335  1
  O  O231  1  0.75301206  0.52142814  0.24933683  1
  O  O232  1  0.75420246  0.52243500  0.57903514  1
  O  O233  1  0.75141344  0.52590728  0.91617125  1
  O  O234  1  0.25341579  0.24677182  0.24633748  1
  O  O235  1  0.24595859  0.23926193  0.57806437  1
  O  O236  1  0.25147735  0.24309041  0.90942446  1
  O  O237  1  0.25676284  0.72847212  0.24815780  1
  O  O238  1  0.24547373  0.72478580  0.57450374  1
  O  O239  1  0.24713473  0.72865580  0.90401303  1
  O  O240  1  0.59784287  0.23389275  0.26465244  1
  O  O241  1  0.59059677  0.23390570  0.59647092  1
  O  O242  1  0.59126868  0.22896968  0.93099131  1
  O  O243  1  0.59380266  0.73063488  0.26533249  1
  O  O244  1  0.59155231  0.73170458  0.60307390  1
  O  O245  1  0.58908965  0.72367749  0.92974012  1
  O  O246  1  0.91865525  0.22722012  0.25922638  1
  O  O247  1  0.91325139  0.23888718  0.57949746  1
  O  O248  1  0.92180854  0.25172956  0.92178284  1
  O  O249  1  0.92503244  0.73236070  0.25860120  1
  O  O250  1  0.91723433  0.73190854  0.58303212  1
  O  O251  1  0.91883668  0.72825518  0.92065548  1
  O  O252  1  0.08664816  0.47783281  0.08243242  1
  O  O253  1  0.08128767  0.50205027  0.41672315  1
  O  O254  1  0.09335106  0.48946118  0.76076334  1
  O  O255  1  0.07309346  0.98248282  0.07643095  1
  O  O256  1  0.07881518  0.97842874  0.41375376  1
  O  O257  1  0.08134335  0.98913706  0.74433637  1
  O  O258  1  0.41443523  0.47181024  0.07697617  1
  O  O259  1  0.41688794  0.47693052  0.41247733  1
  O  O260  1  0.41535195  0.47236461  0.74761743  1
  O  O261  1  0.41288322  0.97631217  0.07560071  1
  O  O262  1  0.41211991  0.97505569  0.41060581  1
  O  O263  1  0.41229185  0.97208021  0.74472818  1
  O  O264  1  0.73984758  0.48818115  0.08040611  1
  O  O265  1  0.74476713  0.48830399  0.41129919  1
  O  O266  1  0.74940884  0.49992554  0.75097883  1
  O  O267  1  0.74698531  0.99294997  0.08598619  1
  O  O268  1  0.74679087  0.97357903  0.40869374  1
  O  O269  1  0.73397969  0.99108484  0.74165229  1
  O  O270  1  0.24718953  0.27449279  0.07780218  1
  O  O271  1  0.25170396  0.26291580  0.40953743  1
  O  O272  1  0.25197233  0.27261655  0.74617166  1
  O  O273  1  0.25071374  0.75527701  0.07987197  1
  O  O274  1  0.24751122  0.77350362  0.41435181  1
  O  O275  1  0.25578709  0.75926484  0.73501228  1
  O  O276  1  0.57765338  0.27412772  0.09753702  1
  O  O277  1  0.57705436  0.27222709  0.42800614  1
  O  O278  1  0.57322391  0.26481412  0.76746431  1
  O  O279  1  0.57335894  0.76306734  0.10252610  1
  O  O280  1  0.57903534  0.77475816  0.42951288  1
  O  O281  1  0.57040348  0.76160633  0.76643155  1
  O  O282  1  0.91191705  0.26583649  0.08809050  1
  O  O283  1  0.90328415  0.26257224  0.42431781  1
  O  O284  1  0.91893262  0.26049781  0.75097851  1
  O  O285  1  0.91221658  0.76671221  0.08835298  1
  O  O286  1  0.91315434  0.77795555  0.41996267  1
  O  O287  1  0.91321223  0.75669747  0.75016630  1
  O  O288  1  0.24909131  0.47855880  0.07669251  1
  O  O289  1  0.25833417  0.48827660  0.40224242  1
  O  O290  1  0.25755067  0.48492669  0.73735137  1
  O  O291  1  0.25348019  0.98796843  0.07654743  1
  O  O292  1  0.24581697  0.97758222  0.41548715  1
  O  O293  1  0.25383301  0.98428646  0.74156842  1
  O  O294  1  0.57851801  0.47821157  0.09593597  1
  O  O295  1  0.57896017  0.48096022  0.42634760  1
  O  O296  1  0.57414412  0.48904159  0.76728684  1
  O  O297  1  0.57386584  0.98522059  0.10304448  1
  O  O298  1  0.57895363  0.97144924  0.43047152  1
  O  O299  1  0.57003061  0.98371625  0.76615798  1
  O  O300  1  0.92168926  0.48494170  0.07891865  1
  O  O301  1  0.90490931  0.48750490  0.42567752  1
  O  O302  1  0.92558360  0.49101784  0.74564994  1
  O  O303  1  0.90976541  0.98336343  0.09160960  1
  O  O304  1  0.91470424  0.97090363  0.41544828  1
  O  O305  1  0.91271835  0.99082387  0.74907232  1
  O  O306  1  0.08319781  0.27207803  0.07576285  1
  O  O307  1  0.07954339  0.24923117  0.41363751  1
  O  O308  1  0.08599295  0.26982601  0.74971648  1
  O  O309  1  0.07107056  0.76318101  0.07339702  1
  O  O310  1  0.07847209  0.76560111  0.41440645  1
  O  O311  1  0.07981841  0.75358705  0.74288673  1
  O  O312  1  0.41341069  0.27885862  0.07620558  1
  O  O313  1  0.41519115  0.27228871  0.40949642  1
  O  O314  1  0.41431690  0.27682361  0.74558121  1
  O  O315  1  0.41179368  0.77237564  0.07644139  1
  O  O316  1  0.41209604  0.77576723  0.41141299  1
  O  O317  1  0.41238116  0.77781326  0.74539383  1
  O  O318  1  0.73853691  0.26490144  0.07913275  1
  O  O319  1  0.74147665  0.26302936  0.40777020  1
  O  O320  1  0.74462548  0.25388127  0.74828056  1
  O  O321  1  0.74709033  0.75705651  0.08597201  1
  O  O322  1  0.74830447  0.77343686  0.41058704  1
  O  O323  1  0.73661456  0.75683326  0.74203254  1
  O  O324  1  0.25659201  0.00188249  0.25175116  1
  O  O325  1  0.24339373  0.00875094  0.57543391  1
  O  O326  1  0.25084304  0.01209479  0.90630087  1
  O  O327  1  0.25022512  0.52405854  0.24099255  1
  O  O328  1  0.24443034  0.52342567  0.57226408  1
  O  O329  1  0.24199736  0.51618287  0.90219336  1
  O  O330  1  0.59923080  0.01240996  0.26621625  1
  O  O331  1  0.59230241  0.01284297  0.60275289  1
  O  O332  1  0.58794688  0.02506251  0.92905814  1
  O  O333  1  0.59016992  0.52387487  0.26179809  1
  O  O334  1  0.58968861  0.52109418  0.59669950  1
  O  O335  1  0.59037724  0.52417217  0.93082141  1
  O  O336  1  0.91870066  0.02288319  0.25674602  1
  O  O337  1  0.91132429  0.00635513  0.57412393  1
  O  O338  1  0.91861011  0.00351439  0.92125857  1
  O  O339  1  0.92199301  0.51777443  0.25460232  1
  O  O340  1  0.91675729  0.52568831  0.58358803  1
  O  O341  1  0.91650149  0.52019809  0.91351986  1
  O  O342  1  0.08498136  0.23818580  0.24838010  1
  O  O343  1  0.08522824  0.23427716  0.57681539  1
  O  O344  1  0.09361995  0.24181404  0.90582631  1
  O  O345  1  0.08780842  0.72787775  0.24465103  1
  O  O346  1  0.08207429  0.72220005  0.57887038  1
  O  O347  1  0.08289466  0.72560402  0.91331415  1
  O  O348  1  0.43392055  0.24571775  0.24176036  1
  O  O349  1  0.41916249  0.25003045  0.57923488  1
  O  O350  1  0.42914377  0.24494765  0.90860876  1
  O  O351  1  0.42558979  0.73644285  0.24143548  1
  O  O352  1  0.41152633  0.74324208  0.58405958  1
  O  O353  1  0.42726129  0.73310203  0.90814280  1
  O  O354  1  0.75758943  0.22249186  0.24388936  1
  O  O355  1  0.75323255  0.23281223  0.57550465  1
  O  O356  1  0.75133642  0.23079772  0.91700149  1
  O  O357  1  0.75452531  0.73073023  0.24985576  1
  O  O358  1  0.75566673  0.72530784  0.57908564  1
  O  O359  1  0.75288450  0.72587816  0.91328641  1
