# generated using pymatgen
data_Ba17Sr5La8Pr42Mn72O216
_symmetry_space_group_name_H-M   'P 1'
_cell_length_a   16.66822735
_cell_length_b   15.70932633
_cell_length_c   16.82173467
_cell_angle_alpha   90.00933601
_cell_angle_beta   90.03076200
_cell_angle_gamma   90.00422047
_symmetry_Int_Tables_number   1
_chemical_formula_structural   Ba17Sr5La8Pr42Mn72O216
_chemical_formula_sum   'Ba17 Sr5 La8 Pr42 Mn72 O216'
_cell_volume   4404.71370824
_cell_formula_units_Z   1
loop_
 _symmetry_equiv_pos_site_id
 _symmetry_equiv_pos_as_xyz
  1  'x, y, z'
loop_
 _atom_site_type_symbol
 _atom_site_label
 _atom_site_symmetry_multiplicity
 _atom_site_fract_x
 _atom_site_fract_y
 _atom_site_fract_z
 _atom_site_occupancy
  Ba  Ba0  1  -0.00068622  0.12393718  0.99642695  1
  Ba  Ba1  1  0.33524203  0.12540667  0.33146141  1
  Ba  Ba2  1  0.49838973  0.62643414  0.83659409  1
  Ba  Ba3  1  0.33125873  0.87630013  0.66558101  1
  Ba  Ba4  1  0.16622891  0.12363801  0.16481822  1
  Ba  Ba5  1  0.33055234  0.12462752  0.66366509  1
  Ba  Ba6  1  0.83348729  0.12425997  0.83425290  1
  Ba  Ba7  1  0.00202262  0.37727928  0.33237159  1
  Ba  Ba8  1  0.50009993  0.62529136  0.16779695  1
  Ba  Ba9  1  0.66592792  0.37414656  0.00441226  1
  Ba  Ba10  1  0.16684182  0.37469689  0.16345144  1
  Ba  Ba11  1  0.16571420  0.87445841  0.16506052  1
  Ba  Ba12  1  0.83462601  0.87433371  0.49972837  1
  Ba  Ba13  1  0.49790939  0.87299658  0.83279110  1
  Ba  Ba14  1  0.50103486  0.37468941  0.50202125  1
  Ba  Ba15  1  0.66689293  0.87334455  0.33861105  1
  Ba  Ba16  1  0.49985374  0.12818358  0.50284599  1
  Sr  Sr17  1  0.33616266  0.62373987  0.32944813  1
  Sr  Sr18  1  -0.00096032  0.87467585  0.66401285  1
  Sr  Sr19  1  0.16746263  0.87552010  0.49776571  1
  Sr  Sr20  1  -0.00305243  0.12323514  0.66581987  1
  Sr  Sr21  1  0.33293378  0.62482421  0.99939767  1
  La  La22  1  0.33242954  0.87364064  0.33487009  1
  La  La23  1  0.16284692  0.87592105  0.82580319  1
  La  La24  1  -0.00089108  0.12276267  0.32955066  1
  La  La25  1  0.83562583  0.37524525  0.16501862  1
  La  La26  1  0.00190548  0.62808752  0.33159562  1
  La  La27  1  -0.00206104  0.37308517  0.00198969  1
  La  La28  1  0.49778322  0.37582990  0.16779147  1
  La  La29  1  0.00438126  0.87588658  0.33803456  1
  Pr  Pr30  1  0.33201404  0.86997539  -0.00140955  1
  Pr  Pr31  1  0.33763353  0.62695662  0.66159113  1
  Pr  Pr32  1  0.83186037  0.62114757  0.17057424  1
  Pr  Pr33  1  0.50413681  0.12671582  0.17284427  1
  Pr  Pr34  1  0.66629019  0.37730516  0.33676117  1
  Pr  Pr35  1  0.66795860  0.62495203  0.33515917  1
  Pr  Pr36  1  0.66388052  0.12424349  0.99930208  1
  Pr  Pr37  1  0.49693519  0.87548555  0.16582746  1
  Pr  Pr38  1  0.00377433  0.62904497  0.66278261  1
  Pr  Pr39  1  0.16961861  0.37403096  0.49257259  1
  Pr  Pr40  1  0.32655147  0.12427345  0.99685331  1
  Pr  Pr41  1  0.16292436  0.12155728  0.83328806  1
  Pr  Pr42  1  0.66490683  0.62511952  0.99832557  1
  Pr  Pr43  1  -0.00450675  0.87650138  -0.00192548  1
  Pr  Pr44  1  0.66870879  0.62503763  0.66856196  1
  Pr  Pr45  1  0.49561213  0.87778081  0.49930488  1
  Pr  Pr46  1  0.83598060  0.62732760  0.83860358  1
  Pr  Pr47  1  0.83610111  0.62657307  0.50263560  1
  Pr  Pr48  1  0.66771734  0.12465938  0.66669488  1
  Pr  Pr49  1  0.66383605  0.87479586  0.00525486  1
  Pr  Pr50  1  0.17281767  0.62477239  0.16904841  1
  Pr  Pr51  1  0.33475553  0.37934054  0.00197257  1
  Pr  Pr52  1  0.83467101  0.37379210  0.49945074  1
  Pr  Pr53  1  0.49449928  0.12392878  0.83643436  1
  Pr  Pr54  1  0.66578487  0.87626837  0.67091377  1
  Pr  Pr55  1  0.83217335  0.87901996  0.82851674  1
  Pr  Pr56  1  0.83209272  0.87450631  0.16734561  1
  Pr  Pr57  1  0.16279281  0.12473213  0.50067867  1
  Pr  Pr58  1  0.33150167  0.37592138  0.33141722  1
  Pr  Pr59  1  0.17086092  0.62785741  0.83085497  1
  Pr  Pr60  1  0.00544764  0.62583451  0.99800965  1
  Pr  Pr61  1  0.83151662  0.12751649  0.16855661  1
  Pr  Pr62  1  -0.00052981  0.37669748  0.66719968  1
  Pr  Pr63  1  0.17238882  0.62564662  0.49770503  1
  Pr  Pr64  1  0.83229843  0.37097860  0.83255219  1
  Pr  Pr65  1  0.66736335  0.12432186  0.33776258  1
  Pr  Pr66  1  0.16487019  0.37533710  0.82930541  1
  Pr  Pr67  1  0.49590934  0.37978718  0.83280359  1
  Pr  Pr68  1  0.83323296  0.12363330  0.50488267  1
  Pr  Pr69  1  0.33696427  0.37301108  0.66757821  1
  Pr  Pr70  1  0.50383175  0.62480782  0.50313991  1
  Pr  Pr71  1  0.66465866  0.37332957  0.67523247  1
  Mn  Mn72  1  -0.00342237  -0.00245940  0.16647940  1
  Mn  Mn73  1  0.00098093  0.00049492  0.49876918  1
  Mn  Mn74  1  -0.00084295  -0.00192287  0.82988705  1
  Mn  Mn75  1  -0.00014609  0.50223166  0.16359715  1
  Mn  Mn76  1  0.00114199  0.50191687  0.50129276  1
  Mn  Mn77  1  -0.00055814  0.50182848  0.83219999  1
  Mn  Mn78  1  0.33542170  -0.00182873  0.16409630  1
  Mn  Mn79  1  0.33136375  -0.00071989  0.49806771  1
  Mn  Mn80  1  0.33071140  0.00149863  0.83271988  1
  Mn  Mn81  1  0.33416937  0.50050009  0.16559121  1
  Mn  Mn82  1  0.33439524  0.50074343  0.49817883  1
  Mn  Mn83  1  0.33009137  0.49854945  0.83221672  1
  Mn  Mn84  1  0.66772729  -0.00052649  0.16894923  1
  Mn  Mn85  1  0.66642896  0.00019991  0.50337708  1
  Mn  Mn86  1  0.66431628  0.00077123  0.83572732  1
  Mn  Mn87  1  0.66706034  0.50080183  0.16968379  1
  Mn  Mn88  1  0.66983484  0.50002442  0.50328221  1
  Mn  Mn89  1  0.66947903  0.49996876  0.83586640  1
  Mn  Mn90  1  -0.00122471  0.24926363  0.16553468  1
  Mn  Mn91  1  -0.00020406  0.25044083  0.50037021  1
  Mn  Mn92  1  0.00054175  0.25329531  0.83115273  1
  Mn  Mn93  1  -0.00233891  0.74947026  0.16439150  1
  Mn  Mn94  1  0.00195307  0.74909259  0.49821429  1
  Mn  Mn95  1  -0.00096552  0.74749935  0.83131195  1
  Mn  Mn96  1  0.33529069  0.25045758  0.16346180  1
  Mn  Mn97  1  0.33138981  0.25200982  0.49998296  1
  Mn  Mn98  1  0.33085302  0.25061751  0.83357837  1
  Mn  Mn99  1  0.33422456  0.75008202  0.16663482  1
  Mn  Mn100  1  0.33479100  0.74870807  0.49661088  1
  Mn  Mn101  1  0.33069737  0.74904729  0.83229885  1
  Mn  Mn102  1  0.66767239  0.24899821  0.17076594  1
  Mn  Mn103  1  0.66961370  0.25281080  0.50296576  1
  Mn  Mn104  1  0.66477633  0.24972635  0.83726056  1
  Mn  Mn105  1  0.66757596  0.74980385  0.16855265  1
  Mn  Mn106  1  0.66680704  0.74711017  0.50336234  1
  Mn  Mn107  1  0.66899433  0.74997293  0.83586530  1
  Mn  Mn108  1  0.16659699  0.25073552  -0.00538308  1
  Mn  Mn109  1  0.16705013  0.25036701  0.33265244  1
  Mn  Mn110  1  0.16237336  0.25229199  0.66311634  1
  Mn  Mn111  1  0.16633364  0.74902771  -0.00310312  1
  Mn  Mn112  1  0.16809597  0.74834855  0.33201522  1
  Mn  Mn113  1  0.16600573  0.74894490  0.66398676  1
  Mn  Mn114  1  0.49724424  0.24810961  0.00231762  1
  Mn  Mn115  1  0.50247831  0.25073732  0.33314835  1
  Mn  Mn116  1  0.50126647  0.25228291  0.67184378  1
  Mn  Mn117  1  0.50040100  0.75148533  0.00184339  1
  Mn  Mn118  1  0.50036890  0.74923065  0.33535619  1
  Mn  Mn119  1  0.50202812  0.74754937  0.66588745  1
  Mn  Mn120  1  0.83183286  0.24980871  0.00096226  1
  Mn  Mn121  1  0.83332094  0.25100606  0.33543899  1
  Mn  Mn122  1  0.83391696  0.25115177  0.66548618  1
  Mn  Mn123  1  0.83282004  0.74982006  0.00111405  1
  Mn  Mn124  1  0.83463196  0.74740921  0.33355371  1
  Mn  Mn125  1  0.83333697  0.74930164  0.67012911  1
  Mn  Mn126  1  0.16608958  -0.00232215  -0.00426562  1
  Mn  Mn127  1  0.16736041  -0.00065079  0.33365121  1
  Mn  Mn128  1  0.16191247  0.00056677  0.66394668  1
  Mn  Mn129  1  0.16669367  0.50242417  -0.00408570  1
  Mn  Mn130  1  0.16811683  0.50167279  0.33236654  1
  Mn  Mn131  1  0.16664992  0.49996389  0.66283207  1
  Mn  Mn132  1  0.49750967  0.00069856  0.00247174  1
  Mn  Mn133  1  0.50163909  -0.00046221  0.33296590  1
  Mn  Mn134  1  0.50107905  0.00016796  0.66791361  1
  Mn  Mn135  1  0.50010729  0.49957045  0.00053799  1
  Mn  Mn136  1  0.50115787  0.49944708  0.33536482  1
  Mn  Mn137  1  0.50104244  0.50041392  0.66838472  1
  Mn  Mn138  1  0.83032854  -0.00359670  0.00066214  1
  Mn  Mn139  1  0.83367846  0.00147206  0.33381697  1
  Mn  Mn140  1  0.83353253  -0.00050155  0.66642786  1
  Mn  Mn141  1  0.83434724  0.50291056  0.00130133  1
  Mn  Mn142  1  0.83348676  0.49942091  0.33569924  1
  Mn  Mn143  1  0.83438557  0.50090933  0.66888636  1
  O  O144  1  0.16957024  0.12281375  0.00748101  1
  O  O145  1  0.16226001  0.12657620  0.35341762  1
  O  O146  1  0.16206723  0.13199671  0.69033641  1
  O  O147  1  0.16150114  0.62677998  0.02469653  1
  O  O148  1  0.16840565  0.62399720  0.35260094  1
  O  O149  1  0.16936931  0.62165629  0.68894328  1
  O  O150  1  0.49490705  0.12372505  0.03006864  1
  O  O151  1  0.50619333  0.12588232  0.34591093  1
  O  O152  1  0.50811999  0.13203639  0.69146833  1
  O  O153  1  0.50544863  0.62806649  0.01077413  1
  O  O154  1  0.50167014  0.62373165  0.35866542  1
  O  O155  1  0.49707892  0.62160036  0.68016333  1
  O  O156  1  0.82733535  0.11917428  0.02363552  1
  O  O157  1  0.83689348  0.13090482  0.36049826  1
  O  O158  1  0.83193059  0.12574565  0.67876314  1
  O  O159  1  0.83520121  0.62726542  0.02838855  1
  O  O160  1  0.83332249  0.62119483  0.35877405  1
  O  O161  1  0.83537608  0.62331339  0.69631937  1
  O  O162  1  0.17089592  0.37778470  0.32215685  1
  O  O163  1  0.15583457  0.37939384  0.63470277  1
  O  O164  1  0.16975461  0.37862966  0.97371659  1
  O  O165  1  0.16231029  0.87118946  0.32343780  1
  O  O166  1  0.16088362  0.86955498  0.64919858  1
  O  O167  1  0.16962132  0.87140587  0.97217277  1
  O  O168  1  0.51151227  0.37404782  0.31223823  1
  O  O169  1  0.50348161  0.37787205  0.65859877  1
  O  O170  1  0.49552334  0.36987127  0.97560250  1
  O  O171  1  0.49978994  0.87507782  0.31173055  1
  O  O172  1  0.51057034  0.86813480  0.64439547  1
  O  O173  1  0.50929117  0.87745336  0.98757609  1
  O  O174  1  0.82537894  0.37575193  0.30799200  1
  O  O175  1  0.83145522  0.37876416  0.64177952  1
  O  O176  1  0.83665400  0.38228970  0.97701530  1
  O  O177  1  0.83756623  0.87117716  0.31144554  1
  O  O178  1  0.82541527  0.87330093  0.65508546  1
  O  O179  1  0.82799374  0.87092365  0.97216058  1
  O  O180  1  -0.00556210  0.37663494  0.17511040  1
  O  O181  1  0.00328547  0.37901242  0.52415752  1
  O  O182  1  0.00654840  0.38237871  0.85830097  1
  O  O183  1  -0.00822069  0.87029411  0.19347037  1
  O  O184  1  0.00582990  0.87177454  0.51259025  1
  O  O185  1  0.00370570  0.86741680  0.85418781  1
  O  O186  1  0.33680364  0.37554484  0.18494339  1
  O  O187  1  0.32298289  0.37908025  0.52398863  1
  O  O188  1  0.32827607  0.37350994  0.85861383  1
  O  O189  1  0.33961624  0.87393746  0.18819365  1
  O  O190  1  0.33620940  0.87232657  0.50910500  1
  O  O191  1  0.32327213  0.87897145  0.85268726  1
  O  O192  1  0.66893907  0.37327476  0.19290169  1
  O  O193  1  0.67806395  0.37816889  0.53096406  1
  O  O194  1  0.67792585  0.37601144  0.84923168  1
  O  O195  1  0.66978386  0.87505935  0.18377218  1
  O  O196  1  0.66279082  0.86902246  0.52657394  1
  O  O197  1  0.67436916  0.87492415  0.85874285  1
  O  O198  1  -0.00882230  0.12349540  0.15460649  1
  O  O199  1  -0.00562589  0.12754311  0.47522655  1
  O  O200  1  0.00617507  0.12791048  0.81637873  1
  O  O201  1  -0.00735718  0.62728209  0.14018706  1
  O  O202  1  -0.01000550  0.62383117  0.47762907  1
  O  O203  1  -0.01025947  0.62286609  0.80461468  1
  O  O204  1  0.34497582  0.12433709  0.14205238  1
  O  O205  1  0.32636233  0.12522404  0.48973676  1
  O  O206  1  0.33461552  0.12779739  0.81905091  1
  O  O207  1  0.32833010  0.62588165  0.14916753  1
  O  O208  1  0.33809398  0.62387002  0.47842533  1
  O  O209  1  0.32499903  0.61829820  0.80546559  1
  O  O210  1  0.66811669  0.12306623  0.14231523  1
  O  O211  1  0.67290658  0.13122110  0.48175508  1
  O  O212  1  0.65941151  0.12585861  0.81075105  1
  O  O213  1  0.67374035  0.62752314  0.14179259  1
  O  O214  1  0.66685279  0.62163852  0.47831854  1
  O  O215  1  0.67465180  0.62366352  0.81243649  1
  O  O216  1  0.07519360  0.00888977  0.25707889  1
  O  O217  1  0.08081647  0.02292518  0.58041037  1
  O  O218  1  0.08859554  0.00732520  0.90591337  1
  O  O219  1  0.08387802  0.52375390  0.24571375  1
  O  O220  1  0.08474264  0.52960810  0.58198862  1
  O  O221  1  0.08369988  0.52821217  0.90935066  1
  O  O222  1  0.42796818  0.01068837  0.23822773  1
  O  O223  1  0.42080552  0.00216439  0.57927750  1
  O  O224  1  0.41285040  0.01919996  0.92040358  1
  O  O225  1  0.41706777  0.50345996  0.25109754  1
  O  O226  1  0.41540057  0.51772986  0.58181183  1
  O  O227  1  0.41209608  0.50531254  0.91732352  1
  O  O228  1  0.75065464  0.02463419  0.25015953  1
  O  O229  1  0.74917910  0.01947148  0.58619478  1
  O  O230  1  0.73897439  0.01518229  0.92656232  1
  O  O231  1  0.74923223  0.52321504  0.25367362  1
  O  O232  1  0.75559455  0.52801543  0.58395853  1
  O  O233  1  0.75343696  0.52595551  0.91914463  1
  O  O234  1  0.25476285  0.24347718  0.24626823  1
  O  O235  1  0.23538337  0.23994472  0.57453648  1
  O  O236  1  0.24600853  0.22919711  0.90911466  1
  O  O237  1  0.24777456  0.73400354  0.24578575  1
  O  O238  1  0.25446709  0.72668277  0.58305572  1
  O  O239  1  0.24716926  0.72838989  0.91449893  1
  O  O240  1  0.58910689  0.22808993  0.25326882  1
  O  O241  1  0.59341123  0.24147305  0.59636811  1
  O  O242  1  0.57778941  0.22451179  0.92223818  1
  O  O243  1  0.59049405  0.73190317  0.26152683  1
  O  O244  1  0.58792601  0.72068499  0.58698479  1
  O  O245  1  0.59366139  0.73927292  0.92576895  1
  O  O246  1  0.90971232  0.23336417  0.24922260  1
  O  O247  1  0.91229432  0.23939405  0.57912449  1
  O  O248  1  0.91553264  0.25045017  0.91124510  1
  O  O249  1  0.91564341  0.72360818  0.24968825  1
  O  O250  1  0.91846853  0.72981767  0.58725147  1
  O  O251  1  0.92014633  0.72834813  0.92194908  1
  O  O252  1  0.07845211  0.48885680  0.06978286  1
  O  O253  1  0.08828505  0.49329547  0.42238061  1
  O  O254  1  0.08103411  0.48164750  0.74529096  1
  O  O255  1  0.07732492  0.98121569  0.07329847  1
  O  O256  1  0.08592826  0.99096318  0.41979538  1
  O  O257  1  0.07982000  0.98201527  0.74679999  1
  O  O258  1  0.41673272  0.48037876  0.08362556  1
  O  O259  1  0.41286174  0.48012027  0.41205160  1
  O  O260  1  0.41184324  0.47709659  0.75125612  1
  O  O261  1  0.41561734  0.97102398  0.08014098  1
  O  O262  1  0.41549535  0.98072199  0.41166786  1
  O  O263  1  0.41897341  0.99593518  0.75315900  1
  O  O264  1  0.75687202  0.48740078  0.09166754  1
  O  O265  1  0.75022124  0.47773126  0.41843753  1
  O  O266  1  0.75023077  0.48004774  0.74812648  1
  O  O267  1  0.75047647  0.97597787  0.08633870  1
  O  O268  1  0.75143407  0.99754927  0.41821757  1
  O  O269  1  0.74933511  0.98343496  0.75240867  1
  O  O270  1  0.25719943  0.26099444  0.06955629  1
  O  O271  1  0.25236423  0.27112809  0.41276760  1
  O  O272  1  0.24805348  0.27768230  0.74217058  1
  O  O273  1  0.25431867  0.76459451  0.07668561  1
  O  O274  1  0.25114489  0.76041452  0.41488513  1
  O  O275  1  0.23923522  0.76145266  0.75450054  1
  O  O276  1  0.57733860  0.26051750  0.09228293  1
  O  O277  1  0.59233253  0.26547608  0.41476199  1
  O  O278  1  0.58140587  0.27522612  0.75966871  1
  O  O279  1  0.58248534  0.76974638  0.08873777  1
  O  O280  1  0.57429759  0.76019621  0.43048386  1
  O  O281  1  0.59056619  0.75971012  0.74545184  1
  O  O282  1  0.91470877  0.26743265  0.08077101  1
  O  O283  1  0.91399885  0.27115391  0.41990138  1
  O  O284  1  0.91748843  0.27600573  0.74763602  1
  O  O285  1  0.91197607  0.77780963  0.08370963  1
  O  O286  1  0.92115035  0.76082427  0.40979001  1
  O  O287  1  0.90955215  0.76784985  0.75843230  1
  O  O288  1  0.25468543  0.48825173  0.07446540  1
  O  O289  1  0.25197626  0.48225914  0.41649541  1
  O  O290  1  0.24759017  0.47221624  0.74435798  1
  O  O291  1  0.25630094  0.98615637  0.07292829  1
  O  O292  1  0.25311408  0.98382293  0.41231875  1
  O  O293  1  0.24016217  0.99108207  0.75446412  1
  O  O294  1  0.58094616  0.48566438  0.09193073  1
  O  O295  1  0.58967475  0.48608974  0.41777805  1
  O  O296  1  0.58532601  0.48161044  0.75619060  1
  O  O297  1  0.58368717  0.98333572  0.08781814  1
  O  O298  1  0.57887478  0.98521641  0.42730074  1
  O  O299  1  0.58915556  0.98282096  0.74936152  1
  O  O300  1  0.91523358  0.48245754  0.08187716  1
  O  O301  1  0.91065335  0.48374592  0.42728871  1
  O  O302  1  0.91376542  0.47208504  0.75394555  1
  O  O303  1  0.91230924  0.97277972  0.08233915  1
  O  O304  1  0.92620212  0.98646036  0.40669665  1
  O  O305  1  0.91424851  0.98136444  0.75018980  1
  O  O306  1  0.08137370  0.26337176  0.07252882  1
  O  O307  1  0.08992654  0.26267191  0.42695703  1
  O  O308  1  0.08204257  0.27958202  0.74686808  1
  O  O309  1  0.07370921  0.76508430  0.07001854  1
  O  O310  1  0.08123668  0.75480540  0.40985412  1
  O  O311  1  0.07617183  0.75693794  0.74368173  1
  O  O312  1  0.41594254  0.27697493  0.08062760  1
  O  O313  1  0.41438445  0.26842358  0.40714020  1
  O  O314  1  0.41731147  0.27353358  0.75680324  1
  O  O315  1  0.41801915  0.77193891  0.08471725  1
  O  O316  1  0.41712018  0.77190168  0.41480434  1
  O  O317  1  0.41199623  0.75368767  0.74413886  1
  O  O318  1  0.75612469  0.26303594  0.09699323  1
  O  O319  1  0.75226411  0.27542179  0.41888865  1
  O  O320  1  0.75092869  0.26865079  0.74703961  1
  O  O321  1  0.74854575  0.77232680  0.08067484  1
  O  O322  1  0.74997918  0.75108190  0.41897228  1
  O  O323  1  0.74907609  0.76931443  0.75274789  1
  O  O324  1  0.25393239  0.00509667  0.24711686  1
  O  O325  1  0.24068759  0.01111984  0.57648355  1
  O  O326  1  0.24924032  0.02075718  0.91377498  1
  O  O327  1  0.24918045  0.51589112  0.24488566  1
  O  O328  1  0.25101941  0.52489253  0.58036401  1
  O  O329  1  0.24368480  0.52023557  0.90856842  1
  O  O330  1  0.58923294  0.02112453  0.25342370  1
  O  O331  1  0.59124936  0.01644791  0.59297985  1
  O  O332  1  0.57724045  0.02543135  0.91929533  1
  O  O333  1  0.59074081  0.51566325  0.25948196  1
  O  O334  1  0.58970719  0.52028197  0.58640673  1
  O  O335  1  0.59019976  0.51201793  0.92200096  1
  O  O336  1  0.90865692  0.01864664  0.24676616  1
  O  O337  1  0.91343167  0.01469657  0.57669151  1
  O  O338  1  0.91481067  -0.00118127  0.91564276  1
  O  O339  1  0.91446486  0.51952223  0.25236294  1
  O  O340  1  0.92055334  0.52154051  0.59136729  1
  O  O341  1  0.91777510  0.52512573  0.91924686  1
  O  O342  1  0.07808454  0.23664324  0.25563957  1
  O  O343  1  0.07723239  0.22846497  0.58491223  1
  O  O344  1  0.08930091  0.24156138  0.90536578  1
  O  O345  1  0.08430368  0.72594937  0.24446407  1
  O  O346  1  0.08813846  0.72282458  0.57772649  1
  O  O347  1  0.08404068  0.72420686  0.90835461  1
  O  O348  1  0.42828646  0.24155685  0.23969833  1
  O  O349  1  0.41299880  0.24974418  0.58967709  1
  O  O350  1  0.41476616  0.22731221  0.92137741  1
  O  O351  1  0.41635792  0.74126721  0.25335165  1
  O  O352  1  0.42248703  0.73021034  0.57713556  1
  O  O353  1  0.41161708  0.74644037  0.92213145  1
  O  O354  1  0.74834063  0.22398192  0.25744752  1
  O  O355  1  0.75277662  0.22954335  0.58302246  1
  O  O356  1  0.74300484  0.23204813  0.92490879  1
  O  O357  1  0.75440227  0.72675625  0.24881296  1
  O  O358  1  0.75166949  0.72369843  0.58771286  1
  O  O359  1  0.75384830  0.72340172  0.91852278  1
