# generated using pymatgen
data_Ba17Sr5La8Pr42Mn72O216
_symmetry_space_group_name_H-M   'P 1'
_cell_length_a   16.67068231
_cell_length_b   15.70544776
_cell_length_c   16.81977263
_cell_angle_alpha   90.00787962
_cell_angle_beta   89.99241140
_cell_angle_gamma   90.01762026
_symmetry_Int_Tables_number   1
_chemical_formula_structural   Ba17Sr5La8Pr42Mn72O216
_chemical_formula_sum   'Ba17 Sr5 La8 Pr42 Mn72 O216'
_cell_volume   4403.76149783
_cell_formula_units_Z   1
loop_
 _symmetry_equiv_pos_site_id
 _symmetry_equiv_pos_as_xyz
  1  'x, y, z'
loop_
 _atom_site_type_symbol
 _atom_site_label
 _atom_site_symmetry_multiplicity
 _atom_site_fract_x
 _atom_site_fract_y
 _atom_site_fract_z
 _atom_site_occupancy
  Ba  Ba0  1  0.33144898  0.87697952  0.66786629  1
  Ba  Ba1  1  0.16505139  0.12525505  0.50317952  1
  Ba  Ba2  1  0.66936543  0.12303760  0.66417383  1
  Ba  Ba3  1  0.00113212  0.62592802  1.00053438  1
  Ba  Ba4  1  0.83258513  0.37433171  0.83193417  1
  Ba  Ba5  1  0.16605384  0.37545428  0.83849481  1
  Ba  Ba6  1  0.49888138  0.37428459  0.83043077  1
  Ba  Ba7  1  0.66520833  0.37357908  0.66383085  1
  Ba  Ba8  1  0.66407105  0.37386678  -0.00216761  1
  Ba  Ba9  1  0.33628119  0.62753808  1.00062431  1
  Ba  Ba10  1  0.83607095  0.87627406  0.83152072  1
  Ba  Ba11  1  0.83534359  0.62614272  0.83248381  1
  Ba  Ba12  1  0.17009201  0.62426999  0.83996826  1
  Ba  Ba13  1  0.66863609  0.62724048  0.33073002  1
  Ba  Ba14  1  -0.00026909  0.87503126  0.33609991  1
  Ba  Ba15  1  -0.00570541  0.37416015  0.33366510  1
  Ba  Ba16  1  0.49696356  0.37461908  0.49695183  1
  Sr  Sr17  1  0.32835582  0.37505158  0.33567710  1
  Sr  Sr18  1  0.83335783  0.12663713  0.83266531  1
  Sr  Sr19  1  0.82796697  0.37299574  0.16174914  1
  Sr  Sr20  1  0.83232373  0.12582347  0.16515611  1
  Sr  Sr21  1  0.82889309  0.37329308  0.49642518  1
  La  La22  1  0.15797886  0.37312306  0.16554988  1
  La  La23  1  0.49742700  0.37725004  0.16303285  1
  La  La24  1  0.66872911  0.12529114  0.33235037  1
  La  La25  1  0.33122286  0.87694051  0.33853616  1
  La  La26  1  0.49959502  0.87697808  0.49591672  1
  La  La27  1  0.66680792  0.87580963  0.33058262  1
  La  La28  1  -0.00038988  0.12785617  0.99868404  1
  La  La29  1  0.83126055  0.87570268  0.49818606  1
  Pr  Pr30  1  0.33863900  0.12781983  0.33299836  1
  Pr  Pr31  1  -0.00216919  0.37280286  0.66917327  1
  Pr  Pr32  1  0.33699778  0.62253699  0.66766157  1
  Pr  Pr33  1  0.00071313  0.12750980  0.33073611  1
  Pr  Pr34  1  0.16985252  0.12624604  0.17709183  1
  Pr  Pr35  1  0.16711227  0.87657026  0.50067914  1
  Pr  Pr36  1  0.49835866  0.87382788  0.82867303  1
  Pr  Pr37  1  0.83808421  0.12553899  0.49977411  1
  Pr  Pr38  1  -0.00872993  0.38009298  0.00342577  1
  Pr  Pr39  1  0.83898833  0.62376711  0.50076088  1
  Pr  Pr40  1  0.33485780  0.12844837  0.66602248  1
  Pr  Pr41  1  0.16643485  0.87049944  0.83717289  1
  Pr  Pr42  1  0.32769900  0.37752184  0.00467714  1
  Pr  Pr43  1  0.16143140  0.37490009  0.49952838  1
  Pr  Pr44  1  0.00234454  0.62293549  0.33057684  1
  Pr  Pr45  1  0.67458246  0.62095361  0.66272338  1
  Pr  Pr46  1  0.00457920  0.62239332  0.67178166  1
  Pr  Pr47  1  0.00435672  0.87639313  0.67060362  1
  Pr  Pr48  1  -0.00309625  0.12640127  0.66786554  1
  Pr  Pr49  1  0.83960345  0.62163405  0.16707979  1
  Pr  Pr50  1  0.50594042  0.12362437  0.83236229  1
  Pr  Pr51  1  0.50403457  0.12404519  0.16728380  1
  Pr  Pr52  1  0.17107169  0.12305289  0.83704179  1
  Pr  Pr53  1  -0.00282622  0.87197710  0.00421186  1
  Pr  Pr54  1  0.34095352  0.62291422  0.32928812  1
  Pr  Pr55  1  0.32791909  0.37262549  0.67045278  1
  Pr  Pr56  1  0.50715132  0.62382416  0.50058489  1
  Pr  Pr57  1  0.50347737  0.62516307  0.83285384  1
  Pr  Pr58  1  0.49838941  0.12661154  0.50124424  1
  Pr  Pr59  1  0.66331798  0.87298397  0.66769892  1
  Pr  Pr60  1  0.67284700  0.12576527  0.99206800  1
  Pr  Pr61  1  0.33035544  0.87448772  0.00248812  1
  Pr  Pr62  1  0.16673899  0.62630466  0.50500065  1
  Pr  Pr63  1  0.50087755  0.87272857  0.16234016  1
  Pr  Pr64  1  0.17073979  0.62374794  0.17384509  1
  Pr  Pr65  1  0.66576865  0.37347703  0.33561723  1
  Pr  Pr66  1  0.66818951  0.87801964  -0.00315246  1
  Pr  Pr67  1  0.33780872  0.12638050  1.00019612  1
  Pr  Pr68  1  0.50661445  0.62407166  0.16709627  1
  Pr  Pr69  1  0.16390081  0.87646617  0.16711858  1
  Pr  Pr70  1  0.83245973  0.87449640  0.16010231  1
  Pr  Pr71  1  0.66876786  0.62478630  0.99517034  1
  Mn  Mn72  1  -0.00001473  0.00131769  0.16717395  1
  Mn  Mn73  1  -0.00059948  -0.00087572  0.50247366  1
  Mn  Mn74  1  0.00337160  0.00189699  0.83535384  1
  Mn  Mn75  1  -0.00068863  0.50007469  0.16808608  1
  Mn  Mn76  1  -0.00040836  0.50125208  0.50023967  1
  Mn  Mn77  1  0.00073777  0.49794023  0.83539531  1
  Mn  Mn78  1  0.33415238  -0.00105958  0.16854917  1
  Mn  Mn79  1  0.33303432  0.00075592  0.50112610  1
  Mn  Mn80  1  0.33428701  0.00143098  0.83634457  1
  Mn  Mn81  1  0.33263512  0.49980461  0.16926458  1
  Mn  Mn82  1  0.33158975  0.50221325  0.49911366  1
  Mn  Mn83  1  0.33497673  0.49938759  0.83419497  1
  Mn  Mn84  1  0.66631833  0.00032942  0.16406193  1
  Mn  Mn85  1  0.66655945  -0.00194461  0.49697245  1
  Mn  Mn86  1  0.66720236  -0.00175462  0.83115530  1
  Mn  Mn87  1  0.66644443  0.50020335  0.16521689  1
  Mn  Mn88  1  0.66819670  0.49986686  0.49609463  1
  Mn  Mn89  1  0.66623750  0.50166333  0.82971709  1
  Mn  Mn90  1  -0.00189723  0.24802493  0.16518626  1
  Mn  Mn91  1  -0.00195766  0.25008745  0.50039770  1
  Mn  Mn92  1  0.00232244  0.24777690  0.83390141  1
  Mn  Mn93  1  0.00079932  0.75040282  0.16991862  1
  Mn  Mn94  1  0.00051838  0.74886814  0.50250852  1
  Mn  Mn95  1  0.00219220  0.75176194  0.83573657  1
  Mn  Mn96  1  0.33346890  0.24881730  0.16785111  1
  Mn  Mn97  1  0.33145073  0.25136811  0.50017458  1
  Mn  Mn98  1  0.33367165  0.24774079  0.83478089  1
  Mn  Mn99  1  0.33364026  0.75156576  0.16937830  1
  Mn  Mn100  1  0.33330856  0.74914652  0.49889167  1
  Mn  Mn101  1  0.33570486  0.75192025  0.83420226  1
  Mn  Mn102  1  0.66499555  0.24685738  0.16588605  1
  Mn  Mn103  1  0.66674486  0.24873732  0.49627711  1
  Mn  Mn104  1  0.66706349  0.24856567  0.83047094  1
  Mn  Mn105  1  0.66752421  0.75246271  0.16201382  1
  Mn  Mn106  1  0.66758291  0.75105959  0.49871455  1
  Mn  Mn107  1  0.66589469  0.75170992  0.83060331  1
  Mn  Mn108  1  0.16683751  0.24701020  0.00516897  1
  Mn  Mn109  1  0.16709535  0.25122530  0.33555305  1
  Mn  Mn110  1  0.16554126  0.24988459  0.66972255  1
  Mn  Mn111  1  0.16785553  0.75352793  0.00430131  1
  Mn  Mn112  1  0.16817111  0.74979023  0.33769445  1
  Mn  Mn113  1  0.16724679  0.74939352  0.66873870  1
  Mn  Mn114  1  0.49731710  0.24797075  0.00042703  1
  Mn  Mn115  1  0.49972323  0.24827737  0.33072889  1
  Mn  Mn116  1  0.49796682  0.24866285  0.66516926  1
  Mn  Mn117  1  0.50169288  0.75276094  -0.00234673  1
  Mn  Mn118  1  0.49899408  0.75190913  0.33081529  1
  Mn  Mn119  1  0.49950336  0.74927760  0.66450845  1
  Mn  Mn120  1  0.83271046  0.24764183  0.00000360  1
  Mn  Mn121  1  0.83133390  0.24809226  0.33090166  1
  Mn  Mn122  1  0.83432575  0.24837533  0.66457804  1
  Mn  Mn123  1  0.83245147  0.75208494  -0.00021822  1
  Mn  Mn124  1  0.83395496  0.75110809  0.33130194  1
  Mn  Mn125  1  0.83695903  0.75032126  0.66284812  1
  Mn  Mn126  1  0.16765905  0.00257815  0.00482672  1
  Mn  Mn127  1  0.16710142  0.00031776  0.33554926  1
  Mn  Mn128  1  0.16587603  -0.00008451  0.67169367  1
  Mn  Mn129  1  0.16648174  0.49838294  0.00482331  1
  Mn  Mn130  1  0.16745213  0.49951155  0.33752551  1
  Mn  Mn131  1  0.16748410  0.50124502  0.66702626  1
  Mn  Mn132  1  0.49955308  -0.00052408  -0.00060049  1
  Mn  Mn133  1  0.49955847  -0.00077495  0.33073888  1
  Mn  Mn134  1  0.49908635  -0.00033707  0.66436529  1
  Mn  Mn135  1  0.49875221  0.50106789  -0.00126264  1
  Mn  Mn136  1  0.49957327  0.50009637  0.33145413  1
  Mn  Mn137  1  0.49826965  0.50190825  0.66508456  1
  Mn  Mn138  1  0.83498893  0.00110032  -0.00076195  1
  Mn  Mn139  1  0.83299521  -0.00030151  0.33091891  1
  Mn  Mn140  1  0.83614719  -0.00100361  0.66374947  1
  Mn  Mn141  1  0.83080197  0.50064853  0.00096984  1
  Mn  Mn142  1  0.83197238  0.50018018  0.33227555  1
  Mn  Mn143  1  0.83583031  0.50039007  0.66362036  1
  O  O144  1  0.17025990  0.12314880  0.03434933  1
  O  O145  1  0.16321999  0.12630143  0.34555232  1
  O  O146  1  0.16232327  0.12282771  0.69296558  1
  O  O147  1  0.16807331  0.62613155  0.02841777  1
  O  O148  1  0.16291628  0.62705667  0.36044152  1
  O  O149  1  0.16303582  0.62679302  0.68401672  1
  O  O150  1  0.49452684  0.12091509  0.02689916  1
  O  O151  1  0.49764435  0.12061143  0.35691206  1
  O  O152  1  0.49132635  0.12256413  0.68591322  1
  O  O153  1  0.50648620  0.63200039  0.02494602  1
  O  O154  1  0.49409513  0.63073949  0.35490703  1
  O  O155  1  0.49056011  0.62878972  0.68840127  1
  O  O156  1  0.82719469  0.12194558  0.01442775  1
  O  O157  1  0.82938495  0.12060466  0.35607845  1
  O  O158  1  0.83915142  0.12118081  0.68164070  1
  O  O159  1  0.82315977  0.63091398  0.02137093  1
  O  O160  1  0.83691816  0.62754760  0.35535082  1
  O  O161  1  0.82415691  0.62789073  0.67439846  1
  O  O162  1  0.16977084  0.37308590  0.31066154  1
  O  O163  1  0.17265010  0.37835579  0.64292317  1
  O  O164  1  0.17374097  0.36996866  0.99582424  1
  O  O165  1  0.17337307  0.87407455  0.31082719  1
  O  O166  1  0.16133443  0.87254004  0.64315770  1
  O  O167  1  0.17065286  0.88295748  0.98056771  1
  O  O168  1  0.50698860  0.37051598  0.30828186  1
  O  O169  1  0.49211606  0.37467988  0.65430989  1
  O  O170  1  0.49002254  0.37010988  0.98906263  1
  O  O171  1  0.49625184  0.87658856  0.30582506  1
  O  O172  1  0.50543687  0.87327470  0.63956588  1
  O  O173  1  0.49992067  0.87784161  0.97116547  1
  O  O174  1  0.82455561  0.37264417  0.31262234  1
  O  O175  1  0.84620471  0.37562548  0.64761359  1
  O  O176  1  0.84102487  0.37131206  0.99496364  1
  O  O177  1  0.83108264  0.87733570  0.30376072  1
  O  O178  1  0.84902971  0.87376600  0.64171292  1
  O  O179  1  0.84195860  0.87774379  0.99034322  1
  O  O180  1  -0.00183675  0.37374185  0.17659297  1
  O  O181  1  0.00196694  0.37809195  0.52474794  1
  O  O182  1  -0.00080496  0.36887245  0.85681761  1
  O  O183  1  -0.00550017  0.87599978  0.18092942  1
  O  O184  1  -0.00022702  0.87248232  0.52681661  1
  O  O185  1  0.00684846  0.88069817  0.85959699  1
  O  O186  1  0.34196735  0.37309108  0.18617892  1
  O  O187  1  0.32911932  0.38004612  0.52721010  1
  O  O188  1  0.33606819  0.36857677  0.85840920  1
  O  O189  1  0.33840867  0.87715698  0.19623292  1
  O  O190  1  0.33665975  0.87460416  0.51294526  1
  O  O191  1  0.33944552  0.88026451  0.85843869  1
  O  O192  1  0.66171461  0.36919253  0.18920546  1
  O  O193  1  0.66721590  0.37415050  0.50420251  1
  O  O194  1  0.66430948  0.37617059  0.83833326  1
  O  O195  1  0.66742408  0.87690396  0.18875283  1
  O  O196  1  0.66098636  0.87460996  0.52279465  1
  O  O197  1  0.65593293  0.87475686  0.85294193  1
  O  O198  1  0.01221132  0.12291738  0.14395274  1
  O  O199  1  -0.00448465  0.12209828  0.47501725  1
  O  O200  1  0.01227191  0.12405865  0.81080216  1
  O  O201  1  0.00521810  0.62659782  0.15710711  1
  O  O202  1  0.00466895  0.62681073  0.47313793  1
  O  O203  1  0.00469832  0.62649368  0.81854250  1
  O  O204  1  0.33023775  0.12030131  0.14251246  1
  O  O205  1  0.33734333  0.12250714  0.47639322  1
  O  O206  1  0.32711858  0.12328460  0.81042049  1
  O  O207  1  0.32582873  0.62633480  0.15548216  1
  O  O208  1  0.32321981  0.62723027  0.47135633  1
  O  O209  1  0.33961851  0.62819905  0.81365938  1
  O  O210  1  0.65623004  0.11985781  0.13703722  1
  O  O211  1  0.66805241  0.12011541  0.47643647  1
  O  O212  1  0.66434398  0.11982164  0.82403729  1
  O  O213  1  0.65766920  0.63288979  0.13943251  1
  O  O214  1  0.66996917  0.62799334  0.48778538  1
  O  O215  1  0.66210900  0.63141590  0.80875112  1
  O  O216  1  0.08510869  0.01682692  0.24956189  1
  O  O217  1  0.07558054  0.01233560  0.59658280  1
  O  O218  1  0.08922496  0.02582668  0.92160371  1
  O  O219  1  0.08946681  0.51845599  0.25022321  1
  O  O220  1  0.08820933  0.52068154  0.57961953  1
  O  O221  1  0.08468508  0.50207750  0.92300331  1
  O  O222  1  0.41614003  0.02504898  0.24977715  1
  O  O223  1  0.41522827  0.02143976  0.58303454  1
  O  O224  1  0.41675792  0.02474695  0.91887056  1
  O  O225  1  0.42179015  0.52108147  0.24304867  1
  O  O226  1  0.41939379  0.52856154  0.57467741  1
  O  O227  1  0.42687347  0.51814925  0.90825804  1
  O  O228  1  0.74483787  0.01855695  0.24857124  1
  O  O229  1  0.75838579  0.00636423  0.57285582  1
  O  O230  1  0.74620524  0.00736277  0.92071930  1
  O  O231  1  0.75843034  0.51790442  0.24027479  1
  O  O232  1  0.75656670  0.51462896  0.57542398  1
  O  O233  1  0.74601544  0.51497270  0.91783598  1
  O  O234  1  0.25795950  0.22804712  0.25525368  1
  O  O235  1  0.25534858  0.23521059  0.59568672  1
  O  O236  1  0.25528603  0.22717974  0.92686001  1
  O  O237  1  0.25072837  0.72898498  0.25897604  1
  O  O238  1  0.25017155  0.73045617  0.58532173  1
  O  O239  1  0.25593170  0.75147273  0.92369536  1
  O  O240  1  0.58518720  0.22109944  0.25157960  1
  O  O241  1  0.57930033  0.23328645  0.57599883  1
  O  O242  1  0.58341312  0.22752605  0.92424035  1
  O  O243  1  0.57905968  0.74108564  0.24157290  1
  O  O244  1  0.58532497  0.72694328  0.58770270  1
  O  O245  1  0.58418028  0.72918458  0.91647790  1
  O  O246  1  0.92034581  0.22714031  0.25327715  1
  O  O247  1  0.91870039  0.22692712  0.58268667  1
  O  O248  1  0.92320945  0.22963781  0.91822263  1
  O  O249  1  0.92093124  0.72740994  0.25485352  1
  O  O250  1  0.92187344  0.72107293  0.58385273  1
  O  O251  1  0.91934996  0.74671404  0.92044232  1
  O  O252  1  0.07985809  0.47966490  0.08449058  1
  O  O253  1  0.08289536  0.48334212  0.41925185  1
  O  O254  1  0.07799333  0.48510045  0.73977269  1
  O  O255  1  0.08353964  0.97579950  0.08442147  1
  O  O256  1  0.08701617  0.98194497  0.42756834  1
  O  O257  1  0.08763508  0.97429700  0.75627833  1
  O  O258  1  0.40823140  0.48401091  0.07924928  1
  O  O259  1  0.40694730  0.49228303  0.40799369  1
  O  O260  1  0.40643714  0.48916104  0.73605909  1
  O  O261  1  0.41610914  0.97583372  0.08383416  1
  O  O262  1  0.41964200  0.98094781  0.41404448  1
  O  O263  1  0.42296651  0.98731481  0.75730164  1
  O  O264  1  0.74454659  0.49446743  0.08155623  1
  O  O265  1  0.74383498  0.48397860  0.40570844  1
  O  O266  1  0.74628352  0.49721950  0.74178006  1
  O  O267  1  0.74885145  0.97884320  0.08368941  1
  O  O268  1  0.74595040  0.97577717  0.41137586  1
  O  O269  1  0.74802811  0.97901841  0.73806003  1
  O  O270  1  0.24259631  0.26601056  0.09675711  1
  O  O271  1  0.24506828  0.27018975  0.42611620  1
  O  O272  1  0.24850521  0.26123197  0.75378493  1
  O  O273  1  0.24830547  0.77650017  0.09181118  1
  O  O274  1  0.24849094  0.77437840  0.42028261  1
  O  O275  1  0.24720141  0.76687636  0.75835002  1
  O  O276  1  0.56739942  0.26123205  0.09438573  1
  O  O277  1  0.58435094  0.25766086  0.40927302  1
  O  O278  1  0.57594780  0.24811260  0.75207282  1
  O  O279  1  0.58360454  0.77934775  0.07873844  1
  O  O280  1  0.57829361  0.77093391  0.41603535  1
  O  O281  1  0.58008522  0.77190948  0.74909687  1
  O  O282  1  0.91732107  0.25438450  0.08197357  1
  O  O283  1  0.90953276  0.25542959  0.41998843  1
  O  O284  1  0.92327316  0.25799439  0.74339660  1
  O  O285  1  0.91196471  0.76374093  0.08913167  1
  O  O286  1  0.91121020  0.76406443  0.42733836  1
  O  O287  1  0.92485665  0.75968482  0.74333486  1
  O  O288  1  0.24291288  0.48105303  0.09767429  1
  O  O289  1  0.24136083  0.48043855  0.42742111  1
  O  O290  1  0.25202020  0.48722637  0.74711149  1
  O  O291  1  0.25033952  0.97373835  0.08960134  1
  O  O292  1  0.25076600  0.98111693  0.41923269  1
  O  O293  1  0.24368485  0.98466297  0.76364323  1
  O  O294  1  0.57213092  0.48736225  0.08843151  1
  O  O295  1  0.57984799  0.49258990  0.41397654  1
  O  O296  1  0.57808200  0.50237981  0.74929629  1
  O  O297  1  0.58187680  0.97372045  0.08122287  1
  O  O298  1  0.58340594  0.97731019  0.40886490  1
  O  O299  1  0.58262431  0.97940925  0.74534979  1
  O  O300  1  0.91191331  0.49368640  0.08864265  1
  O  O301  1  0.90936673  0.49314938  0.42323053  1
  O  O302  1  0.92104302  0.49232077  0.74327955  1
  O  O303  1  0.91783872  0.98631361  0.08440180  1
  O  O304  1  0.90938103  0.98403244  0.42331335  1
  O  O305  1  0.92608958  0.98878487  0.74189194  1
  O  O306  1  0.07739784  0.26810541  0.07894105  1
  O  O307  1  0.08139305  0.26538117  0.42197038  1
  O  O308  1  0.08028212  0.26873389  0.74665871  1
  O  O309  1  0.08310727  0.77480035  0.08708200  1
  O  O310  1  0.09038569  0.76803520  0.42695269  1
  O  O311  1  0.08428959  0.77264847  0.75189266  1
  O  O312  1  0.40259407  0.26083731  0.07322516  1
  O  O313  1  0.41108062  0.25777161  0.40524106  1
  O  O314  1  0.40546581  0.25885621  0.73900233  1
  O  O315  1  0.41756390  0.77502801  0.07948706  1
  O  O316  1  0.41456097  0.77038479  0.41059882  1
  O  O317  1  0.41976900  0.76785078  0.75004217  1
  O  O318  1  0.74312762  0.25399306  0.08308636  1
  O  O319  1  0.74217596  0.26084531  0.40541324  1
  O  O320  1  0.75320502  0.25416695  0.74413100  1
  O  O321  1  0.74604987  0.77785858  0.07827137  1
  O  O322  1  0.74726501  0.77466962  0.40711738  1
  O  O323  1  0.74367116  0.76732995  0.73815581  1
  O  O324  1  0.25383859  0.01998881  0.25104248  1
  O  O325  1  0.25033054  0.01467376  0.59316283  1
  O  O326  1  0.25305236  0.02313407  0.92614505  1
  O  O327  1  0.25435627  0.52044153  0.25993533  1
  O  O328  1  0.25433686  0.52614640  0.58692110  1
  O  O329  1  0.25643069  0.50301622  0.92782221  1
  O  O330  1  0.58028126  0.01743088  0.24628685  1
  O  O331  1  0.57595865  0.01414781  0.57119209  1
  O  O332  1  0.57990872  0.02094118  0.91954935  1
  O  O333  1  0.58265320  0.51525234  0.24533749  1
  O  O334  1  0.58480195  0.52170698  0.58465473  1
  O  O335  1  0.58648366  0.52319392  0.91753318  1
  O  O336  1  0.92115170  0.02381835  0.25308550  1
  O  O337  1  0.91741641  0.02383092  0.58122082  1
  O  O338  1  0.92250386  0.02012341  0.91801043  1
  O  O339  1  0.92063506  0.52128693  0.25472906  1
  O  O340  1  0.92368190  0.52739347  0.58466875  1
  O  O341  1  0.91694808  0.50402668  0.92246616  1
  O  O342  1  0.08620608  0.23371863  0.24541337  1
  O  O343  1  0.07875001  0.23988380  0.58986874  1
  O  O344  1  0.09071616  0.22486081  0.91819630  1
  O  O345  1  0.08837826  0.73157702  0.25415782  1
  O  O346  1  0.08187307  0.72789768  0.58605746  1
  O  O347  1  0.08705792  0.74979384  0.92011902  1
  O  O348  1  0.42205872  0.22486666  0.24205219  1
  O  O349  1  0.41733875  0.22802509  0.57835891  1
  O  O350  1  0.42166394  0.22034473  0.91041000  1
  O  O351  1  0.41923330  0.72809273  0.24611007  1
  O  O352  1  0.41918603  0.72621310  0.57623958  1
  O  O353  1  0.42676959  0.73869978  0.90897973  1
  O  O354  1  0.74736387  0.22695840  0.24776210  1
  O  O355  1  0.75674483  0.23595551  0.57108433  1
  O  O356  1  0.75036802  0.23505920  0.91702857  1
  O  O357  1  0.75829465  0.73599205  0.23354382  1
  O  O358  1  0.75846797  0.74196174  0.57470306  1
  O  O359  1  0.74394089  0.74296120  0.92008985  1
