# generated using pymatgen
data_Ba17Sr5La8Pr42Mn72O216
_symmetry_space_group_name_H-M   'P 1'
_cell_length_a   16.67007393
_cell_length_b   15.70348577
_cell_length_c   16.81332954
_cell_angle_alpha   90.00267314
_cell_angle_beta   90.01377045
_cell_angle_gamma   89.98267599
_symmetry_Int_Tables_number   1
_chemical_formula_structural   Ba17Sr5La8Pr42Mn72O216
_chemical_formula_sum   'Ba17 Sr5 La8 Pr42 Mn72 O216'
_cell_volume   4401.36396525
_cell_formula_units_Z   1
loop_
 _symmetry_equiv_pos_site_id
 _symmetry_equiv_pos_as_xyz
  1  'x, y, z'
loop_
 _atom_site_type_symbol
 _atom_site_label
 _atom_site_symmetry_multiplicity
 _atom_site_fract_x
 _atom_site_fract_y
 _atom_site_fract_z
 _atom_site_occupancy
  Ba  Ba0  1  0.49962943  0.87418100  0.83165912  1
  Ba  Ba1  1  0.83270920  0.62534076  0.50108811  1
  Ba  Ba2  1  0.33197153  0.62341958  1.00114264  1
  Ba  Ba3  1  0.66800763  0.87540422  0.33034092  1
  Ba  Ba4  1  0.66843801  0.62339964  0.99730175  1
  Ba  Ba5  1  0.33200621  0.87391674  0.33712415  1
  Ba  Ba6  1  0.16818891  0.12587984  0.83913736  1
  Ba  Ba7  1  0.66629768  0.62438954  0.32999432  1
  Ba  Ba8  1  0.33495563  0.12739869  0.99938529  1
  Ba  Ba9  1  0.83480516  0.12668902  0.16611072  1
  Ba  Ba10  1  0.83425731  0.87611280  0.16637438  1
  Ba  Ba11  1  0.66427661  0.62421064  0.66155184  1
  Ba  Ba12  1  0.83505737  0.87658834  0.49665818  1
  Ba  Ba13  1  0.33194227  0.37654180  0.33897513  1
  Ba  Ba14  1  0.66792904  0.12578871  0.66463099  1
  Ba  Ba15  1  0.00287514  0.62507787  0.66540602  1
  Ba  Ba16  1  -0.00056021  0.12600216  0.99942321  1
  Sr  Sr17  1  0.16322340  0.37651577  0.49820442  1
  Sr  Sr18  1  0.33201994  0.62256417  0.33276492  1
  Sr  Sr19  1  0.83541118  0.12308049  0.49960152  1
  Sr  Sr20  1  0.50065540  0.37372191  0.49510907  1
  Sr  Sr21  1  -0.00281206  0.87588160  0.33398023  1
  La  La22  1  0.50226347  0.62601080  0.83337708  1
  La  La23  1  0.33717384  0.12788812  0.33246301  1
  La  La24  1  0.49804045  0.62510704  0.49514418  1
  La  La25  1  0.16628774  0.62531135  0.17362921  1
  La  La26  1  0.00241167  0.12066197  0.33295382  1
  La  La27  1  0.66615300  0.37484248  0.66374221  1
  La  La28  1  0.16891486  0.12478380  0.17081511  1
  La  La29  1  0.16436398  0.37610474  0.17084400  1
  Pr  Pr30  1  0.49554677  0.37774527  0.82834948  1
  Pr  Pr31  1  0.32767927  0.37412962  0.00526521  1
  Pr  Pr32  1  0.16386755  0.37392381  0.83505848  1
  Pr  Pr33  1  0.33991342  0.12543081  0.67019843  1
  Pr  Pr34  1  0.16001501  0.87353889  0.49842429  1
  Pr  Pr35  1  0.83204975  0.37470966  0.83099517  1
  Pr  Pr36  1  0.66520689  0.87527521  0.00398447  1
  Pr  Pr37  1  -0.00253108  0.37826546  0.66771291  1
  Pr  Pr38  1  0.16513571  0.62316910  0.83903083  1
  Pr  Pr39  1  -0.00485519  0.37253256  0.33892279  1
  Pr  Pr40  1  0.17309927  0.62473763  0.50265103  1
  Pr  Pr41  1  0.00341826  0.87716430  0.00557607  1
  Pr  Pr42  1  0.67376796  0.87654985  0.66371594  1
  Pr  Pr43  1  0.66257865  0.37207151  -0.00014171  1
  Pr  Pr44  1  0.49774027  0.38011969  0.16386844  1
  Pr  Pr45  1  0.33624461  0.62575063  0.66726058  1
  Pr  Pr46  1  0.50130964  0.12522868  0.49831637  1
  Pr  Pr47  1  0.82883774  0.37504077  0.16460869  1
  Pr  Pr48  1  -0.00421883  0.87225737  0.66784091  1
  Pr  Pr49  1  -0.00092101  0.37292502  0.00333101  1
  Pr  Pr50  1  0.16816938  0.87667458  0.83679839  1
  Pr  Pr51  1  -0.00148011  0.62671908  0.33515093  1
  Pr  Pr52  1  0.83409466  0.12744742  0.83679605  1
  Pr  Pr53  1  0.17426759  0.12581738  0.50614199  1
  Pr  Pr54  1  0.67082634  0.12296724  0.99389578  1
  Pr  Pr55  1  0.50493755  0.12513548  0.83762411  1
  Pr  Pr56  1  0.33098889  0.87563028  0.67027635  1
  Pr  Pr57  1  0.66958202  0.12345430  0.33233376  1
  Pr  Pr58  1  0.32939309  0.37461385  0.66523480  1
  Pr  Pr59  1  0.16536557  0.87365823  0.16830945  1
  Pr  Pr60  1  0.33242469  0.87829483  0.00688043  1
  Pr  Pr61  1  0.49275254  0.62628826  0.17049576  1
  Pr  Pr62  1  0.50376991  0.87556781  0.49756291  1
  Pr  Pr63  1  0.66697433  0.37214436  0.33409126  1
  Pr  Pr64  1  0.50086295  0.86990852  0.16089844  1
  Pr  Pr65  1  -0.00263025  0.62646608  0.99866467  1
  Pr  Pr66  1  0.83302393  0.62320583  0.83272388  1
  Pr  Pr67  1  0.83044908  0.37551807  0.50017738  1
  Pr  Pr68  1  0.00548353  0.12450106  0.66419981  1
  Pr  Pr69  1  0.50268327  0.12319049  0.16695821  1
  Pr  Pr70  1  0.83217769  0.62414535  0.17336994  1
  Pr  Pr71  1  0.83379846  0.87556415  0.83166272  1
  Mn  Mn72  1  0.00251648  0.00000032  0.16842806  1
  Mn  Mn73  1  0.00269483  0.00270701  0.50008187  1
  Mn  Mn74  1  0.00026647  -0.00223306  0.83296591  1
  Mn  Mn75  1  -0.00050462  0.49878152  0.16819716  1
  Mn  Mn76  1  0.00184766  0.49849880  0.50072870  1
  Mn  Mn77  1  -0.00042957  0.50042934  0.83553333  1
  Mn  Mn78  1  0.33355479  0.00108517  0.16974337  1
  Mn  Mn79  1  0.33420878  0.00058974  0.50327369  1
  Mn  Mn80  1  0.33424221  -0.00075035  0.83499672  1
  Mn  Mn81  1  0.33140694  0.49893334  0.16825642  1
  Mn  Mn82  1  0.33361210  0.50135042  0.50142989  1
  Mn  Mn83  1  0.33205727  0.49902608  0.83273912  1
  Mn  Mn84  1  0.66528323  0.00157082  0.16394496  1
  Mn  Mn85  1  0.66636748  0.00208752  0.49899054  1
  Mn  Mn86  1  0.66771413  -0.00140762  0.83193082  1
  Mn  Mn87  1  0.66549227  0.49837074  0.16329194  1
  Mn  Mn88  1  0.66368343  0.49744684  0.49731802  1
  Mn  Mn89  1  0.66706412  0.49826773  0.83045660  1
  Mn  Mn90  1  0.00182855  0.25110517  0.17072666  1
  Mn  Mn91  1  0.00176929  0.24902452  0.50139282  1
  Mn  Mn92  1  -0.00085478  0.25263791  0.83197839  1
  Mn  Mn93  1  0.00018997  0.74823507  0.16627684  1
  Mn  Mn94  1  0.00223541  0.74935453  0.49993880  1
  Mn  Mn95  1  -0.00054994  0.74950763  0.83598380  1
  Mn  Mn96  1  0.33355637  0.25063461  0.16827867  1
  Mn  Mn97  1  0.33384992  0.24924065  0.50167672  1
  Mn  Mn98  1  0.33473129  0.25373567  0.83438300  1
  Mn  Mn99  1  0.33184336  0.75062797  0.16869680  1
  Mn  Mn100  1  0.33394338  0.74980064  0.50344482  1
  Mn  Mn101  1  0.33127574  0.74924948  0.83406227  1
  Mn  Mn102  1  0.66382063  0.25065522  0.16567733  1
  Mn  Mn103  1  0.66682340  0.25018206  0.49827560  1
  Mn  Mn104  1  0.66578530  0.25191024  0.83216839  1
  Mn  Mn105  1  0.66674972  0.74917418  0.16222604  1
  Mn  Mn106  1  0.66504630  0.75043256  0.49798600  1
  Mn  Mn107  1  0.66854487  0.75089263  0.83080952  1
  Mn  Mn108  1  0.16518819  0.25301890  0.00265498  1
  Mn  Mn109  1  0.16583870  0.24902415  0.33810971  1
  Mn  Mn110  1  0.16758939  0.25165315  0.66827756  1
  Mn  Mn111  1  0.16589269  0.74844157  0.00236011  1
  Mn  Mn112  1  0.16408289  0.75032544  0.33557490  1
  Mn  Mn113  1  0.16842697  0.75117350  0.66922057  1
  Mn  Mn114  1  0.50077142  0.25247435  -0.00171584  1
  Mn  Mn115  1  0.50176494  0.24870107  0.33129480  1
  Mn  Mn116  1  0.49811991  0.25151707  0.66449451  1
  Mn  Mn117  1  0.49897020  0.74769684  -0.00253887  1
  Mn  Mn118  1  0.49840485  0.75101920  0.33171749  1
  Mn  Mn119  1  0.49894734  0.75081498  0.66383882  1
  Mn  Mn120  1  0.83256012  0.25228385  -0.00128686  1
  Mn  Mn121  1  0.83439701  0.24989501  0.33490825  1
  Mn  Mn122  1  0.83663225  0.24903090  0.66543237  1
  Mn  Mn123  1  0.83434870  0.74871385  -0.00228294  1
  Mn  Mn124  1  0.83421220  0.74936077  0.33312044  1
  Mn  Mn125  1  0.83345069  0.75154420  0.66660384  1
  Mn  Mn126  1  0.16715616  -0.00136427  0.00296854  1
  Mn  Mn127  1  0.16672762  -0.00032702  0.33786849  1
  Mn  Mn128  1  0.16808705  -0.00012420  0.66875235  1
  Mn  Mn129  1  0.16421664  0.49988636  0.00279631  1
  Mn  Mn130  1  0.16349432  0.50068839  0.33610295  1
  Mn  Mn131  1  0.16846702  0.49822610  0.66814575  1
  Mn  Mn132  1  0.49965594  0.00063687  -0.00036371  1
  Mn  Mn133  1  0.50028499  0.00029986  0.33239548  1
  Mn  Mn134  1  0.49888227  0.00075845  0.66481627  1
  Mn  Mn135  1  0.49948288  0.49954431  -0.00371444  1
  Mn  Mn136  1  0.49961750  0.49925779  0.33150643  1
  Mn  Mn137  1  0.49769408  0.49738896  0.66287485  1
  Mn  Mn138  1  0.83363526  0.00007714  -0.00418154  1
  Mn  Mn139  1  0.83434209  0.00178106  0.33406108  1
  Mn  Mn140  1  0.83661534  0.00129382  0.66742054  1
  Mn  Mn141  1  0.83448813  0.49819062  0.00018529  1
  Mn  Mn142  1  0.83419344  0.49733210  0.33222516  1
  Mn  Mn143  1  0.83333957  0.49763878  0.66566501  1
  O  O144  1  0.16661379  0.12720935  0.02268307  1
  O  O145  1  0.16180775  0.12318786  0.36090685  1
  O  O146  1  0.16110937  0.12537476  0.68583104  1
  O  O147  1  0.15909578  0.62377420  0.02765174  1
  O  O148  1  0.15915947  0.62571319  0.35683766  1
  O  O149  1  0.17327487  0.62255011  0.69693237  1
  O  O150  1  0.50703141  0.12804202  0.02205656  1
  O  O151  1  0.50268265  0.12461348  0.35409222  1
  O  O152  1  0.49470920  0.12755410  0.69512156  1
  O  O153  1  0.50094090  0.62090572  0.02425805  1
  O  O154  1  0.49800595  0.62494633  0.34843056  1
  O  O155  1  0.49558293  0.62073127  0.69111109  1
  O  O156  1  0.82689064  0.12761645  0.00961944  1
  O  O157  1  0.82937312  0.13005049  0.34807367  1
  O  O158  1  0.84164092  0.12599965  0.69400752  1
  O  O159  1  0.83902378  0.61772628  0.02901421  1
  O  O160  1  0.83716534  0.61962575  0.34152020  1
  O  O161  1  0.83146282  0.62644168  0.68799739  1
  O  O162  1  0.15973192  0.37550088  0.31421269  1
  O  O163  1  0.16994883  0.37469516  0.64561320  1
  O  O164  1  0.16363419  0.37869307  0.98051916  1
  O  O165  1  0.16400580  0.87537196  0.31169780  1
  O  O166  1  0.17415184  0.87838054  0.64088917  1
  O  O167  1  0.16402844  0.86973692  0.98165101  1
  O  O168  1  0.50656446  0.37180847  0.30772625  1
  O  O169  1  0.49091434  0.37361216  0.64320988  1
  O  O170  1  0.50225028  0.37636780  0.97182279  1
  O  O171  1  0.49878553  0.87845271  0.30674191  1
  O  O172  1  0.48770293  0.87873428  0.64120725  1
  O  O173  1  0.49437807  0.87477639  0.98952893  1
  O  O174  1  0.84011900  0.37333811  0.30863051  1
  O  O175  1  0.84130247  0.37031089  0.64452545  1
  O  O176  1  0.83905706  0.37619665  0.97456345  1
  O  O177  1  0.83842491  0.87541270  0.32589256  1
  O  O178  1  0.83869490  0.87759982  0.65483791  1
  O  O179  1  0.83394747  0.87742985  0.97599808  1
  O  O180  1  0.00195199  0.37676973  0.19604420  1
  O  O181  1  -0.00008695  0.37169341  0.52421225  1
  O  O182  1  -0.00208816  0.37930250  0.85890391  1
  O  O183  1  0.00871116  0.87327678  0.18397539  1
  O  O184  1  0.00826169  0.87872825  0.52353384  1
  O  O185  1  -0.00691085  0.86824184  0.86269141  1
  O  O186  1  0.33674942  0.37401126  0.18119821  1
  O  O187  1  0.33464601  0.37630260  0.52193611  1
  O  O188  1  0.34381725  0.37798809  0.86091085  1
  O  O189  1  0.33720748  0.87590457  0.17980931  1
  O  O190  1  0.33905494  0.87660558  0.52790144  1
  O  O191  1  0.33005666  0.86913876  0.86147739  1
  O  O192  1  0.66170458  0.37332238  0.19033338  1
  O  O193  1  0.66591401  0.37181664  0.51840592  1
  O  O194  1  0.66673939  0.37428326  0.85675626  1
  O  O195  1  0.65850256  0.87617638  0.17242700  1
  O  O196  1  0.65754650  0.87853558  0.51790341  1
  O  O197  1  0.67438861  0.87660235  0.85909280  1
  O  O198  1  0.00904910  0.12614798  0.15640602  1
  O  O199  1  0.01131537  0.12722230  0.47827903  1
  O  O200  1  -0.00457798  0.12916665  0.80872146  1
  O  O201  1  -0.00186026  0.62070081  0.14014135  1
  O  O202  1  0.00896026  0.62202953  0.48094193  1
  O  O203  1  0.00638260  0.62425651  0.81992929  1
  O  O204  1  0.32858956  0.12630414  0.15477186  1
  O  O205  1  0.32758055  0.12262697  0.47759609  1
  O  O206  1  0.33636473  0.13040792  0.81441113  1
  O  O207  1  0.33052620  0.62449237  0.15677692  1
  O  O208  1  0.32841091  0.62607667  0.48213754  1
  O  O209  1  0.32309979  0.62282409  0.80998169  1
  O  O210  1  0.65904025  0.12914223  0.13668386  1
  O  O211  1  0.66006812  0.12815967  0.47820112  1
  O  O212  1  0.66296772  0.12614158  0.82035124  1
  O  O213  1  0.67560997  0.62142439  0.15309745  1
  O  O214  1  0.65824455  0.62065189  0.48887140  1
  O  O215  1  0.67171809  0.62318726  0.81737075  1
  O  O216  1  0.09094920  0.01893040  0.25069335  1
  O  O217  1  0.09011976  0.02060141  0.58154631  1
  O  O218  1  0.08242123  0.00149363  0.91696882  1
  O  O219  1  0.08245049  0.52278337  0.24737759  1
  O  O220  1  0.09441315  0.51341606  0.57826225  1
  O  O221  1  0.08289063  0.51936516  0.91975131  1
  O  O222  1  0.42014554  0.02403314  0.24856435  1
  O  O223  1  0.41799696  0.02924640  0.58179247  1
  O  O224  1  0.42597242  0.01800453  0.90936132  1
  O  O225  1  0.41781480  0.51361848  0.24648843  1
  O  O226  1  0.41480090  0.52458300  0.58483088  1
  O  O227  1  0.42112008  0.51886992  0.90669423  1
  O  O228  1  0.74521556  0.01579141  0.24705646  1
  O  O229  1  0.75165949  0.00776822  0.58474667  1
  O  O230  1  0.75110241  0.02123189  0.91136139  1
  O  O231  1  0.75852863  0.50377142  0.24024174  1
  O  O232  1  0.74922319  0.49773872  0.58074481  1
  O  O233  1  0.76166861  0.51131612  0.90902074  1
  O  O234  1  0.25165870  0.23096376  0.26022044  1
  O  O235  1  0.25614162  0.23052744  0.59459110  1
  O  O236  1  0.25489532  0.25263636  0.92171289  1
  O  O237  1  0.24169251  0.73719269  0.24758168  1
  O  O238  1  0.25582713  0.72911772  0.59187617  1
  O  O239  1  0.23947966  0.73235789  0.91236714  1
  O  O240  1  0.58253905  0.22408368  0.24645944  1
  O  O241  1  0.57852441  0.23758881  0.57777244  1
  O  O242  1  0.58793037  0.23227510  0.92208483  1
  O  O243  1  0.57460920  0.73711268  0.23513607  1
  O  O244  1  0.57277509  0.74188682  0.57321949  1
  O  O245  1  0.58178125  0.73662151  0.90782894  1
  O  O246  1  0.92714795  0.23656369  0.26100989  1
  O  O247  1  0.92744643  0.22806350  0.58958487  1
  O  O248  1  0.91125438  0.23873195  0.90735045  1
  O  O249  1  0.91706171  0.72801634  0.24417730  1
  O  O250  1  0.92210443  0.74596549  0.58645281  1
  O  O251  1  0.91552847  0.72183582  0.91511080  1
  O  O252  1  0.07903436  0.47504850  0.08607688  1
  O  O253  1  0.07396294  0.48179146  0.40945229  1
  O  O254  1  0.08252180  0.47703700  0.75130054  1
  O  O255  1  0.08585679  0.97853901  0.08601485  1
  O  O256  1  0.08324521  0.98020466  0.41680373  1
  O  O257  1  0.08216661  0.97416541  0.74792030  1
  O  O258  1  0.41735143  0.47902593  0.07872034  1
  O  O259  1  0.42037174  0.49351361  0.42123863  1
  O  O260  1  0.41212928  0.47896937  0.74599655  1
  O  O261  1  0.41434929  0.98571271  0.08036468  1
  O  O262  1  0.41848206  0.98957765  0.42107810  1
  O  O263  1  0.40736818  0.98715715  0.74052122  1
  O  O264  1  0.74778627  0.47155257  0.07804131  1
  O  O265  1  0.74973449  0.47556136  0.41234717  1
  O  O266  1  0.74816388  0.47328928  0.74722218  1
  O  O267  1  0.73990657  0.98862966  0.07073335  1
  O  O268  1  0.74599160  1.00067064  0.41469590  1
  O  O269  1  0.75317697  0.98079078  0.75150366  1
  O  O270  1  0.24468757  0.27192240  0.08994711  1
  O  O271  1  0.24135107  0.25845077  0.42651029  1
  O  O272  1  0.24798757  0.27561228  0.75637547  1
  O  O273  1  0.25121648  0.77146962  0.08203597  1
  O  O274  1  0.24381674  0.76444476  0.43094436  1
  O  O275  1  0.24782764  0.77610190  0.75382363  1
  O  O276  1  0.57866666  0.27729199  0.08394822  1
  O  O277  1  0.58949850  0.26494475  0.40642544  1
  O  O278  1  0.57864397  0.27280854  0.75051178  1
  O  O279  1  0.58424047  0.76706790  0.07720425  1
  O  O280  1  0.57874076  0.76423343  0.41543730  1
  O  O281  1  0.58812160  0.76833485  0.73845893  1
  O  O282  1  0.91522003  0.27183487  0.08540712  1
  O  O283  1  0.91354969  0.26935614  0.42553393  1
  O  O284  1  0.91781833  0.27695293  0.74986714  1
  O  O285  1  0.92688945  0.76353229  0.07405721  1
  O  O286  1  0.92415988  0.75179461  0.41144934  1
  O  O287  1  0.91555396  0.76792198  0.75423140  1
  O  O288  1  0.24730303  0.47939992  0.08419460  1
  O  O289  1  0.24210887  0.49344736  0.42547760  1
  O  O290  1  0.24909091  0.47110067  0.75317722  1
  O  O291  1  0.24618453  0.97928341  0.09085398  1
  O  O292  1  0.24179184  0.98439062  0.43113842  1
  O  O293  1  0.24701655  0.97784138  0.75587764  1
  O  O294  1  0.58346384  0.47519909  0.07704780  1
  O  O295  1  0.58698455  0.48040509  0.40741794  1
  O  O296  1  0.58048191  0.47556245  0.74362738  1
  O  O297  1  0.57585692  0.98245273  0.08611124  1
  O  O298  1  0.57744556  0.98771739  0.41752978  1
  O  O299  1  0.58743084  0.98311781  0.74387064  1
  O  O300  1  0.91454223  0.47213351  0.08752497  1
  O  O301  1  0.91365136  0.47768469  0.41845462  1
  O  O302  1  0.91295878  0.48196731  0.75626013  1
  O  O303  1  0.92087336  0.98643519  0.07429036  1
  O  O304  1  0.92213963  1.00090888  0.41775593  1
  O  O305  1  0.92063605  0.97696619  0.74943925  1
  O  O306  1  0.08072878  0.27470177  0.08548875  1
  O  O307  1  0.07434108  0.26822247  0.41079082  1
  O  O308  1  0.08058316  0.27505721  0.74761030  1
  O  O309  1  0.08842240  0.76857985  0.08851343  1
  O  O310  1  0.08368104  0.76896993  0.41729087  1
  O  O311  1  0.08295220  0.77493217  0.75266628  1
  O  O312  1  0.41534075  0.27205626  0.07519795  1
  O  O313  1  0.42020106  0.25404746  0.41596955  1
  O  O314  1  0.41003611  0.27328274  0.74440490  1
  O  O315  1  0.41707323  0.76399802  0.08626871  1
  O  O316  1  0.42020123  0.76359902  0.42641335  1
  O  O317  1  0.40892213  0.76091067  0.74287784  1
  O  O318  1  0.74605155  0.27499145  0.08249557  1
  O  O319  1  0.75072539  0.27348144  0.41492125  1
  O  O320  1  0.75075071  0.27084575  0.74877815  1
  O  O321  1  0.74693108  0.76598820  0.07335493  1
  O  O322  1  0.74828316  0.75406834  0.41750900  1
  O  O323  1  0.75103587  0.77505655  0.74969835  1
  O  O324  1  0.25215250  0.02034301  0.25980721  1
  O  O325  1  0.25667396  0.02366807  0.59405992  1
  O  O326  1  0.25344205  0.00085372  0.92448944  1
  O  O327  1  0.24218799  0.51284372  0.25083854  1
  O  O328  1  0.25539205  0.52059344  0.59133488  1
  O  O329  1  0.24372193  0.51055320  0.91151820  1
  O  O330  1  0.58486335  0.02526251  0.24841380  1
  O  O331  1  0.57647456  0.01466399  0.57739934  1
  O  O332  1  0.58767104  0.01634027  0.92063836  1
  O  O333  1  0.57487661  0.51357993  0.23551228  1
  O  O334  1  0.57477486  0.50729117  0.57581957  1
  O  O335  1  0.57891773  0.51261459  0.90768090  1
  O  O336  1  0.92394791  0.01282313  0.25316914  1
  O  O337  1  0.92657110  0.01929252  0.58894573  1
  O  O338  1  0.90919321  0.01556582  0.90589900  1
  O  O339  1  0.92121586  0.51997108  0.25068895  1
  O  O340  1  0.92232717  0.50438345  0.58608774  1
  O  O341  1  0.91975973  0.52216910  0.92142942  1
  O  O342  1  0.09270690  0.23203073  0.24844186  1
  O  O343  1  0.08872738  0.23025092  0.58078972  1
  O  O344  1  0.08205737  0.24853517  0.91590444  1
  O  O345  1  0.07846928  0.72512801  0.25025529  1
  O  O346  1  0.09400837  0.73784877  0.57863775  1
  O  O347  1  0.08048284  0.72966717  0.92300199  1
  O  O348  1  0.42180172  0.22930519  0.24608327  1
  O  O349  1  0.41771467  0.22368436  0.58293103  1
  O  O350  1  0.43007852  0.23681954  0.90423795  1
  O  O351  1  0.41438892  0.73319655  0.24965152  1
  O  O352  1  0.41605282  0.72440782  0.58412342  1
  O  O353  1  0.41819131  0.72896668  0.90985518  1
  O  O354  1  0.74322976  0.23981755  0.25310671  1
  O  O355  1  0.75728189  0.24182787  0.57917745  1
  O  O356  1  0.74912832  0.23551059  0.91481209  1
  O  O357  1  0.75375768  0.73920555  0.24137669  1
  O  O358  1  0.74477014  0.75077613  0.58712447  1
  O  O359  1  0.75907820  0.73452156  0.90687287  1
