# generated using pymatgen
data_Ba17Sr5La8Pr42Mn72O216
_symmetry_space_group_name_H-M   'P 1'
_cell_length_a   16.67482104
_cell_length_b   15.70418094
_cell_length_c   16.81578188
_cell_angle_alpha   90.01069709
_cell_angle_beta   89.96009205
_cell_angle_gamma   89.99648736
_symmetry_Int_Tables_number   1
_chemical_formula_structural   Ba17Sr5La8Pr42Mn72O216
_chemical_formula_sum   'Ba17 Sr5 La8 Pr42 Mn72 O216'
_cell_volume   4403.45359361
_cell_formula_units_Z   1
loop_
 _symmetry_equiv_pos_site_id
 _symmetry_equiv_pos_as_xyz
  1  'x, y, z'
loop_
 _atom_site_type_symbol
 _atom_site_label
 _atom_site_symmetry_multiplicity
 _atom_site_fract_x
 _atom_site_fract_y
 _atom_site_fract_z
 _atom_site_occupancy
  Ba  Ba0  1  0.66537331  0.37371901  0.33531544  1
  Ba  Ba1  1  0.49812997  0.87432939  0.50125787  1
  Ba  Ba2  1  0.00022468  0.12649681  0.66369684  1
  Ba  Ba3  1  0.82968335  0.37553106  0.16500920  1
  Ba  Ba4  1  0.50048942  0.62393475  0.16672640  1
  Ba  Ba5  1  0.83073875  0.87459556  0.16599194  1
  Ba  Ba6  1  0.83335739  0.62392100  0.50110770  1
  Ba  Ba7  1  0.66567032  0.12647458  0.99724898  1
  Ba  Ba8  1  0.66619590  0.87825528  0.00012462  1
  Ba  Ba9  1  0.00147379  0.62441231  0.99784926  1
  Ba  Ba10  1  0.33050088  0.87476608  0.33599018  1
  Ba  Ba11  1  0.16501922  0.87692646  0.16669435  1
  Ba  Ba12  1  0.33752453  0.62401382  1.00198627  1
  Ba  Ba13  1  0.66624609  0.87550877  0.33586887  1
  Ba  Ba14  1  0.83282177  0.87503216  0.49891807  1
  Ba  Ba15  1  0.33265629  0.87559706  0.66718780  1
  Ba  Ba16  1  0.16432507  0.37283553  0.16488379  1
  Sr  Sr17  1  0.67146032  0.62554501  0.66817333  1
  Sr  Sr18  1  0.83803753  0.12392439  0.83628433  1
  Sr  Sr19  1  0.66580308  0.37213954  0.00647660  1
  Sr  Sr20  1  0.83248000  0.62507868  0.16598258  1
  Sr  Sr21  1  0.83127419  0.87745037  0.83177391  1
  La  La22  1  0.16325753  0.37858154  0.83416178  1
  La  La23  1  -0.00469526  0.37392919  0.66519616  1
  La  La24  1  -0.00112931  0.62637898  0.32573488  1
  La  La25  1  0.50169842  0.12362609  0.50140273  1
  La  La26  1  0.16891216  0.12501276  0.83183886  1
  La  La27  1  0.66793929  0.12206775  0.33335767  1
  La  La28  1  0.34209234  0.62498749  0.66796468  1
  La  La29  1  0.16278744  0.87657189  0.49548586  1
  Pr  Pr30  1  0.50766339  0.62607060  0.49987117  1
  Pr  Pr31  1  0.33783420  0.12302134  0.33272158  1
  Pr  Pr32  1  0.82795026  0.12471149  0.16335070  1
  Pr  Pr33  1  0.82658257  0.12676502  0.50398843  1
  Pr  Pr34  1  0.00129883  0.12476313  0.99393197  1
  Pr  Pr35  1  -0.00734022  0.37761151  0.32988607  1
  Pr  Pr36  1  0.16712710  0.12510413  0.16880853  1
  Pr  Pr37  1  0.67443601  0.62391292  1.00122843  1
  Pr  Pr38  1  0.17391993  0.62324170  0.49973290  1
  Pr  Pr39  1  0.50162172  0.87418921  0.82988871  1
  Pr  Pr40  1  0.50399860  0.12541409  0.16848172  1
  Pr  Pr41  1  -0.00584004  0.87482076  0.66678073  1
  Pr  Pr42  1  -0.00068811  0.12419015  0.32922615  1
  Pr  Pr43  1  0.51155828  0.62647240  0.84092718  1
  Pr  Pr44  1  0.16218017  0.87101820  0.83006138  1
  Pr  Pr45  1  0.67276747  0.62862842  0.33079144  1
  Pr  Pr46  1  0.32927349  0.37833293  0.33630977  1
  Pr  Pr47  1  0.66767900  0.87005405  0.67192337  1
  Pr  Pr48  1  -0.00423495  0.87236294  0.33368224  1
  Pr  Pr49  1  -0.00795445  0.87683610  0.00015885  1
  Pr  Pr50  1  0.83000848  0.37270896  0.83567848  1
  Pr  Pr51  1  0.49858650  0.37401817  0.16350413  1
  Pr  Pr52  1  0.34047844  0.62806028  0.32853520  1
  Pr  Pr53  1  0.66922414  0.12256352  0.66897614  1
  Pr  Pr54  1  0.33064451  0.12622948  1.00151745  1
  Pr  Pr55  1  0.33119464  0.37594562  0.00637737  1
  Pr  Pr56  1  0.17747896  0.62543937  0.83648126  1
  Pr  Pr57  1  0.83764960  0.62601887  0.83626615  1
  Pr  Pr58  1  0.83520477  0.37380997  0.49545440  1
  Pr  Pr59  1  0.17006957  0.62446395  0.17072811  1
  Pr  Pr60  1  0.50096875  0.37551286  0.83479437  1
  Pr  Pr61  1  0.49569932  0.37564631  0.49817373  1
  Pr  Pr62  1  0.33715173  0.12581853  0.66406007  1
  Pr  Pr63  1  -0.00828387  0.37314721  0.00274926  1
  Pr  Pr64  1  0.00544298  0.62497592  0.66217199  1
  Pr  Pr65  1  0.15835021  0.37398334  0.49536021  1
  Pr  Pr66  1  0.49709331  0.87575714  0.16537302  1
  Pr  Pr67  1  0.33109917  0.37441078  0.67101657  1
  Pr  Pr68  1  0.49800175  0.12309983  0.83730000  1
  Pr  Pr69  1  0.17062301  0.12533419  0.50356904  1
  Pr  Pr70  1  0.66811610  0.37992370  0.66981517  1
  Pr  Pr71  1  0.33099387  0.87407662  0.00430626  1
  Mn  Mn72  1  -0.00051002  0.00237759  0.16326562  1
  Mn  Mn73  1  0.00096219  0.00180820  0.49713746  1
  Mn  Mn74  1  0.00160530  -0.00009380  0.83123155  1
  Mn  Mn75  1  0.00059253  0.49977159  0.16410635  1
  Mn  Mn76  1  0.00189399  0.50070686  0.49787905  1
  Mn  Mn77  1  0.00025124  0.49810583  0.82940441  1
  Mn  Mn78  1  0.33335362  0.00145917  0.16597475  1
  Mn  Mn79  1  0.33184868  0.00165800  0.50077069  1
  Mn  Mn80  1  0.33241366  0.00142245  0.83561304  1
  Mn  Mn81  1  0.33245539  0.49852146  0.16956836  1
  Mn  Mn82  1  0.33316976  0.49987340  0.50224920  1
  Mn  Mn83  1  0.33613687  0.49704432  0.83410426  1
  Mn  Mn84  1  0.66438451  0.00157206  0.16713343  1
  Mn  Mn85  1  0.66578749  0.00257618  0.50228267  1
  Mn  Mn86  1  0.66656811  0.00069750  0.83175344  1
  Mn  Mn87  1  0.66498013  0.49969260  0.16689740  1
  Mn  Mn88  1  0.66534291  0.49864917  0.50355144  1
  Mn  Mn89  1  0.66863424  0.49766264  0.83583301  1
  Mn  Mn90  1  -0.00045998  0.24712004  0.16318061  1
  Mn  Mn91  1  0.00059596  0.25009027  0.49582393  1
  Mn  Mn92  1  0.00158278  0.25132438  0.83227185  1
  Mn  Mn93  1  0.00076121  0.75055259  0.16376258  1
  Mn  Mn94  1  0.00227562  0.74767817  0.49881627  1
  Mn  Mn95  1  0.00047972  0.74969016  0.82975280  1
  Mn  Mn96  1  0.33301472  0.24875844  0.16835706  1
  Mn  Mn97  1  0.33277928  0.25242432  0.50189573  1
  Mn  Mn98  1  0.33368229  0.25108440  0.83482851  1
  Mn  Mn99  1  0.33270727  0.75124330  0.16714256  1
  Mn  Mn100  1  0.33212260  0.74622816  0.50033226  1
  Mn  Mn101  1  0.33561610  0.75067635  0.83419477  1
  Mn  Mn102  1  0.66481270  0.24894239  0.16782540  1
  Mn  Mn103  1  0.66393340  0.25057006  0.50437764  1
  Mn  Mn104  1  0.66604210  0.25274962  0.83312644  1
  Mn  Mn105  1  0.66516444  0.74937882  0.16603536  1
  Mn  Mn106  1  0.66687963  0.74807970  0.50244443  1
  Mn  Mn107  1  0.66911755  0.74878593  0.83430901  1
  Mn  Mn108  1  0.16629359  0.24882076  -0.00177636  1
  Mn  Mn109  1  0.16562047  0.24999740  0.33417863  1
  Mn  Mn110  1  0.16850152  0.25275630  0.66616604  1
  Mn  Mn111  1  0.16743865  0.75037481  -0.00186127  1
  Mn  Mn112  1  0.16449249  0.74886586  0.33526733  1
  Mn  Mn113  1  0.16680009  0.74783696  0.66525203  1
  Mn  Mn114  1  0.49648485  0.24997717  0.00012185  1
  Mn  Mn115  1  0.49717664  0.25100135  0.33469583  1
  Mn  Mn116  1  0.50125753  0.25236867  0.66808046  1
  Mn  Mn117  1  0.50189271  0.75106919  -0.00045595  1
  Mn  Mn118  1  0.50006455  0.74924506  0.33478988  1
  Mn  Mn119  1  0.50193755  0.74647487  0.66908156  1
  Mn  Mn120  1  0.83308552  0.24826259  -0.00185356  1
  Mn  Mn121  1  0.83446723  0.24833643  0.33426884  1
  Mn  Mn122  1  0.83173907  0.25115321  0.66677641  1
  Mn  Mn123  1  0.83392555  0.74960682  -0.00140781  1
  Mn  Mn124  1  0.83392741  0.74915691  0.33248435  1
  Mn  Mn125  1  0.83463688  0.75003827  0.66903101  1
  Mn  Mn126  1  0.16657182  0.00090357  -0.00264946  1
  Mn  Mn127  1  0.16431805  0.00294703  0.33493723  1
  Mn  Mn128  1  0.16700840  -0.00061149  0.66615682  1
  Mn  Mn129  1  0.16689688  0.49983622  -0.00113487  1
  Mn  Mn130  1  0.16509905  0.49856027  0.33441334  1
  Mn  Mn131  1  0.16833414  0.49891658  0.66560171  1
  Mn  Mn132  1  0.49586709  0.00083578  -0.00043808  1
  Mn  Mn133  1  0.49886820  0.00228519  0.33460414  1
  Mn  Mn134  1  0.50133451  0.00168397  0.66957344  1
  Mn  Mn135  1  0.50244818  0.49847411  -0.00032175  1
  Mn  Mn136  1  0.49882765  0.49756718  0.33510912  1
  Mn  Mn137  1  0.50131724  0.49931575  0.66745149  1
  Mn  Mn138  1  0.83404719  0.00096767  -0.00219349  1
  Mn  Mn139  1  0.83538694  0.00363859  0.33407376  1
  Mn  Mn140  1  0.83306202  0.00154472  0.66734898  1
  Mn  Mn141  1  0.83252505  0.50025645  -0.00096392  1
  Mn  Mn142  1  0.83256264  0.49951206  0.33299515  1
  Mn  Mn143  1  0.83481823  0.49856257  0.66793707  1
  O  O144  1  0.16160268  0.12554386  0.02425450  1
  O  O145  1  0.15616899  0.12881002  0.36058735  1
  O  O146  1  0.17075820  0.13003490  0.68922145  1
  O  O147  1  0.16655449  0.62444732  0.02283179  1
  O  O148  1  0.15536036  0.62075414  0.35713553  1
  O  O149  1  0.15812257  0.62170605  0.69419375  1
  O  O150  1  0.48949339  0.12617579  0.02410949  1
  O  O151  1  0.49097910  0.12992889  0.35702611  1
  O  O152  1  0.49410302  0.13185136  0.69529081  1
  O  O153  1  0.50808837  0.62328409  0.00915102  1
  O  O154  1  0.49088012  0.61771399  0.35473251  1
  O  O155  1  0.49479616  0.62086441  0.69626202  1
  O  O156  1  0.84481426  0.12511583  0.01509815  1
  O  O157  1  0.84120147  0.12831663  0.36101717  1
  O  O158  1  0.82745097  0.12819609  0.68702475  1
  O  O159  1  0.83026984  0.62404357  0.01193345  1
  O  O160  1  0.83361493  0.62177971  0.34213604  1
  O  O161  1  0.84080566  0.62151310  0.69206457  1
  O  O162  1  0.17783607  0.37414707  0.31941763  1
  O  O163  1  0.17699752  0.37650695  0.63880200  1
  O  O164  1  0.17546653  0.37191767  0.97709783  1
  O  O165  1  0.16355829  0.87689759  0.32348499  1
  O  O166  1  0.16407817  0.86914455  0.63938630  1
  O  O167  1  0.17617555  0.87890725  0.97296202  1
  O  O168  1  0.49391054  0.37217267  0.30896118  1
  O  O169  1  0.50279285  0.37487231  0.63951246  1
  O  O170  1  0.49286885  0.37313648  0.97827896  1
  O  O171  1  0.50027701  0.88074991  0.31317256  1
  O  O172  1  0.51058044  0.87112824  0.65894882  1
  O  O173  1  0.49200955  0.87830697  0.97462720  1
  O  O174  1  0.83842888  0.37251931  0.32132078  1
  O  O175  1  0.83298063  0.37368053  0.63955308  1
  O  O176  1  0.83641988  0.37463735  0.98054712  1
  O  O177  1  0.84073002  0.87792380  0.32349460  1
  O  O178  1  0.83475595  0.87732350  0.65532116  1
  O  O179  1  0.83893040  0.87539588  0.98386623  1
  O  O180  1  -0.00136906  0.37177069  0.18592499  1
  O  O181  1  0.00002854  0.37573077  0.52135918  1
  O  O182  1  0.00761049  0.37571982  0.85869520  1
  O  O183  1  -0.00059862  0.88066349  0.18904607  1
  O  O184  1  0.00638893  0.87403523  0.52197863  1
  O  O185  1  0.01118523  0.87554524  0.85584899  1
  O  O186  1  0.33605538  0.37106342  0.19220701  1
  O  O187  1  0.33643144  0.37606467  0.52931754  1
  O  O188  1  0.33937023  0.37287732  0.86304407  1
  O  O189  1  0.33714334  0.87817445  0.17895310  1
  O  O190  1  0.32371345  0.87231606  0.51073103  1
  O  O191  1  0.33475936  0.88095108  0.85966996  1
  O  O192  1  0.65876586  0.37099833  0.17791789  1
  O  O193  1  0.65776932  0.37287307  0.52652579  1
  O  O194  1  0.66858444  0.37640484  0.85802662  1
  O  O195  1  0.65831018  0.88016918  0.17800769  1
  O  O196  1  0.66452944  0.88028455  0.52409342  1
  O  O197  1  0.65912714  0.87511049  0.84107413  1
  O  O198  1  0.00885050  0.12454966  0.13768937  1
  O  O199  1  0.00745951  0.12936723  0.47432018  1
  O  O200  1  0.00473337  0.12574215  0.81923728  1
  O  O201  1  0.00713048  0.62291365  0.15652422  1
  O  O202  1  0.00872136  0.62044727  0.47340017  1
  O  O203  1  -0.00831126  0.62167370  0.80491250  1
  O  O204  1  0.33584005  0.12618192  0.14453104  1
  O  O205  1  0.33306388  0.13206995  0.47827097  1
  O  O206  1  0.33432157  0.12842175  0.80554777  1
  O  O207  1  0.32726415  0.62401486  0.16021045  1
  O  O208  1  0.32779253  0.61913944  0.47374433  1
  O  O209  1  0.32975850  0.61872018  0.81144849  1
  O  O210  1  0.66126201  0.12608026  0.15670507  1
  O  O211  1  0.66797314  0.13005537  0.48034651  1
  O  O212  1  0.65832188  0.12952277  0.81178052  1
  O  O213  1  0.66524824  0.62345853  0.14651065  1
  O  O214  1  0.66045061  0.61797958  0.47840863  1
  O  O215  1  0.66451056  0.61887585  0.81598101  1
  O  O216  1  0.08424297  0.02472197  0.24668744  1
  O  O217  1  0.09127438  0.01565838  0.57237044  1
  O  O218  1  0.09009673  0.02009625  0.90968985  1
  O  O219  1  0.08823735  0.51502625  0.24636997  1
  O  O220  1  0.09268832  0.51542493  0.57213687  1
  O  O221  1  0.09190859  0.51543999  0.89845294  1
  O  O222  1  0.41956366  0.02271902  0.24687562  1
  O  O223  1  0.41810318  0.02031980  0.58736157  1
  O  O224  1  0.41159426  0.02687923  0.91937900  1
  O  O225  1  0.41114121  0.50878353  0.25674053  1
  O  O226  1  0.42014117  0.52174865  0.57677786  1
  O  O227  1  0.42911083  0.51282249  0.90467734  1
  O  O228  1  0.75259347  0.02353819  0.25380206  1
  O  O229  1  0.74845734  0.02366615  0.58423906  1
  O  O230  1  0.75309473  0.01086146  0.90941970  1
  O  O231  1  0.74785064  0.51542633  0.25033783  1
  O  O232  1  0.74811468  0.50762410  0.59012633  1
  O  O233  1  0.75318269  0.52061589  0.91103241  1
  O  O234  1  0.25132801  0.22389202  0.25421966  1
  O  O235  1  0.25644485  0.22843717  0.58818002  1
  O  O236  1  0.25008133  0.22573418  0.91823838  1
  O  O237  1  0.24895628  0.72835556  0.25802586  1
  O  O238  1  0.25527240  0.72150890  0.59071063  1
  O  O239  1  0.25381268  0.73601421  0.91702444  1
  O  O240  1  0.58098339  0.22923143  0.25641482  1
  O  O241  1  0.58310509  0.22368520  0.58920850  1
  O  O242  1  0.57286961  0.23940788  0.90958328  1
  O  O243  1  0.58907920  0.73287985  0.25849813  1
  O  O244  1  0.58384372  0.72906347  0.58856149  1
  O  O245  1  0.59264101  0.73182947  0.92236444  1
  O  O246  1  0.91929319  0.22495749  0.24692636  1
  O  O247  1  0.91040006  0.23825856  0.57410506  1
  O  O248  1  0.92353308  0.23937170  0.91980016  1
  O  O249  1  0.92173392  0.73844419  0.25387210  1
  O  O250  1  0.92943435  0.73565521  0.59092489  1
  O  O251  1  0.91738880  0.73814124  0.91030822  1
  O  O252  1  0.07745243  0.48046280  0.07206954  1
  O  O253  1  0.07791035  0.47241247  0.40961042  1
  O  O254  1  0.07788236  0.47538455  0.73864376  1
  O  O255  1  0.07758234  0.98292537  0.07033821  1
  O  O256  1  0.07914755  0.97962755  0.41168555  1
  O  O257  1  0.08236678  0.97614326  0.74414267  1
  O  O258  1  0.41521923  0.47824353  0.08309697  1
  O  O259  1  0.40947921  0.47437076  0.41647380  1
  O  O260  1  0.41314990  0.47398109  0.74445857  1
  O  O261  1  0.41349844  0.97876329  0.07985666  1
  O  O262  1  0.41231677  0.99766151  0.41515449  1
  O  O263  1  0.42270368  0.98731468  0.76078188  1
  O  O264  1  0.74284142  0.49290250  0.07500045  1
  O  O265  1  0.75062907  0.48266313  0.42460899  1
  O  O266  1  0.74909103  0.47597817  0.75541829  1
  O  O267  1  0.75155227  1.00224014  0.08603082  1
  O  O268  1  0.75093074  1.00163258  0.41955415  1
  O  O269  1  0.74293163  0.98629479  0.74340105  1
  O  O270  1  0.25316543  0.25928919  0.07948799  1
  O  O271  1  0.24641979  0.26974371  0.42640285  1
  O  O272  1  0.25188533  0.27493158  0.75567545  1
  O  O273  1  0.25023334  0.76359171  0.08284291  1
  O  O274  1  0.23676495  0.75522416  0.42817766  1
  O  O275  1  0.23909373  0.76196409  0.75688483  1
  O  O276  1  0.57208707  0.26193066  0.08695661  1
  O  O277  1  0.57140190  0.26276427  0.42734549  1
  O  O278  1  0.58392758  0.27774478  0.74803460  1
  O  O279  1  0.57298724  0.76845493  0.09075671  1
  O  O280  1  0.57851235  0.75105921  0.42113443  1
  O  O281  1  0.57958749  0.75996656  0.75802751  1
  O  O282  1  0.91840644  0.26155837  0.08058194  1
  O  O283  1  0.91997105  0.27209466  0.41375447  1
  O  O284  1  0.91421649  0.27285196  0.74982176  1
  O  O285  1  0.91839179  0.76309434  0.07797871  1
  O  O286  1  0.92149486  0.75885634  0.41350884  1
  O  O287  1  0.91708456  0.77102432  0.75122618  1
  O  O288  1  0.25359627  0.48487951  0.08536171  1
  O  O289  1  0.24361996  0.48040416  0.42747242  1
  O  O290  1  0.24916475  0.47646025  0.75502464  1
  O  O291  1  0.25168797  0.99254328  0.07835500  1
  O  O292  1  0.23950827  0.99731872  0.42533007  1
  O  O293  1  0.24413657  0.98563793  0.76041644  1
  O  O294  1  0.57666238  0.47940363  0.08817102  1
  O  O295  1  0.57051807  0.48335266  0.42747256  1
  O  O296  1  0.58366720  0.47669665  0.75748726  1
  O  O297  1  0.57004679  0.99109282  0.08965964  1
  O  O298  1  0.58079297  1.00162653  0.42020216  1
  O  O299  1  0.58509418  0.98762808  0.74741686  1
  O  O300  1  0.91722208  0.48637412  0.07797209  1
  O  O301  1  0.91606565  0.47947804  0.42045800  1
  O  O302  1  0.91546076  0.46983587  0.75175586  1
  O  O303  1  0.91969007  0.98867883  0.07979251  1
  O  O304  1  0.92639789  0.98945138  0.40576269  1
  O  O305  1  0.91948499  0.98425247  0.74856053  1
  O  O306  1  0.07655566  0.26632153  0.07097688  1
  O  O307  1  0.07839119  0.27680383  0.40921177  1
  O  O308  1  0.08355676  0.27448808  0.74562206  1
  O  O309  1  0.07906198  0.77063213  0.06934854  1
  O  O310  1  0.07792766  0.77050220  0.41178793  1
  O  O311  1  0.07578932  0.76955484  0.73795479  1
  O  O312  1  0.41312480  0.27358043  0.08320377  1
  O  O313  1  0.40869749  0.27527382  0.41456453  1
  O  O314  1  0.41837556  0.27692071  0.74978701  1
  O  O315  1  0.41476543  0.76975825  0.07741958  1
  O  O316  1  0.41088383  0.75117502  0.41554601  1
  O  O317  1  0.41521610  0.76198783  0.74980606  1
  O  O318  1  0.75064801  0.25219662  0.08193352  1
  O  O319  1  0.75498614  0.26299972  0.42898802  1
  O  O320  1  0.74819847  0.27604204  0.74733143  1
  O  O321  1  0.74384708  0.75219872  0.07728043  1
  O  O322  1  0.74736583  0.75105526  0.41354147  1
  O  O323  1  0.74604537  0.76251404  0.74892518  1
  O  O324  1  0.25010694  0.02590363  0.25388942  1
  O  O325  1  0.25383149  0.02387599  0.58911528  1
  O  O326  1  0.25164384  0.02880646  0.91843438  1
  O  O327  1  0.25009731  0.52046228  0.25919169  1
  O  O328  1  0.25766612  0.52434281  0.59125654  1
  O  O329  1  0.25185339  0.51144824  0.91476639  1
  O  O330  1  0.58194724  0.02379233  0.25487222  1
  O  O331  1  0.58441040  0.02644591  0.58654985  1
  O  O332  1  0.57373766  0.01291789  0.90948442  1
  O  O333  1  0.58656517  0.51453482  0.26076829  1
  O  O334  1  0.58362349  0.52054694  0.58801473  1
  O  O335  1  0.59139507  0.51566019  0.91915570  1
  O  O336  1  0.91619711  0.02851004  0.24473246  1
  O  O337  1  0.91365834  0.01726131  0.57425935  1
  O  O338  1  0.92623756  0.01199573  0.91902091  1
  O  O339  1  0.92491478  0.51046407  0.25507651  1
  O  O340  1  0.93099961  0.51375829  0.58971172  1
  O  O341  1  0.91369648  0.50920908  0.90850258  1
  O  O342  1  0.08398118  0.22810497  0.24352807  1
  O  O343  1  0.09011667  0.24091869  0.57054877  1
  O  O344  1  0.08973325  0.23160098  0.91197106  1
  O  O345  1  0.08816485  0.73184909  0.24704134  1
  O  O346  1  0.09186446  0.72343364  0.57663523  1
  O  O347  1  0.09446872  0.73370003  0.89918166  1
  O  O348  1  0.41727043  0.22691591  0.24892609  1
  O  O349  1  0.41888411  0.23141853  0.58306782  1
  O  O350  1  0.41335415  0.22540337  0.91736905  1
  O  O351  1  0.41708961  0.74055888  0.25115346  1
  O  O352  1  0.42006799  0.72652275  0.58186395  1
  O  O353  1  0.43116839  0.73735341  0.90692853  1
  O  O354  1  0.75219086  0.22677326  0.25481495  1
  O  O355  1  0.74593992  0.23007693  0.58902338  1
  O  O356  1  0.75651698  0.24001800  0.90947403  1
  O  O357  1  0.75000564  0.73481814  0.24831523  1
  O  O358  1  0.74971758  0.74136902  0.58863580  1
  O  O359  1  0.75466697  0.72977617  0.91141009  1
