# generated using pymatgen
data_Ba17Sr5La8Pr42Mn72O216
_symmetry_space_group_name_H-M   'P 1'
_cell_length_a   16.67377543
_cell_length_b   15.69970710
_cell_length_c   16.82303361
_cell_angle_alpha   89.99983145
_cell_angle_beta   90.04020140
_cell_angle_gamma   89.99199225
_symmetry_Int_Tables_number   1
_chemical_formula_structural   Ba17Sr5La8Pr42Mn72O216
_chemical_formula_sum   'Ba17 Sr5 La8 Pr42 Mn72 O216'
_cell_volume   4403.82141838
_cell_formula_units_Z   1
loop_
 _symmetry_equiv_pos_site_id
 _symmetry_equiv_pos_as_xyz
  1  'x, y, z'
loop_
 _atom_site_type_symbol
 _atom_site_label
 _atom_site_symmetry_multiplicity
 _atom_site_fract_x
 _atom_site_fract_y
 _atom_site_fract_z
 _atom_site_occupancy
  Ba  Ba0  1  0.66498828  0.87467157  0.67029709  1
  Ba  Ba1  1  0.33288322  0.62360453  0.66185322  1
  Ba  Ba2  1  0.33536933  0.12650545  0.99773509  1
  Ba  Ba3  1  0.16697704  0.87581262  0.83115097  1
  Ba  Ba4  1  0.00062037  0.87483107  0.66747011  1
  Ba  Ba5  1  0.33258303  0.37669389  -0.00133568  1
  Ba  Ba6  1  0.33528795  0.62399758  0.99618671  1
  Ba  Ba7  1  0.33365789  0.87418779  -0.00040906  1
  Ba  Ba8  1  0.16602207  0.87498888  0.16424288  1
  Ba  Ba9  1  0.66792895  0.37522454  0.00357184  1
  Ba  Ba10  1  0.33475481  0.12630490  0.33215948  1
  Ba  Ba11  1  0.00124575  0.62308907  0.33292974  1
  Ba  Ba12  1  0.66762342  0.62638126  0.33597658  1
  Ba  Ba13  1  -0.00028717  0.87686648  0.00102327  1
  Ba  Ba14  1  0.66559789  0.12400379  0.66736709  1
  Ba  Ba15  1  0.49770322  0.12528987  0.50204489  1
  Ba  Ba16  1  -0.00133632  0.12591409  1.00004161  1
  Sr  Sr17  1  0.50276848  0.12362961  0.83472682  1
  Sr  Sr18  1  0.66633735  0.87194296  0.33862941  1
  Sr  Sr19  1  0.83652450  0.62574387  0.50080958  1
  Sr  Sr20  1  0.66405785  0.37772380  0.33602609  1
  Sr  Sr21  1  0.00119287  0.12830621  0.32953079  1
  La  La22  1  0.33580054  0.37251605  0.33088424  1
  La  La23  1  0.32910760  0.12463248  0.66174449  1
  La  La24  1  0.66813872  0.12260811  0.33373631  1
  La  La25  1  0.83752031  0.62619551  0.83474682  1
  La  La26  1  0.50099176  0.12718961  0.17021918  1
  La  La27  1  0.66791765  0.12703813  0.99811501  1
  La  La28  1  0.83217278  0.12172453  0.83541965  1
  La  La29  1  0.83039111  0.37646678  0.17048790  1
  Pr  Pr30  1  0.83561117  0.12560471  0.16918454  1
  Pr  Pr31  1  0.50028731  0.87477869  0.50002128  1
  Pr  Pr32  1  0.50734922  0.62442592  0.50493455  1
  Pr  Pr33  1  0.16371555  0.12659028  0.49782027  1
  Pr  Pr34  1  0.83482614  0.12374599  0.50371160  1
  Pr  Pr35  1  0.16670195  0.62773505  0.83199929  1
  Pr  Pr36  1  -0.00333366  0.37437423  0.00154231  1
  Pr  Pr37  1  0.83478330  0.62372263  0.17391482  1
  Pr  Pr38  1  0.83456690  0.87737593  0.83053617  1
  Pr  Pr39  1  0.67239905  0.62248437  1.00285737  1
  Pr  Pr40  1  0.16314498  0.37287250  0.16091137  1
  Pr  Pr41  1  0.16249867  0.62479268  0.49938490  1
  Pr  Pr42  1  -0.00318919  0.37471218  0.33692516  1
  Pr  Pr43  1  0.33233502  0.62410718  0.32917655  1
  Pr  Pr44  1  0.65807374  0.37426017  0.67225391  1
  Pr  Pr45  1  0.16825758  0.37370755  0.82929398  1
  Pr  Pr46  1  -0.00089912  0.12392207  0.66539550  1
  Pr  Pr47  1  0.82581148  0.37440516  0.49676171  1
  Pr  Pr48  1  0.83203289  0.87170704  0.16904697  1
  Pr  Pr49  1  0.49270123  0.37407112  0.83563972  1
  Pr  Pr50  1  0.17316965  0.62783084  0.16382446  1
  Pr  Pr51  1  0.82813783  0.37126064  0.83263360  1
  Pr  Pr52  1  0.33581873  0.37342365  0.66719186  1
  Pr  Pr53  1  0.82775541  0.87540749  0.49839241  1
  Pr  Pr54  1  0.50832210  0.62677139  0.83766369  1
  Pr  Pr55  1  0.33426031  0.87671013  0.66905143  1
  Pr  Pr56  1  0.49798929  0.62199073  0.16862117  1
  Pr  Pr57  1  0.16896056  0.87260887  0.49362760  1
  Pr  Pr58  1  0.67255156  0.62498826  0.66269898  1
  Pr  Pr59  1  0.50054350  0.37530866  0.16481887  1
  Pr  Pr60  1  0.33782983  0.87813211  0.33266284  1
  Pr  Pr61  1  0.00408398  0.62648121  1.00113293  1
  Pr  Pr62  1  -0.00323905  0.37867847  0.66780792  1
  Pr  Pr63  1  0.49234623  0.87570568  0.83299677  1
  Pr  Pr64  1  0.50097047  0.87413209  0.16706768  1
  Pr  Pr65  1  0.66658700  0.87570784  0.00244112  1
  Pr  Pr66  1  0.17120216  0.12034042  0.16436690  1
  Pr  Pr67  1  0.49694985  0.37420903  0.49996744  1
  Pr  Pr68  1  0.00034885  0.87683340  0.33935100  1
  Pr  Pr69  1  0.00308219  0.62737963  0.66213062  1
  Pr  Pr70  1  0.16498547  0.12324386  0.83347217  1
  Pr  Pr71  1  0.16662048  0.37726065  0.49236453  1
  Mn  Mn72  1  -0.00155666  0.00252301  0.17046838  1
  Mn  Mn73  1  0.00047974  0.00190787  0.49947729  1
  Mn  Mn74  1  -0.00076937  0.00158070  0.83192126  1
  Mn  Mn75  1  0.00003220  0.49773571  0.16606650  1
  Mn  Mn76  1  -0.00111679  0.49848306  0.50180690  1
  Mn  Mn77  1  -0.00105747  0.49936878  0.83339997  1
  Mn  Mn78  1  0.33576798  0.00017636  0.16625379  1
  Mn  Mn79  1  0.33008293  -0.00134238  0.50005483  1
  Mn  Mn80  1  0.33418919  0.00215313  0.83052012  1
  Mn  Mn81  1  0.33288067  0.49978042  0.16655799  1
  Mn  Mn82  1  0.33292800  0.49961457  0.49612876  1
  Mn  Mn83  1  0.33256416  0.50032225  0.82919081  1
  Mn  Mn84  1  0.66797135  -0.00158730  0.16757415  1
  Mn  Mn85  1  0.66644819  -0.00121059  0.49913810  1
  Mn  Mn86  1  0.66650440  -0.00072529  0.83766313  1
  Mn  Mn87  1  0.66650499  0.50078026  0.16966703  1
  Mn  Mn88  1  0.66796587  0.49936130  0.50423136  1
  Mn  Mn89  1  0.66782214  0.50004883  0.83332257  1
  Mn  Mn90  1  -0.00044557  0.25076369  0.16781605  1
  Mn  Mn91  1  -0.00084858  0.25008674  0.50021088  1
  Mn  Mn92  1  -0.00116448  0.25338272  0.83121822  1
  Mn  Mn93  1  -0.00087763  0.74899125  0.16751707  1
  Mn  Mn94  1  0.00005340  0.75069296  0.50084468  1
  Mn  Mn95  1  -0.00055017  0.74761543  0.83233955  1
  Mn  Mn96  1  0.33362388  0.25130060  0.16541650  1
  Mn  Mn97  1  0.33032416  0.25203366  0.49943634  1
  Mn  Mn98  1  0.33325582  0.25067445  0.82966783  1
  Mn  Mn99  1  0.33575669  0.74847165  0.16693077  1
  Mn  Mn100  1  0.33356248  0.74976245  0.49619438  1
  Mn  Mn101  1  0.33378952  0.74826625  0.82979761  1
  Mn  Mn102  1  0.66813777  0.24877005  0.16989862  1
  Mn  Mn103  1  0.66660981  0.25132888  0.50092443  1
  Mn  Mn104  1  0.66563422  0.25059625  0.83526964  1
  Mn  Mn105  1  0.66664913  0.75161424  0.16799083  1
  Mn  Mn106  1  0.66767240  0.74944973  0.50240995  1
  Mn  Mn107  1  0.66858086  0.74839990  0.83619002  1
  Mn  Mn108  1  0.16453106  0.25132250  -0.00387447  1
  Mn  Mn109  1  0.16516881  0.25071562  0.32877755  1
  Mn  Mn110  1  0.16363400  0.25262527  0.66256404  1
  Mn  Mn111  1  0.16640703  0.74850923  -0.00087592  1
  Mn  Mn112  1  0.16718758  0.74947698  0.33116871  1
  Mn  Mn113  1  0.16744009  0.74889854  0.66269040  1
  Mn  Mn114  1  0.50146233  0.25000139  0.00118310  1
  Mn  Mn115  1  0.50323971  0.25176182  0.33395459  1
  Mn  Mn116  1  0.49804501  0.24986741  0.66781274  1
  Mn  Mn117  1  0.50511152  0.74952256  0.00122447  1
  Mn  Mn118  1  0.49852391  0.74907789  0.33514374  1
  Mn  Mn119  1  0.49983963  0.74852841  0.66875386  1
  Mn  Mn120  1  0.83362732  0.25148444  0.00153469  1
  Mn  Mn121  1  0.83198224  0.24969473  0.33573787  1
  Mn  Mn122  1  0.83366047  0.25228607  0.66556650  1
  Mn  Mn123  1  0.83361768  0.74882922  0.00176289  1
  Mn  Mn124  1  0.83478769  0.75062575  0.33434463  1
  Mn  Mn125  1  0.83377406  0.74876512  0.66782813  1
  Mn  Mn126  1  0.16653803  0.00236317  -0.00066253  1
  Mn  Mn127  1  0.16565258  0.00088307  0.33167014  1
  Mn  Mn128  1  0.16578085  0.00266133  0.66238290  1
  Mn  Mn129  1  0.16352288  0.49924513  -0.00383583  1
  Mn  Mn130  1  0.16679896  0.49852713  0.32854348  1
  Mn  Mn131  1  0.16466677  0.49699990  0.66242582  1
  Mn  Mn132  1  0.50292647  -0.00098880  0.00172215  1
  Mn  Mn133  1  0.50238869  -0.00106856  0.33358792  1
  Mn  Mn134  1  0.49763875  -0.00054168  0.66780057  1
  Mn  Mn135  1  0.50361505  0.50113717  0.00088530  1
  Mn  Mn136  1  0.49918898  0.49977079  0.33599768  1
  Mn  Mn137  1  0.50076584  0.50013002  0.66848836  1
  Mn  Mn138  1  0.83187088  -0.00153437  0.00245984  1
  Mn  Mn139  1  0.83424292  0.00059028  0.33469482  1
  Mn  Mn140  1  0.83354032  0.00063546  0.66708733  1
  Mn  Mn141  1  0.83570790  0.50125299  0.00229483  1
  Mn  Mn142  1  0.83249627  0.49916621  0.33563814  1
  Mn  Mn143  1  0.83329750  0.49827660  0.66764615  1
  O  O144  1  0.16687012  0.13045405  0.01694078  1
  O  O145  1  0.16708112  0.12692694  0.35557116  1
  O  O146  1  0.17016497  0.13204928  0.68894288  1
  O  O147  1  0.16076063  0.62007975  0.01900117  1
  O  O148  1  0.17666707  0.62221484  0.35766473  1
  O  O149  1  0.16183543  0.61757117  0.68721077  1
  O  O150  1  0.50852535  0.12133712  0.02496739  1
  O  O151  1  0.50605891  0.12643731  0.34525909  1
  O  O152  1  0.49113927  0.12685321  0.68236959  1
  O  O153  1  0.50913160  0.62608126  0.02417984  1
  O  O154  1  0.48951516  0.62390722  0.36281372  1
  O  O155  1  0.50664950  0.62284573  0.69283787  1
  O  O156  1  0.82768075  0.12388043  0.02419435  1
  O  O157  1  0.83235670  0.12664227  0.36098937  1
  O  O158  1  0.84014255  0.13148679  0.69038364  1
  O  O159  1  0.83532982  0.62505930  0.03029680  1
  O  O160  1  0.83610668  0.62445601  0.34873327  1
  O  O161  1  0.83277744  0.62115922  0.69080580  1
  O  O162  1  0.15700265  0.37571688  0.30420992  1
  O  O163  1  0.15675157  0.37407239  0.63430467  1
  O  O164  1  0.15630222  0.37629012  0.97412765  1
  O  O165  1  0.15442767  0.87548237  0.32093950  1
  O  O166  1  0.17026518  0.87799542  0.63954886  1
  O  O167  1  0.16543657  0.87530393  0.99163563  1
  O  O168  1  0.50192004  0.37725097  0.30988100  1
  O  O169  1  0.50037634  0.37710790  0.64448010  1
  O  O170  1  0.50366267  0.37904285  0.98070884  1
  O  O171  1  0.49743890  0.87179525  0.31152361  1
  O  O172  1  0.49118026  0.87237986  0.64557021  1
  O  O173  1  0.51043020  0.87214367  0.97630985  1
  O  O174  1  0.83147948  0.37305024  0.31515719  1
  O  O175  1  0.83683129  0.37498410  0.63931305  1
  O  O176  1  0.83838727  0.37976239  0.97578738  1
  O  O177  1  0.83735436  0.87623912  0.31275222  1
  O  O178  1  0.83342216  0.87254862  0.64549471  1
  O  O179  1  0.82630476  0.87032421  0.97309179  1
  O  O180  1  0.01050902  0.37375298  0.19311342  1
  O  O181  1  0.00810464  0.37273639  0.52507769  1
  O  O182  1  0.00552768  0.37800092  0.85891989  1
  O  O183  1  -0.00403877  0.87965792  0.19348582  1
  O  O184  1  0.01167796  0.87641909  0.51235461  1
  O  O185  1  -0.00652989  0.87056012  0.84330644  1
  O  O186  1  0.33275010  0.37773313  0.18600779  1
  O  O187  1  0.33154819  0.37653809  0.52354941  1
  O  O188  1  0.33285148  0.37633995  0.84242421  1
  O  O189  1  0.34123807  0.87023557  0.18773411  1
  O  O190  1  0.32743405  0.87312496  0.52514568  1
  O  O191  1  0.33817220  0.87239692  0.84090692  1
  O  O192  1  0.66743492  0.37321454  0.18680856  1
  O  O193  1  0.67290795  0.37791138  0.52743787  1
  O  O194  1  0.67272928  0.37606910  0.84788706  1
  O  O195  1  0.66953122  0.87599059  0.19118492  1
  O  O196  1  0.67015626  0.87261511  0.51225008  1
  O  O197  1  0.67662478  0.87206472  0.85923848  1
  O  O198  1  -0.01404192  0.12914744  0.15558820  1
  O  O199  1  -0.00691874  0.12762760  0.47717087  1
  O  O200  1  -0.00473176  0.13275705  0.80898020  1
  O  O201  1  -0.01448290  0.61781944  0.14497509  1
  O  O202  1  0.00006058  0.62383176  0.48824750  1
  O  O203  1  -0.00696192  0.61946714  0.80554164  1
  O  O204  1  0.33811161  0.12892960  0.15750418  1
  O  O205  1  0.32560054  0.12692755  0.48748486  1
  O  O206  1  0.33020853  0.12984804  0.80653878  1
  O  O207  1  0.33606567  0.62260366  0.15413052  1
  O  O208  1  0.33273805  0.62366073  0.47169266  1
  O  O209  1  0.33179602  0.62312855  0.81867795  1
  O  O210  1  0.66763629  0.12057260  0.14195251  1
  O  O211  1  0.67089971  0.12449040  0.47930381  1
  O  O212  1  0.66983513  0.12745853  0.82381597  1
  O  O213  1  0.66667881  0.62908292  0.14660991  1
  O  O214  1  0.65837895  0.62372544  0.49287849  1
  O  O215  1  0.66296414  0.62187265  0.80616584  1
  O  O216  1  0.08497205  0.02310690  0.24893391  1
  O  O217  1  0.08151213  0.02849541  0.58177517  1
  O  O218  1  0.08483072  0.01641307  0.90949087  1
  O  O219  1  0.09233472  0.51950662  0.23660653  1
  O  O220  1  0.08313778  0.52149841  0.58164472  1
  O  O221  1  0.08251444  0.52731657  0.91060905  1
  O  O222  1  0.42196793  0.00705226  0.24930795  1
  O  O223  1  0.40161346  0.01036737  0.59042269  1
  O  O224  1  0.42619485  0.00839273  0.91431242  1
  O  O225  1  0.41552578  0.51740518  0.25358793  1
  O  O226  1  0.42947008  0.51413567  0.57523072  1
  O  O227  1  0.43003717  0.51199986  0.90901713  1
  O  O228  1  0.75314524  0.02270292  0.24695804  1
  O  O229  1  0.75784578  0.01312069  0.57745553  1
  O  O230  1  0.75045223  0.01971938  0.92056401  1
  O  O231  1  0.75396072  0.51289901  0.24606644  1
  O  O232  1  0.75470427  0.51940052  0.58446020  1
  O  O233  1  0.75611737  0.52257748  0.91559035  1
  O  O234  1  0.24736654  0.24130014  0.24449421  1
  O  O235  1  0.24132861  0.23444716  0.57745528  1
  O  O236  1  0.24415849  0.24079088  0.90333159  1
  O  O237  1  0.25218964  0.73022707  0.25070747  1
  O  O238  1  0.24260906  0.73199704  0.56705379  1
  O  O239  1  0.24654718  0.73539513  0.90663867  1
  O  O240  1  0.59007484  0.22910963  0.25431526  1
  O  O241  1  0.58403072  0.24709648  0.58732015  1
  O  O242  1  0.58636181  0.23441583  0.92366675  1
  O  O243  1  0.57493698  0.73415621  0.24599227  1
  O  O244  1  0.58536112  0.73115907  0.59253783  1
  O  O245  1  0.59395911  0.72463482  0.92372290  1
  O  O246  1  0.91347891  0.24213522  0.25142734  1
  O  O247  1  0.91897073  0.23033807  0.58566316  1
  O  O248  1  0.91250371  0.24158592  0.90894479  1
  O  O249  1  0.91582012  0.73868121  0.24961798  1
  O  O250  1  0.91948604  0.73287579  0.58858585  1
  O  O251  1  0.91937479  0.72542196  0.92190443  1
  O  O252  1  0.07522550  0.48009373  0.07556901  1
  O  O253  1  0.08392043  0.47958350  0.41194330  1
  O  O254  1  0.08097995  0.47666398  0.74569859  1
  O  O255  1  0.08149559  1.00194324  0.08908163  1
  O  O256  1  0.08482576  0.98724935  0.41782698  1
  O  O257  1  0.08455633  1.00182006  0.74560174  1
  O  O258  1  0.42206428  0.48783411  0.08972817  1
  O  O259  1  0.41437249  0.47221780  0.41369760  1
  O  O260  1  0.41430250  0.47854003  0.74265638  1
  O  O261  1  0.42563164  0.98450460  0.08813426  1
  O  O262  1  0.41602895  0.97664898  0.42224642  1
  O  O263  1  0.41740911  0.98080876  0.75006699  1
  O  O264  1  0.75491227  0.49058310  0.08654348  1
  O  O265  1  0.74906941  0.48389621  0.42139454  1
  O  O266  1  0.74632496  0.47841571  0.74462732  1
  O  O267  1  0.74770096  0.97420155  0.08401919  1
  O  O268  1  0.75274964  0.98323016  0.41499221  1
  O  O269  1  0.75333077  0.98896370  0.75901049  1
  O  O270  1  0.24241986  0.26489553  0.08503769  1
  O  O271  1  0.24775949  0.27539720  0.41305507  1
  O  O272  1  0.24871781  0.27499938  0.74003443  1
  O  O273  1  0.25063108  0.75062520  0.08488548  1
  O  O274  1  0.25347334  0.77416606  0.40941580  1
  O  O275  1  0.25296272  0.76218746  0.73732949  1
  O  O276  1  0.57867543  0.26177798  0.09576185  1
  O  O277  1  0.58057032  0.27234576  0.42186026  1
  O  O278  1  0.57921447  0.27066438  0.75477279  1
  O  O279  1  0.58617515  0.77461858  0.08476699  1
  O  O280  1  0.57539316  0.76313520  0.42421543  1
  O  O281  1  0.57539758  0.76513261  0.76614880  1
  O  O282  1  0.91704846  0.27429470  0.08568166  1
  O  O283  1  0.91486293  0.27578141  0.42118727  1
  O  O284  1  0.91613207  0.27941305  0.74911970  1
  O  O285  1  0.90719316  0.76824820  0.08997282  1
  O  O286  1  0.91839711  0.77437897  0.41975964  1
  O  O287  1  0.90826032  0.76050876  0.75886110  1
  O  O288  1  0.23951230  0.48683216  0.08855085  1
  O  O289  1  0.24865924  0.47244117  0.40782256  1
  O  O290  1  0.24556353  0.47480537  0.74002586  1
  O  O291  1  0.25183499  0.99896171  0.08376996  1
  O  O292  1  0.25127446  0.97576006  0.41301233  1
  O  O293  1  0.25678979  0.99098933  0.73278978  1
  O  O294  1  0.58059223  0.48837542  0.09113680  1
  O  O295  1  0.57565786  0.48420595  0.42997233  1
  O  O296  1  0.57581976  0.47570079  0.75633751  1
  O  O297  1  0.58461798  0.97450731  0.08790934  1
  O  O298  1  0.58155237  0.98137527  0.41661223  1
  O  O299  1  0.57844895  0.98490619  0.76376967  1
  O  O300  1  0.91596642  0.47131958  0.08717016  1
  O  O301  1  0.91590198  0.47514124  0.42195644  1
  O  O302  1  0.90975702  0.47406470  0.75784591  1
  O  O303  1  0.90674565  0.98517898  0.09367953  1
  O  O304  1  0.91574870  0.97643807  0.42185485  1
  O  O305  1  0.91201343  0.98990583  0.75348466  1
  O  O306  1  0.07936845  0.27129808  0.07956237  1
  O  O307  1  0.08123458  0.27087456  0.41481451  1
  O  O308  1  0.08138307  0.27435338  0.74531136  1
  O  O309  1  0.07707369  0.74763543  0.08263533  1
  O  O310  1  0.08744612  0.76163528  0.41829550  1
  O  O311  1  0.08225156  0.74946143  0.74932205  1
  O  O312  1  0.42041353  0.26587051  0.08604680  1
  O  O313  1  0.41619548  0.27189929  0.41723234  1
  O  O314  1  0.41594569  0.27366446  0.74827560  1
  O  O315  1  0.42690252  0.76101615  0.09152874  1
  O  O316  1  0.41372852  0.77800922  0.41499805  1
  O  O317  1  0.41479500  0.76730743  0.74492269  1
  O  O318  1  0.75506375  0.26207649  0.09316701  1
  O  O319  1  0.74851629  0.26887467  0.41658720  1
  O  O320  1  0.74945075  0.27170976  0.74569095  1
  O  O321  1  0.74725565  0.77011557  0.07914480  1
  O  O322  1  0.75502226  0.76460350  0.41927156  1
  O  O323  1  0.75163304  0.76022430  0.75654411  1
  O  O324  1  0.24719495  0.01113483  0.24717692  1
  O  O325  1  0.23950968  0.02130298  0.57293226  1
  O  O326  1  0.24782364  0.01716322  0.90431241  1
  O  O327  1  0.25156040  0.51997465  0.25105638  1
  O  O328  1  0.24202890  0.51332910  0.57060345  1
  O  O329  1  0.24186617  0.50968456  0.90667124  1
  O  O330  1  0.58803552  0.01963091  0.24769334  1
  O  O331  1  0.57686346  0.00315248  0.58398720  1
  O  O332  1  0.59310598  0.01359274  0.92815521  1
  O  O333  1  0.57681683  0.51745923  0.25081014  1
  O  O334  1  0.59203692  0.51491444  0.59692599  1
  O  O335  1  0.59096389  0.52383460  0.92083432  1
  O  O336  1  0.91596313  0.01937629  0.25563157  1
  O  O337  1  0.91884733  0.02130013  0.58353986  1
  O  O338  1  0.90959163  0.01163798  0.91321603  1
  O  O339  1  0.91660564  0.50310119  0.24827628  1
  O  O340  1  0.92292372  0.51302594  0.59652276  1
  O  O341  1  0.92073512  0.52231871  0.92440847  1
  O  O342  1  0.08748804  0.22833773  0.24167101  1
  O  O343  1  0.08095842  0.22280653  0.58194690  1
  O  O344  1  0.08631343  0.23439738  0.90549535  1
  O  O345  1  0.09087506  0.72956683  0.24530323  1
  O  O346  1  0.08374915  0.72846363  0.58226894  1
  O  O347  1  0.08217697  0.72587344  0.91292308  1
  O  O348  1  0.42546901  0.24569178  0.24657973  1
  O  O349  1  0.40742651  0.24309212  0.58993454  1
  O  O350  1  0.42176871  0.24322608  0.90981809  1
  O  O351  1  0.41500014  0.72691494  0.25478479  1
  O  O352  1  0.42323449  0.73392596  0.57133089  1
  O  O353  1  0.42971665  0.73733035  0.90911315  1
  O  O354  1  0.75110487  0.22436047  0.25175393  1
  O  O355  1  0.75906630  0.23519172  0.57593118  1
  O  O356  1  0.75210784  0.23463268  0.91614849  1
  O  O357  1  0.75626048  0.73781827  0.24307810  1
  O  O358  1  0.75190422  0.73142813  0.58720916  1
  O  O359  1  0.75388050  0.72002203  0.91807468  1
