# generated using pymatgen
data_Ba17Sr5La8Pr42Mn72O216
_symmetry_space_group_name_H-M   'P 1'
_cell_length_a   16.68339549
_cell_length_b   15.70708336
_cell_length_c   16.82546067
_cell_angle_alpha   89.99617836
_cell_angle_beta   90.00339233
_cell_angle_gamma   90.00770727
_symmetry_Int_Tables_number   1
_chemical_formula_structural   Ba17Sr5La8Pr42Mn72O216
_chemical_formula_sum   'Ba17 Sr5 La8 Pr42 Mn72 O216'
_cell_volume   4409.06957221
_cell_formula_units_Z   1
loop_
 _symmetry_equiv_pos_site_id
 _symmetry_equiv_pos_as_xyz
  1  'x, y, z'
loop_
 _atom_site_type_symbol
 _atom_site_label
 _atom_site_symmetry_multiplicity
 _atom_site_fract_x
 _atom_site_fract_y
 _atom_site_fract_z
 _atom_site_occupancy
  Ba  Ba0  1  0.33228278  0.37648714  0.66827537  1
  Ba  Ba1  1  0.16665849  0.12623134  0.83388516  1
  Ba  Ba2  1  0.50568100  0.62353515  0.16886772  1
  Ba  Ba3  1  0.00398007  0.12695320  0.33239193  1
  Ba  Ba4  1  0.83091052  0.87518881  0.82629907  1
  Ba  Ba5  1  0.50261859  0.62447277  0.50266240  1
  Ba  Ba6  1  0.16524703  0.12496608  0.50202293  1
  Ba  Ba7  1  0.16494013  0.87436107  0.83430154  1
  Ba  Ba8  1  0.33048207  0.87374649  0.66873818  1
  Ba  Ba9  1  0.33148442  0.87278365  0.33583700  1
  Ba  Ba10  1  0.33317146  0.12549283  0.66768279  1
  Ba  Ba11  1  0.83061529  0.87518012  0.49365044  1
  Ba  Ba12  1  0.50391245  0.62423506  0.83777364  1
  Ba  Ba13  1  -0.00368636  0.87595679  0.32980442  1
  Ba  Ba14  1  -0.00239866  0.37578120  0.66596602  1
  Ba  Ba15  1  0.83187108  0.87691141  0.15979553  1
  Ba  Ba16  1  0.16895244  0.62265889  0.17152046  1
  Sr  Sr17  1  0.32919547  0.38014676  0.33981455  1
  Sr  Sr18  1  0.00263291  0.12476818  0.66237900  1
  Sr  Sr19  1  -0.00268537  0.37766598  0.33697866  1
  Sr  Sr20  1  0.66234340  0.37533195  0.66448675  1
  Sr  Sr21  1  0.66039211  0.37356159  0.33433924  1
  La  La22  1  0.34028788  0.12490502  0.99745719  1
  La  La23  1  0.50698441  0.12657765  0.17327504  1
  La  La24  1  0.65964695  0.37472911  0.00110947  1
  La  La25  1  0.83655714  0.62266869  0.49445656  1
  La  La26  1  0.49311799  0.87473059  0.16800509  1
  La  La27  1  0.83699091  0.62295759  0.16469280  1
  La  La28  1  0.67643370  0.12501039  0.99455801  1
  La  La29  1  0.49587258  0.37506442  0.83175830  1
  Pr  Pr30  1  0.16536230  0.36876308  0.50000558  1
  Pr  Pr31  1  0.00250297  0.62898702  0.66566130  1
  Pr  Pr32  1  0.83987551  0.62311276  0.82927437  1
  Pr  Pr33  1  0.49137627  0.87601778  0.49970623  1
  Pr  Pr34  1  0.15894850  0.87430676  0.16368964  1
  Pr  Pr35  1  0.83119237  0.37043696  0.16276427  1
  Pr  Pr36  1  0.00308627  0.12290341  0.99648562  1
  Pr  Pr37  1  0.16919673  0.62428179  0.50272813  1
  Pr  Pr38  1  0.50217831  0.12562796  0.50513563  1
  Pr  Pr39  1  0.00230620  0.62733302  0.32937659  1
  Pr  Pr40  1  0.67309382  0.62443748  0.66233228  1
  Pr  Pr41  1  0.17486639  0.12468519  0.17405252  1
  Pr  Pr42  1  0.32619880  0.37700824  0.00441158  1
  Pr  Pr43  1  0.49381615  0.87651937  0.83369599  1
  Pr  Pr44  1  0.15959633  0.87952162  0.50064464  1
  Pr  Pr45  1  0.50254266  0.12818010  0.83374660  1
  Pr  Pr46  1  0.84409300  0.12701062  0.82604205  1
  Pr  Pr47  1  0.67442898  0.12530447  0.66109043  1
  Pr  Pr48  1  0.82831180  0.37425170  0.82289375  1
  Pr  Pr49  1  0.33892670  0.62611427  0.67019960  1
  Pr  Pr50  1  -0.00149099  0.88186991  0.66505401  1
  Pr  Pr51  1  0.00548989  0.62923165  0.99695969  1
  Pr  Pr52  1  -0.00382651  0.87709104  0.00101413  1
  Pr  Pr53  1  0.17217828  0.62182752  0.83954783  1
  Pr  Pr54  1  0.67751460  0.12707710  0.33042709  1
  Pr  Pr55  1  0.33879865  0.12790169  0.33616435  1
  Pr  Pr56  1  0.67724133  0.62511945  0.99405988  1
  Pr  Pr57  1  0.82835632  0.37285472  0.49221346  1
  Pr  Pr58  1  0.67187025  0.62343678  0.32862550  1
  Pr  Pr59  1  0.66001211  0.87511849  0.33435688  1
  Pr  Pr60  1  0.16707246  0.37450769  0.83085002  1
  Pr  Pr61  1  -0.00347373  0.37520933  -0.00018955  1
  Pr  Pr62  1  0.65664473  0.87427796  0.66589078  1
  Pr  Pr63  1  0.16212333  0.37574546  0.17098802  1
  Pr  Pr64  1  0.32690844  0.87173188  0.00588594  1
  Pr  Pr65  1  0.34685029  0.62305977  0.33273535  1
  Pr  Pr66  1  0.65654900  0.87477657  0.00300938  1
  Pr  Pr67  1  0.49005373  0.37574652  0.16974727  1
  Pr  Pr68  1  0.84406693  0.12536306  0.16455615  1
  Pr  Pr69  1  0.48917125  0.37500746  0.49871530  1
  Pr  Pr70  1  0.34156780  0.62399326  1.00132652  1
  Pr  Pr71  1  0.84391694  0.12695529  0.49721631  1
  Mn  Mn72  1  0.00231430  0.00179364  0.16224451  1
  Mn  Mn73  1  -0.00154368  -0.00022568  0.49911552  1
  Mn  Mn74  1  -0.00034697  0.00079988  0.83168338  1
  Mn  Mn75  1  -0.00126518  0.49732208  0.16732802  1
  Mn  Mn76  1  -0.00066059  0.50027602  0.49924182  1
  Mn  Mn77  1  -0.00002077  0.49984225  0.83457067  1
  Mn  Mn78  1  0.33366531  0.00148873  0.16769226  1
  Mn  Mn79  1  0.33241604  -0.00116788  0.50035253  1
  Mn  Mn80  1  0.33453423  0.00177214  0.83655463  1
  Mn  Mn81  1  0.33318045  0.49829480  0.17169453  1
  Mn  Mn82  1  0.33132975  0.50257851  0.50289697  1
  Mn  Mn83  1  0.33398018  0.49959123  0.83786932  1
  Mn  Mn84  1  0.66620803  0.00266030  0.16501213  1
  Mn  Mn85  1  0.66509473  0.00194909  0.49759922  1
  Mn  Mn86  1  0.66645463  0.00128616  0.83109622  1
  Mn  Mn87  1  0.66845840  0.49547252  0.16510549  1
  Mn  Mn88  1  0.66671211  0.49718332  0.49798397  1
  Mn  Mn89  1  0.66916824  0.49843312  0.83186179  1
  Mn  Mn90  1  0.00226395  0.25370886  0.16469464  1
  Mn  Mn91  1  -0.00137159  0.25360670  0.49981002  1
  Mn  Mn92  1  -0.00017862  0.25157299  0.83404241  1
  Mn  Mn93  1  -0.00075392  0.74755177  0.16368235  1
  Mn  Mn94  1  0.00011899  0.74644029  0.49787895  1
  Mn  Mn95  1  -0.00007309  0.74872154  0.83051632  1
  Mn  Mn96  1  0.33322184  0.25133020  0.16852346  1
  Mn  Mn97  1  0.33304769  0.25080109  0.49988625  1
  Mn  Mn98  1  0.33382326  0.24968999  0.83774320  1
  Mn  Mn99  1  0.33319855  0.74894191  0.17064772  1
  Mn  Mn100  1  0.33121871  0.74783167  0.50281621  1
  Mn  Mn101  1  0.33373066  0.74889476  0.83720080  1
  Mn  Mn102  1  0.66688984  0.25098598  0.16515422  1
  Mn  Mn103  1  0.66479659  0.25041681  0.49770693  1
  Mn  Mn104  1  0.66783461  0.24892362  0.83110059  1
  Mn  Mn105  1  0.66735935  0.75064055  0.16458483  1
  Mn  Mn106  1  0.66642528  0.75004715  0.49812210  1
  Mn  Mn107  1  0.66781854  0.75108234  0.83211903  1
  Mn  Mn108  1  0.16584234  0.25228452  0.00457200  1
  Mn  Mn109  1  0.16890151  0.25144898  0.33349148  1
  Mn  Mn110  1  0.16560443  0.25234025  0.66715796  1
  Mn  Mn111  1  0.16762644  0.74751688  0.00169134  1
  Mn  Mn112  1  0.16637969  0.74899754  0.33721919  1
  Mn  Mn113  1  0.16443454  0.74633478  0.66903141  1
  Mn  Mn114  1  0.50069283  0.25068417  0.00328914  1
  Mn  Mn115  1  0.50006145  0.24995417  0.33669654  1
  Mn  Mn116  1  0.50317128  0.25085124  0.66794666  1
  Mn  Mn117  1  0.50079060  0.75040601  0.00243683  1
  Mn  Mn118  1  0.50289032  0.75012969  0.33565097  1
  Mn  Mn119  1  0.50155452  0.74887323  0.66970429  1
  Mn  Mn120  1  0.83457179  0.25120329  -0.00637843  1
  Mn  Mn121  1  0.83288463  0.25126054  0.32882529  1
  Mn  Mn122  1  0.83122127  0.25123604  0.66178740  1
  Mn  Mn123  1  0.83398899  0.74888419  -0.00532039  1
  Mn  Mn124  1  0.83008022  0.74860959  0.32865164  1
  Mn  Mn125  1  0.83245864  0.74903116  0.66166486  1
  Mn  Mn126  1  0.16720917  0.00061767  0.00388970  1
  Mn  Mn127  1  0.16899746  -0.00055857  0.33290932  1
  Mn  Mn128  1  0.16545634  -0.00022460  0.66750850  1
  Mn  Mn129  1  0.16597007  0.49870691  0.00268869  1
  Mn  Mn130  1  0.16583153  0.49964295  0.33888322  1
  Mn  Mn131  1  0.16505977  0.50282898  0.67001213  1
  Mn  Mn132  1  0.50021460  0.00244128  0.00231585  1
  Mn  Mn133  1  0.50128835  0.00292390  0.33646033  1
  Mn  Mn134  1  0.50180072  0.00110739  0.66857723  1
  Mn  Mn135  1  0.50096366  0.49733404  0.00275236  1
  Mn  Mn136  1  0.50307764  0.49736231  0.33556882  1
  Mn  Mn137  1  0.50312376  0.49941226  0.66869572  1
  Mn  Mn138  1  0.83336923  0.00195412  -0.00685188  1
  Mn  Mn139  1  0.83152337  0.00161658  0.32884866  1
  Mn  Mn140  1  0.83203391  0.00043237  0.66088958  1
  Mn  Mn141  1  0.83463023  0.49722294  -0.00414450  1
  Mn  Mn142  1  0.83175106  0.49804594  0.32994332  1
  Mn  Mn143  1  0.83163330  0.49985647  0.66265775  1
  O  O144  1  0.15620566  0.13003697  0.02816533  1
  O  O145  1  0.17170519  0.12610315  0.34232226  1
  O  O146  1  0.16014036  0.12674133  0.67376386  1
  O  O147  1  0.15717394  0.62196302  0.01554813  1
  O  O148  1  0.15297868  0.62393859  0.35858701  1
  O  O149  1  0.15328816  0.62408482  0.69730762  1
  O  O150  1  0.49371658  0.12668462  0.03040844  1
  O  O151  1  0.49274406  0.12678485  0.36046266  1
  O  O152  1  0.50858363  0.12658260  0.68995445  1
  O  O153  1  0.49361212  0.62258210  0.01367772  1
  O  O154  1  0.50443766  0.62221195  0.34432760  1
  O  O155  1  0.50320151  0.62557357  0.68125213  1
  O  O156  1  0.83054557  0.12972175  0.02172858  1
  O  O157  1  0.82777156  0.12755303  0.35006966  1
  O  O158  1  0.82587735  0.12691185  0.68297195  1
  O  O159  1  0.82579592  0.61985857  0.02151829  1
  O  O160  1  0.82128551  0.62124220  0.34885146  1
  O  O161  1  0.82229444  0.62258929  0.68585747  1
  O  O162  1  0.17218653  0.37559243  0.31343800  1
  O  O163  1  0.16855199  0.38277808  0.64764562  1
  O  O164  1  0.17571484  0.37687028  0.97474285  1
  O  O165  1  0.16796864  0.87372652  0.30837993  1
  O  O166  1  0.16220865  0.86677486  0.64636489  1
  O  O167  1  0.17669266  0.87165512  0.99090749  1
  O  O168  1  0.49987149  0.37177498  0.31230557  1
  O  O169  1  0.50355460  0.37402106  0.64397542  1
  O  O170  1  0.50599095  0.37296948  0.97602180  1
  O  O171  1  0.50754903  0.87914766  0.31164437  1
  O  O172  1  0.50666681  0.87384782  0.64466124  1
  O  O173  1  0.50684619  0.87876028  0.97745164  1
  O  O174  1  0.83462698  0.37448911  0.30687376  1
  O  O175  1  0.83041901  0.37703770  0.63857852  1
  O  O176  1  0.84297974  0.37405256  0.96507180  1
  O  O177  1  0.82386474  0.87583585  0.31781564  1
  O  O178  1  0.84496569  0.87262297  0.65037779  1
  O  O179  1  0.84591680  0.87662158  0.98334501  1
  O  O180  1  -0.00498106  0.37579775  0.18818535  1
  O  O181  1  -0.01355616  0.37886356  0.51051989  1
  O  O182  1  -0.01022120  0.37710434  0.85673207  1
  O  O183  1  0.00248791  0.87421671  0.17086763  1
  O  O184  1  0.00073045  0.86911979  0.52025571  1
  O  O185  1  -0.00438801  0.87170357  0.85544449  1
  O  O186  1  0.33379979  0.37361176  0.19128336  1
  O  O187  1  0.33636285  0.37811244  0.51093647  1
  O  O188  1  0.32974530  0.37433638  0.85885963  1
  O  O189  1  0.33445197  0.87724020  0.17882772  1
  O  O190  1  0.34060817  0.87148676  0.51167393  1
  O  O191  1  0.33904687  0.87690839  0.85896645  1
  O  O192  1  0.67972319  0.37247165  0.18506072  1
  O  O193  1  0.67738448  0.37297500  0.51744439  1
  O  O194  1  0.67775912  0.37215475  0.85858794  1
  O  O195  1  0.66486613  0.88101006  0.18942020  1
  O  O196  1  0.66667846  0.87946465  0.52282308  1
  O  O197  1  0.66496183  0.87865250  0.86118194  1
  O  O198  1  0.00498955  0.13032309  0.14103909  1
  O  O199  1  -0.00365109  0.12873241  0.49115122  1
  O  O200  1  -0.00227584  0.12819646  0.81512078  1
  O  O201  1  -0.00332199  0.61926894  0.14135052  1
  O  O202  1  0.00537901  0.62242760  0.47299358  1
  O  O203  1  0.00513984  0.62310886  0.81122432  1
  O  O204  1  0.32983211  0.12732728  0.14039429  1
  O  O205  1  0.33841904  0.12590811  0.48092076  1
  O  O206  1  0.34000058  0.12662364  0.82803372  1
  O  O207  1  0.33613305  0.62154947  0.14580569  1
  O  O208  1  0.32439660  0.62505606  0.47579865  1
  O  O209  1  0.33147453  0.62251827  0.81775902  1
  O  O210  1  0.65828280  0.12738384  0.13855499  1
  O  O211  1  0.65143862  0.12586269  0.47217692  1
  O  O212  1  0.65639214  0.12606189  0.80537398  1
  O  O213  1  0.67165611  0.61841827  0.13783518  1
  O  O214  1  0.66871258  0.62031649  0.47205854  1
  O  O215  1  0.67165829  0.62238004  0.80797885  1
  O  O216  1  0.09534854  0.01106539  0.23683989  1
  O  O217  1  0.07889278  -0.00229561  0.58615026  1
  O  O218  1  0.07903330  0.00975389  0.92238703  1
  O  O219  1  0.08262920  0.50998919  0.25665961  1
  O  O220  1  0.08499894  0.52147129  0.58543362  1
  O  O221  1  0.08540706  0.51393233  0.91735743  1
  O  O222  1  0.42452358  0.02110843  0.24336298  1
  O  O223  1  0.42773397  0.01225510  0.57757105  1
  O  O224  1  0.42742895  0.02037849  0.91515622  1
  O  O225  1  0.42070994  0.50927130  0.25176265  1
  O  O226  1  0.41243369  0.51495129  0.58757715  1
  O  O227  1  0.41230078  0.50739975  0.92423010  1
  O  O228  1  0.75523747  0.02783653  0.23701805  1
  O  O229  1  0.75386985  0.02706866  0.56862221  1
  O  O230  1  0.75612960  0.02652734  0.90192980  1
  O  O231  1  0.75669284  0.51777440  0.23874450  1
  O  O232  1  0.75489706  0.52063570  0.57344022  1
  O  O233  1  0.75925037  0.52032408  0.90762537  1
  O  O234  1  0.25943822  0.22844926  0.25450935  1
  O  O235  1  0.25255007  0.24734001  0.58247447  1
  O  O236  1  0.25878276  0.23576934  0.93417951  1
  O  O237  1  0.25798366  0.72732517  0.26722872  1
  O  O238  1  0.25083983  0.72162728  0.59398725  1
  O  O239  1  0.25540646  0.72657583  0.92713815  1
  O  O240  1  0.58738654  0.22922899  0.26182558  1
  O  O241  1  0.59066786  0.22961707  0.58955131  1
  O  O242  1  0.59158836  0.23014599  0.92425616  1
  O  O243  1  0.59662410  0.73904496  0.26327189  1
  O  O244  1  0.59524188  0.73775797  0.59569668  1
  O  O245  1  0.59443520  0.73609210  0.93295012  1
  O  O246  1  0.91650271  0.23475490  0.24050679  1
  O  O247  1  0.91352001  0.23476888  0.58249548  1
  O  O248  1  0.92013069  0.22471243  0.91933687  1
  O  O249  1  0.91701285  0.72788957  0.24879690  1
  O  O250  1  0.91989076  0.72381452  0.58319135  1
  O  O251  1  0.92088985  0.72356142  0.91606982  1
  O  O252  1  0.08108693  0.47378565  0.08130381  1
  O  O253  1  0.08402005  0.47626282  0.42110606  1
  O  O254  1  0.08428164  0.48095417  0.75785880  1
  O  O255  1  0.08076996  0.97798308  0.07751941  1
  O  O256  1  0.08226357  0.98515844  0.42003566  1
  O  O257  1  0.07647093  0.98423127  0.74663369  1
  O  O258  1  0.41275775  0.47587197  0.08429407  1
  O  O259  1  0.41450054  0.49020197  0.41648009  1
  O  O260  1  0.41769116  0.48684295  0.75822037  1
  O  O261  1  0.40841540  0.98024626  0.07530168  1
  O  O262  1  0.41726574  0.98847421  0.41551443  1
  O  O263  1  0.42141364  0.98829545  0.75506852  1
  O  O264  1  0.74768440  0.47360382  0.07165967  1
  O  O265  1  0.74689268  0.47943298  0.40978617  1
  O  O266  1  0.74695842  0.47994037  0.74439976  1
  O  O267  1  0.74150102  0.98832451  0.06215556  1
  O  O268  1  0.73306845  0.99240933  0.40247988  1
  O  O269  1  0.73959357  0.98684809  0.72981255  1
  O  O270  1  0.24240012  0.27335962  0.09373068  1
  O  O271  1  0.24521419  0.26671267  0.42029974  1
  O  O272  1  0.24599339  0.26436491  0.76186910  1
  O  O273  1  0.24613862  0.76545880  0.09131554  1
  O  O274  1  0.23763831  0.76292324  0.43346480  1
  O  O275  1  0.24467853  0.74982653  0.75727713  1
  O  O276  1  0.57509594  0.27325633  0.09321478  1
  O  O277  1  0.57112844  0.27026194  0.43068261  1
  O  O278  1  0.57874169  0.27175343  0.76130799  1
  O  O279  1  0.57694988  0.77308670  0.09249492  1
  O  O280  1  0.57800342  0.77462525  0.42572402  1
  O  O281  1  0.57955453  0.77449659  0.75989796  1
  O  O282  1  0.91415444  0.27143445  0.07981476  1
  O  O283  1  0.90721247  0.26320419  0.41937081  1
  O  O284  1  0.90626652  0.26276431  0.75713952  1
  O  O285  1  0.91720209  0.75439887  0.07524034  1
  O  O286  1  0.91025064  0.74698634  0.41267309  1
  O  O287  1  0.91119085  0.74866918  0.74765939  1
  O  O288  1  0.24616486  0.47805481  0.08957886  1
  O  O289  1  0.23971219  0.48618004  0.43126182  1
  O  O290  1  0.24287027  0.49023473  0.76342882  1
  O  O291  1  0.24052604  0.98598595  0.09757268  1
  O  O292  1  0.24395269  0.98401414  0.42290604  1
  O  O293  1  0.24807579  0.99457101  0.75494056  1
  O  O294  1  0.57864396  0.47293417  0.09301688  1
  O  O295  1  0.57663371  0.47516654  0.42573740  1
  O  O296  1  0.58106802  0.47764314  0.76104087  1
  O  O297  1  0.57378708  0.97976168  0.09180534  1
  O  O298  1  0.57503840  0.97704437  0.42682513  1
  O  O299  1  0.57879775  0.97583293  0.75749537  1
  O  O300  1  0.90954675  0.47528949  0.08285076  1
  O  O301  1  0.90594749  0.48987074  0.41877926  1
  O  O302  1  0.90675125  0.49104380  0.75805627  1
  O  O303  1  0.92104541  0.99802943  0.07459779  1
  O  O304  1  0.91114376  0.99846375  0.41709219  1
  O  O305  1  0.91566173  0.99397760  0.74692428  1
  O  O306  1  0.08086149  0.28232239  0.08135516  1
  O  O307  1  0.08191712  0.26965706  0.41559641  1
  O  O308  1  0.08460486  0.26993524  0.75943795  1
  O  O309  1  0.07952026  0.76691426  0.07551011  1
  O  O310  1  0.08282478  0.76856283  0.41850600  1
  O  O311  1  0.06980616  0.76756348  0.73841120  1
  O  O312  1  0.40896778  0.27543392  0.08094782  1
  O  O313  1  0.41107257  0.26599037  0.41072540  1
  O  O314  1  0.42106945  0.26217373  0.75550204  1
  O  O315  1  0.41444356  0.76968076  0.07981118  1
  O  O316  1  0.41819796  0.75631096  0.41718345  1
  O  O317  1  0.41927855  0.76264971  0.75585103  1
  O  O318  1  0.74883235  0.27116809  0.06810614  1
  O  O319  1  0.74216504  0.26196865  0.40850412  1
  O  O320  1  0.74541642  0.26494583  0.74166345  1
  O  O321  1  0.73963682  0.76486341  0.06519196  1
  O  O322  1  0.73630709  0.76054069  0.39959692  1
  O  O323  1  0.73906088  0.76546796  0.73066921  1
  O  O324  1  0.26216182  0.02389314  0.25532492  1
  O  O325  1  0.24901143  0.00126609  0.58337870  1
  O  O326  1  0.25960954  0.01352631  0.93482687  1
  O  O327  1  0.25833330  0.51808355  0.26603482  1
  O  O328  1  0.25103432  0.52928169  0.59391570  1
  O  O329  1  0.25352029  0.52228882  0.92645290  1
  O  O330  1  0.58854003  0.02507427  0.26303113  1
  O  O331  1  0.59207660  0.01929808  0.59060160  1
  O  O332  1  0.58764238  0.02522654  0.92766938  1
  O  O333  1  0.59535017  0.50837000  0.25928989  1
  O  O334  1  0.59539831  0.51252290  0.59102640  1
  O  O335  1  0.59762811  0.51090067  0.92795428  1
  O  O336  1  0.91859369  0.01653949  0.24015858  1
  O  O337  1  0.91526947  0.01629262  0.58169980  1
  O  O338  1  0.91787880  0.02442056  0.91478329  1
  O  O339  1  0.91783839  0.52350519  0.25303587  1
  O  O340  1  0.91940621  0.52661337  0.58580015  1
  O  O341  1  0.92293698  0.52697410  0.92192907  1
  O  O342  1  0.09714078  0.24162721  0.23894884  1
  O  O343  1  0.08260547  0.25313440  0.57996606  1
  O  O344  1  0.07973193  0.24349996  0.92539719  1
  O  O345  1  0.08143366  0.73621537  0.25131701  1
  O  O346  1  0.08760039  0.72522726  0.58132917  1
  O  O347  1  0.08822650  0.73071647  0.91247546  1
  O  O348  1  0.42349448  0.22830927  0.24418303  1
  O  O349  1  0.42770152  0.23852992  0.57437189  1
  O  O350  1  0.42534147  0.23264487  0.91662035  1
  O  O351  1  0.42172263  0.73999320  0.25131307  1
  O  O352  1  0.41337280  0.73453465  0.58909844  1
  O  O353  1  0.41591662  0.74124399  0.92350418  1
  O  O354  1  0.75644687  0.22754416  0.23716802  1
  O  O355  1  0.75275564  0.22654491  0.57078519  1
  O  O356  1  0.75754877  0.22597738  0.90410723  1
  O  O357  1  0.75541650  0.72741468  0.23693544  1
  O  O358  1  0.75525395  0.72756388  0.57068060  1
  O  O359  1  0.75767356  0.72706924  0.90551432  1
