# generated using pymatgen
data_Ba17Sr5La8Pr42Mn72O216
_symmetry_space_group_name_H-M   'P 1'
_cell_length_a   16.67452522
_cell_length_b   15.69567266
_cell_length_c   16.81962398
_cell_angle_alpha   89.99991336
_cell_angle_beta   90.01901108
_cell_angle_gamma   89.99848454
_symmetry_Int_Tables_number   1
_chemical_formula_structural   Ba17Sr5La8Pr42Mn72O216
_chemical_formula_sum   'Ba17 Sr5 La8 Pr42 Mn72 O216'
_cell_volume   4401.99624932
_cell_formula_units_Z   1
loop_
 _symmetry_equiv_pos_site_id
 _symmetry_equiv_pos_as_xyz
  1  'x, y, z'
loop_
 _atom_site_type_symbol
 _atom_site_label
 _atom_site_symmetry_multiplicity
 _atom_site_fract_x
 _atom_site_fract_y
 _atom_site_fract_z
 _atom_site_occupancy
  Ba  Ba0  1  0.16505876  0.62621813  0.16917564  1
  Ba  Ba1  1  0.16923326  0.62557007  0.50019359  1
  Ba  Ba2  1  0.83363983  0.37258669  0.49938444  1
  Ba  Ba3  1  0.33362357  0.37494942  0.66744833  1
  Ba  Ba4  1  0.49737973  0.37642374  0.16595103  1
  Ba  Ba5  1  0.16912457  0.37569151  0.50168971  1
  Ba  Ba6  1  0.16390687  0.87273711  0.16629906  1
  Ba  Ba7  1  0.00103889  0.87446883  0.66950922  1
  Ba  Ba8  1  0.33194107  0.12468759  0.99941523  1
  Ba  Ba9  1  0.66985713  0.12328352  0.66520023  1
  Ba  Ba10  1  0.66798792  0.62740621  0.33255866  1
  Ba  Ba11  1  0.00134004  0.12683105  1.00009833  1
  Ba  Ba12  1  0.33542300  0.12463540  0.66686496  1
  Ba  Ba13  1  0.66652480  0.12608239  0.99683509  1
  Ba  Ba14  1  0.66476274  0.87545656  0.33105169  1
  Ba  Ba15  1  0.16487705  0.87340069  0.83319831  1
  Ba  Ba16  1  0.66662810  0.62684678  0.66351682  1
  Sr  Sr17  1  0.16754935  0.87556951  0.50012690  1
  Sr  Sr18  1  -0.00258596  0.37630528  0.66638887  1
  Sr  Sr19  1  0.83884423  0.12385319  0.50144226  1
  Sr  Sr20  1  0.50290843  0.62729966  0.50053292  1
  Sr  Sr21  1  0.49824543  0.87666585  0.83261332  1
  La  La22  1  0.83749478  0.62364180  0.83532315  1
  La  La23  1  0.16943080  0.12367251  0.50170086  1
  La  La24  1  0.66123021  0.37448967  -0.00056586  1
  La  La25  1  0.00053685  0.87311351  0.34023014  1
  La  La26  1  0.00109428  0.37692796  0.34078877  1
  La  La27  1  0.33084082  0.87223580  0.33440568  1
  La  La28  1  0.83825315  0.12499256  0.83586626  1
  La  La29  1  0.66534999  0.62446848  0.99567337  1
  Pr  Pr30  1  0.32608350  0.37480039  0.00051425  1
  Pr  Pr31  1  0.32957087  0.87511093  0.00404057  1
  Pr  Pr32  1  0.83944811  0.12352651  0.16836506  1
  Pr  Pr33  1  0.50087586  0.12492780  0.83553267  1
  Pr  Pr34  1  0.65708284  0.87816991  0.00155475  1
  Pr  Pr35  1  -0.00919701  0.37662213  0.00243607  1
  Pr  Pr36  1  0.00744003  0.62509648  1.00062855  1
  Pr  Pr37  1  0.00484246  0.62480019  0.66657421  1
  Pr  Pr38  1  0.33587161  0.38020820  0.33981885  1
  Pr  Pr39  1  0.15850042  0.36898622  0.82634737  1
  Pr  Pr40  1  0.50509221  0.12179954  0.50251060  1
  Pr  Pr41  1  0.66129740  0.37592533  0.33706603  1
  Pr  Pr42  1  0.82954116  0.87740574  0.49882403  1
  Pr  Pr43  1  0.33254757  0.87227569  0.66952942  1
  Pr  Pr44  1  0.83581952  0.62538349  0.17223038  1
  Pr  Pr45  1  0.82518482  0.37208103  0.82906954  1
  Pr  Pr46  1  0.49913579  0.62556439  0.83218156  1
  Pr  Pr47  1  0.17207837  0.62218638  0.83300197  1
  Pr  Pr48  1  0.50266838  0.12567162  0.17006502  1
  Pr  Pr49  1  0.66616755  0.87472653  0.66494440  1
  Pr  Pr50  1  0.66607715  0.37642299  0.66383581  1
  Pr  Pr51  1  0.33218098  0.62571682  1.00111965  1
  Pr  Pr52  1  0.49615367  0.62467336  0.17244372  1
  Pr  Pr53  1  0.50269065  0.37546807  0.49814018  1
  Pr  Pr54  1  0.00791626  0.12800265  0.33266023  1
  Pr  Pr55  1  0.82496789  0.37372887  0.16792863  1
  Pr  Pr56  1  0.33309689  0.62429531  0.33260558  1
  Pr  Pr57  1  0.67618466  0.12645498  0.32837085  1
  Pr  Pr58  1  0.82470227  0.87544724  0.16493479  1
  Pr  Pr59  1  0.83561818  0.62707489  0.50527421  1
  Pr  Pr60  1  0.33467041  0.12642668  0.32885241  1
  Pr  Pr61  1  0.00496769  0.12588655  0.66783827  1
  Pr  Pr62  1  0.49983340  0.37119805  0.82953754  1
  Pr  Pr63  1  0.82931177  0.87781600  0.83205692  1
  Pr  Pr64  1  0.16837708  0.12178220  0.16870401  1
  Pr  Pr65  1  0.49948010  0.87517197  0.50054313  1
  Pr  Pr66  1  -0.00742880  0.87443333  0.00564519  1
  Pr  Pr67  1  0.49919072  0.87218519  0.16221834  1
  Pr  Pr68  1  0.16117220  0.37528296  0.16526600  1
  Pr  Pr69  1  0.00270271  0.62203851  0.33647457  1
  Pr  Pr70  1  0.17217854  0.12206674  0.83367286  1
  Pr  Pr71  1  0.33598415  0.62831306  0.66226704  1
  Mn  Mn72  1  -0.00160600  -0.00015804  0.16952160  1
  Mn  Mn73  1  0.00071828  0.00066443  0.50135475  1
  Mn  Mn74  1  -0.00058310  -0.00002110  0.83530224  1
  Mn  Mn75  1  -0.00377712  0.49795776  0.16880865  1
  Mn  Mn76  1  0.00018996  0.50014859  0.50227355  1
  Mn  Mn77  1  -0.00099308  0.50020917  0.83529274  1
  Mn  Mn78  1  0.33445412  0.00052057  0.16661276  1
  Mn  Mn79  1  0.33495284  -0.00071980  0.49786842  1
  Mn  Mn80  1  0.33411976  -0.00231392  0.83360111  1
  Mn  Mn81  1  0.33051916  0.49760787  0.16673753  1
  Mn  Mn82  1  0.33773326  0.50204071  0.50120208  1
  Mn  Mn83  1  0.33503873  0.50098512  0.83511125  1
  Mn  Mn84  1  0.66578452  0.00125569  0.16505576  1
  Mn  Mn85  1  0.66830240  0.00035261  0.49762129  1
  Mn  Mn86  1  0.66571334  -0.00255294  0.83184117  1
  Mn  Mn87  1  0.66627966  0.50031830  0.16397816  1
  Mn  Mn88  1  0.66815350  0.50078086  0.49902851  1
  Mn  Mn89  1  0.66542861  0.50200701  0.83214362  1
  Mn  Mn90  1  -0.00090179  0.25109559  0.16817403  1
  Mn  Mn91  1  0.00160796  0.24831487  0.50051553  1
  Mn  Mn92  1  -0.00171313  0.25147349  0.83361617  1
  Mn  Mn93  1  -0.00477017  0.74983582  0.16978877  1
  Mn  Mn94  1  0.00014405  0.75096273  0.50280715  1
  Mn  Mn95  1  -0.00109938  0.74677965  0.83632998  1
  Mn  Mn96  1  0.33144433  0.25110618  0.16653135  1
  Mn  Mn97  1  0.33688797  0.24923714  0.49678441  1
  Mn  Mn98  1  0.33385833  0.25047487  0.83540347  1
  Mn  Mn99  1  0.33399854  0.74977012  0.16699466  1
  Mn  Mn100  1  0.33570626  0.75184312  0.50067704  1
  Mn  Mn101  1  0.33462843  0.74865991  0.83348461  1
  Mn  Mn102  1  0.66678145  0.24964794  0.16596784  1
  Mn  Mn103  1  0.66781866  0.24821716  0.49752508  1
  Mn  Mn104  1  0.66562637  0.25013575  0.83051239  1
  Mn  Mn105  1  0.66608768  0.75004952  0.16150044  1
  Mn  Mn106  1  0.66775637  0.75128867  0.49913630  1
  Mn  Mn107  1  0.66665839  0.75021916  0.83281380  1
  Mn  Mn108  1  0.16389224  0.25288943  -0.00118657  1
  Mn  Mn109  1  0.16987892  0.24996587  0.33156035  1
  Mn  Mn110  1  0.16614895  0.24954995  0.66671553  1
  Mn  Mn111  1  0.16563539  0.74805419  -0.00108693  1
  Mn  Mn112  1  0.16599058  0.75069405  0.33522518  1
  Mn  Mn113  1  0.16805432  0.74938985  0.66750960  1
  Mn  Mn114  1  0.49711758  0.25118150  -0.00095831  1
  Mn  Mn115  1  0.50043233  0.24856553  0.33460672  1
  Mn  Mn116  1  0.50180494  0.24880564  0.66439710  1
  Mn  Mn117  1  0.49835327  0.74838932  -0.00075878  1
  Mn  Mn118  1  0.49894168  0.75151793  0.33288538  1
  Mn  Mn119  1  0.50056179  0.75247704  0.66703207  1
  Mn  Mn120  1  0.83205550  0.25262419  -0.00041383  1
  Mn  Mn121  1  0.83581139  0.24826856  0.33188247  1
  Mn  Mn122  1  0.83469348  0.24978557  0.66663137  1
  Mn  Mn123  1  0.83182626  0.74812082  0.00126846  1
  Mn  Mn124  1  0.83523749  0.75047853  0.33480921  1
  Mn  Mn125  1  0.83444900  0.75108817  0.66871261  1
  Mn  Mn126  1  0.16454088  -0.00086829  -0.00003869  1
  Mn  Mn127  1  0.16779132  -0.00070804  0.33513845  1
  Mn  Mn128  1  0.16808886  0.00003966  0.66597097  1
  Mn  Mn129  1  0.16450098  0.49886872  -0.00157004  1
  Mn  Mn130  1  0.16792260  0.50054362  0.33247735  1
  Mn  Mn131  1  0.16711029  0.49907290  0.66958008  1
  Mn  Mn132  1  0.49760009  -0.00059256  -0.00070542  1
  Mn  Mn133  1  0.49899857  0.00041757  0.33371006  1
  Mn  Mn134  1  0.50032190  -0.00156977  0.66694357  1
  Mn  Mn135  1  0.49685480  0.50244830  -0.00178283  1
  Mn  Mn136  1  0.50099805  0.50210878  0.33333863  1
  Mn  Mn137  1  0.50079335  0.49987721  0.66570937  1
  Mn  Mn138  1  0.83218038  -0.00102230  -0.00080013  1
  Mn  Mn139  1  0.83626513  0.00059492  0.33357227  1
  Mn  Mn140  1  0.83517739  0.00024759  0.66634988  1
  Mn  Mn141  1  0.83151048  0.50079606  0.00233775  1
  Mn  Mn142  1  0.83415800  0.50013342  0.33348446  1
  Mn  Mn143  1  0.83403615  0.49932059  0.66875058  1
  O  O144  1  0.16555513  0.13057372  0.02545310  1
  O  O145  1  0.16813127  0.12432950  0.35567248  1
  O  O146  1  0.16506183  0.12563153  0.68825785  1
  O  O147  1  0.16607865  0.62228595  0.01602810  1
  O  O148  1  0.16621217  0.62666932  0.34289015  1
  O  O149  1  0.17363930  0.62293363  0.68791676  1
  O  O150  1  0.49887975  0.12162940  0.02450376  1
  O  O151  1  0.49011111  0.12404659  0.36067324  1
  O  O152  1  0.50384809  0.12226003  0.69073320  1
  O  O153  1  0.49812427  0.62589111  0.02921760  1
  O  O154  1  0.49209056  0.62609458  0.34966128  1
  O  O155  1  0.49766221  0.62704175  0.68897787  1
  O  O156  1  0.83195313  0.12479219  0.02331831  1
  O  O157  1  0.82520508  0.12449375  0.35088290  1
  O  O158  1  0.83902509  0.12501546  0.69270515  1
  O  O159  1  0.82599414  0.62339298  0.03054394  1
  O  O160  1  0.83710348  0.62644639  0.35904793  1
  O  O161  1  0.83692515  0.62384002  0.69153662  1
  O  O162  1  0.16966649  0.37371990  0.31054306  1
  O  O163  1  0.16272981  0.37479078  0.66082549  1
  O  O164  1  0.16108274  0.37856122  0.97214138  1
  O  O165  1  0.16449519  0.87593945  0.32294753  1
  O  O166  1  0.17091816  0.87558030  0.65166988  1
  O  O167  1  0.16747443  0.86909082  0.98983921  1
  O  O168  1  0.50426959  0.37518125  0.32010436  1
  O  O169  1  0.50293036  0.37354906  0.64351908  1
  O  O170  1  0.49612891  0.38180945  0.97400732  1
  O  O171  1  0.49427555  0.87720073  0.30492343  1
  O  O172  1  0.49076496  0.87599603  0.64454378  1
  O  O173  1  0.49878841  0.87151011  0.98199364  1
  O  O174  1  0.84233275  0.37245793  0.31056203  1
  O  O175  1  0.83033730  0.37592266  0.65562562  1
  O  O176  1  0.83577288  0.38125009  0.97377683  1
  O  O177  1  0.84450207  0.87612805  0.30902302  1
  O  O178  1  0.83316477  0.87632999  0.64352037  1
  O  O179  1  0.84227707  0.87019047  0.97604281  1
  O  O180  1  -0.00086314  0.37290187  0.19638765  1
  O  O181  1  0.00186516  0.37205803  0.51342599  1
  O  O182  1  0.00916095  0.37796106  0.85980628  1
  O  O183  1  -0.01093131  0.87686979  0.19356129  1
  O  O184  1  -0.00224224  0.87624440  0.51327924  1
  O  O185  1  -0.00405578  0.86918206  0.86057215  1
  O  O186  1  0.32533373  0.37194905  0.19514604  1
  O  O187  1  0.34263053  0.37641943  0.50961874  1
  O  O188  1  0.34456250  0.37857482  0.85767404  1
  O  O189  1  0.34147604  0.87517570  0.18855529  1
  O  O190  1  0.34034723  0.87576406  0.52532091  1
  O  O191  1  0.33738018  0.86969550  0.86081892  1
  O  O192  1  0.67060026  0.37128172  0.19312724  1
  O  O193  1  0.66232038  0.37278479  0.51754282  1
  O  O194  1  0.66799142  0.37882523  0.85662857  1
  O  O195  1  0.66428558  0.87582998  0.17627191  1
  O  O196  1  0.67305885  0.87643071  0.51818204  1
  O  O197  1  0.67392398  0.87098301  0.85978468  1
  O  O198  1  0.00095825  0.12707080  0.15397758  1
  O  O199  1  0.00366030  0.12427554  0.47661328  1
  O  O200  1  -0.01223078  0.12919915  0.81444344  1
  O  O201  1  -0.01089045  0.62104202  0.14283157  1
  O  O202  1  -0.00936942  0.62691650  0.48060832  1
  O  O203  1  -0.01246672  0.62221016  0.81162389  1
  O  O204  1  0.33463305  0.12666818  0.15344620  1
  O  O205  1  0.33729072  0.12263216  0.47253469  1
  O  O206  1  0.32647585  0.12509949  0.82427214  1
  O  O207  1  0.34037118  0.62510282  0.14561871  1
  O  O208  1  0.34009581  0.62816895  0.47693962  1
  O  O209  1  0.33284787  0.62380002  0.80627085  1
  O  O210  1  0.66738670  0.12520078  0.15334770  1
  O  O211  1  0.65923188  0.12404272  0.47261599  1
  O  O212  1  0.65814763  0.12400459  0.82123476  1
  O  O213  1  0.67195464  0.62851224  0.14023044  1
  O  O214  1  0.67254670  0.62741279  0.48921721  1
  O  O215  1  0.66388586  0.62638219  0.81869138  1
  O  O216  1  0.08801780  0.02112099  0.24992979  1
  O  O217  1  0.08610694  0.02192005  0.58198574  1
  O  O218  1  0.08719083  0.01758244  0.91027973  1
  O  O219  1  0.07748637  0.51043833  0.25121029  1
  O  O220  1  0.08039634  0.51580035  0.59010814  1
  O  O221  1  0.08541745  0.52536533  0.91289490  1
  O  O222  1  0.42108964  0.02386991  0.24743304  1
  O  O223  1  0.42456960  0.01596107  0.57325197  1
  O  O224  1  0.42316828  0.01490853  0.91069576  1
  O  O225  1  0.41569993  0.51774066  0.25168879  1
  O  O226  1  0.41701072  0.52126957  0.58715888  1
  O  O227  1  0.41758832  0.53145178  0.91626274  1
  O  O228  1  0.75824445  0.01491330  0.24217509  1
  O  O229  1  0.75878752  0.01002767  0.57661149  1
  O  O230  1  0.75862683  0.01136710  0.90668364  1
  O  O231  1  0.75923244  0.51228711  0.24127531  1
  O  O232  1  0.75690889  0.51304936  0.57753997  1
  O  O233  1  0.75226869  0.52095030  0.91704998  1
  O  O234  1  0.24884624  0.22374040  0.24755528  1
  O  O235  1  0.25027682  0.23528441  0.57315981  1
  O  O236  1  0.25169559  0.24824236  0.91976612  1
  O  O237  1  0.25748663  0.73992131  0.25567221  1
  O  O238  1  0.25899305  0.73865419  0.58828836  1
  O  O239  1  0.25238570  0.72479133  0.91300279  1
  O  O240  1  0.58537288  0.22619532  0.25668698  1
  O  O241  1  0.58252852  0.23415519  0.57729387  1
  O  O242  1  0.57928357  0.24258905  0.90760116  1
  O  O243  1  0.57780119  0.73698107  0.23834060  1
  O  O244  1  0.58387800  0.75122719  0.58208672  1
  O  O245  1  0.58089282  0.72844256  0.91920990  1
  O  O246  1  0.92075460  0.22558138  0.25304157  1
  O  O247  1  0.92356613  0.23277979  0.59185052  1
  O  O248  1  0.91913309  0.24523712  0.92026431  1
  O  O249  1  0.91914458  0.72350934  0.25639738  1
  O  O250  1  0.91994159  0.72777380  0.59051152  1
  O  O251  1  0.92122914  0.72346711  0.92994885  1
  O  O252  1  0.07370645  0.47831150  0.08167261  1
  O  O253  1  0.08170775  0.49075284  0.41181413  1
  O  O254  1  0.08011321  0.49039579  0.75304642  1
  O  O255  1  0.07277018  0.98248019  0.07945832  1
  O  O256  1  0.07967984  0.98809571  0.41340074  1
  O  O257  1  0.07915437  1.00056175  0.75021802  1
  O  O258  1  0.40442184  0.48532682  0.07545526  1
  O  O259  1  0.42188592  0.48246632  0.41717269  1
  O  O260  1  0.42395094  0.48745730  0.75808287  1
  O  O261  1  0.41437113  0.97621795  0.08079406  1
  O  O262  1  0.41404806  0.97470125  0.41203111  1
  O  O263  1  0.41479135  0.98236982  0.74708005  1
  O  O264  1  0.74613285  0.47377440  0.07895156  1
  O  O265  1  0.74581566  0.48163542  0.40586686  1
  O  O266  1  0.74724234  0.48036980  0.74884958  1
  O  O267  1  0.74583277  0.97676287  0.07301387  1
  O  O268  1  0.75238337  0.98570153  0.41345036  1
  O  O269  1  0.74723588  0.97790052  0.74490922  1
  O  O270  1  0.24054629  0.27604245  0.08615614  1
  O  O271  1  0.26031477  0.26284803  0.40456362  1
  O  O272  1  0.24355871  0.26180913  0.75948468  1
  O  O273  1  0.25816690  0.76025220  0.07820704  1
  O  O274  1  0.25420842  0.76666182  0.41818144  1
  O  O275  1  0.25638138  0.76311320  0.74729393  1
  O  O276  1  0.58111349  0.26490427  0.07906039  1
  O  O277  1  0.58117057  0.26941456  0.41774042  1
  O  O278  1  0.58585915  0.27496732  0.74679626  1
  O  O279  1  0.58186869  0.76926756  0.07888052  1
  O  O280  1  0.57783003  0.76511209  0.41903524  1
  O  O281  1  0.58289072  0.77182325  0.74660814  1
  O  O282  1  0.91068347  0.27219571  0.09087531  1
  O  O283  1  0.92112672  0.25745472  0.41215243  1
  O  O284  1  0.90960640  0.26995201  0.76140070  1
  O  O285  1  0.90581087  0.77019474  0.09265739  1
  O  O286  1  0.91440603  0.77081767  0.42234710  1
  O  O287  1  0.90675007  0.76384964  0.76442955  1
  O  O288  1  0.24212093  0.47454900  0.08535249  1
  O  O289  1  0.25977573  0.49122532  0.41188702  1
  O  O290  1  0.24247852  0.48422698  0.76506008  1
  O  O291  1  0.25111772  0.98652600  0.08299413  1
  O  O292  1  0.25309334  0.98254321  0.41400942  1
  O  O293  1  0.25460220  0.98427306  0.74494751  1
  O  O294  1  0.58560992  0.48706113  0.07304837  1
  O  O295  1  0.58466419  0.48320141  0.41470526  1
  O  O296  1  0.58334406  0.47690186  0.74708840  1
  O  O297  1  0.57550891  0.98179704  0.08667640  1
  O  O298  1  0.57307387  0.98406754  0.42243567  1
  O  O299  1  0.58521437  0.97568509  0.74710699  1
  O  O300  1  0.90926171  0.47396811  0.09076745  1
  O  O301  1  0.92025104  0.48840961  0.41268770  1
  O  O302  1  0.90975534  0.48092258  0.76318053  1
  O  O303  1  0.90682883  0.98103696  0.09032154  1
  O  O304  1  0.91455133  0.98227377  0.42077108  1
  O  O305  1  0.90795324  0.98408444  0.76044580  1
  O  O306  1  0.07605887  0.27740951  0.08017997  1
  O  O307  1  0.08343766  0.26127283  0.40808762  1
  O  O308  1  0.07334839  0.26224175  0.74751658  1
  O  O309  1  0.06764235  0.76057593  0.07795046  1
  O  O310  1  0.07766373  0.76082699  0.41567353  1
  O  O311  1  0.08079753  0.74619834  0.75122032  1
  O  O312  1  0.40502246  0.27017638  0.07768224  1
  O  O313  1  0.41875451  0.27174957  0.41286390  1
  O  O314  1  0.42266559  0.26018553  0.75485582  1
  O  O315  1  0.41746182  0.77031980  0.08350002  1
  O  O316  1  0.41523417  0.77492916  0.41697094  1
  O  O317  1  0.41508024  0.76597498  0.74959810  1
  O  O318  1  0.74696407  0.27533673  0.07665563  1
  O  O319  1  0.74010536  0.26351342  0.40074422  1
  O  O320  1  0.74502069  0.26991952  0.74594905  1
  O  O321  1  0.74396592  0.77506162  0.07318113  1
  O  O322  1  0.75501463  0.76688541  0.41713270  1
  O  O323  1  0.74877808  0.77388984  0.74464476  1
  O  O324  1  0.25270061  0.01886025  0.25190235  1
  O  O325  1  0.24854499  0.01445909  0.57452797  1
  O  O326  1  0.24713896  0.00876851  0.91389066  1
  O  O327  1  0.25541725  0.51531093  0.25341693  1
  O  O328  1  0.25699671  0.51424520  0.59033144  1
  O  O329  1  0.25798106  0.51921459  0.92255776  1
  O  O330  1  0.58387625  0.02528683  0.25643681  1
  O  O331  1  0.58373191  0.00698736  0.58139788  1
  O  O332  1  0.58220658  0.00699257  0.91667768  1
  O  O333  1  0.58009452  0.51782291  0.24334765  1
  O  O334  1  0.58228217  0.50557565  0.58035794  1
  O  O335  1  0.58013843  0.52206996  0.91339254  1
  O  O336  1  0.92165361  0.02657733  0.25667530  1
  O  O337  1  0.92424917  0.02097419  0.59075140  1
  O  O338  1  0.91659923  0.01103490  0.92041156  1
  O  O339  1  0.91809121  0.52312752  0.25358960  1
  O  O340  1  0.91810498  0.52061214  0.58954660  1
  O  O341  1  0.92181105  0.52101133  0.92930596  1
  O  O342  1  0.08922056  0.23008782  0.24527739  1
  O  O343  1  0.08581606  0.22600057  0.58034887  1
  O  O344  1  0.09296453  0.23283566  0.90382951  1
  O  O345  1  0.07541158  0.73888263  0.25358411  1
  O  O346  1  0.08131353  0.73372620  0.58758950  1
  O  O347  1  0.08366862  0.72328373  0.91277708  1
  O  O348  1  0.42050072  0.22984086  0.24963325  1
  O  O349  1  0.42419018  0.23332498  0.57408588  1
  O  O350  1  0.42282376  0.23373958  0.91049262  1
  O  O351  1  0.41575581  0.72948855  0.24940486  1
  O  O352  1  0.41767277  0.73257553  0.58498213  1
  O  O353  1  0.41606733  0.72266315  0.91814402  1
  O  O354  1  0.76017905  0.23115882  0.24151955  1
  O  O355  1  0.75318560  0.23701502  0.57469612  1
  O  O356  1  0.75600004  0.23967480  0.90557754  1
  O  O357  1  0.75822891  0.74080819  0.23814399  1
  O  O358  1  0.76064752  0.74046087  0.57727052  1
  O  O359  1  0.75676744  0.72705832  0.91457191  1
