# generated using pymatgen
data_Ba17Sr5La8Pr42Mn72O216
_symmetry_space_group_name_H-M   'P 1'
_cell_length_a   16.68063695
_cell_length_b   15.70176148
_cell_length_c   16.82243434
_cell_angle_alpha   89.99595828
_cell_angle_beta   90.00593731
_cell_angle_gamma   90.01588224
_symmetry_Int_Tables_number   1
_chemical_formula_structural   Ba17Sr5La8Pr42Mn72O216
_chemical_formula_sum   'Ba17 Sr5 La8 Pr42 Mn72 O216'
_cell_volume   4406.05412642
_cell_formula_units_Z   1
loop_
 _symmetry_equiv_pos_site_id
 _symmetry_equiv_pos_as_xyz
  1  'x, y, z'
loop_
 _atom_site_type_symbol
 _atom_site_label
 _atom_site_symmetry_multiplicity
 _atom_site_fract_x
 _atom_site_fract_y
 _atom_site_fract_z
 _atom_site_occupancy
  Ba  Ba0  1  0.83773593  0.87579564  0.16659131  1
  Ba  Ba1  1  0.49789191  0.62382964  0.16641845  1
  Ba  Ba2  1  0.16331221  0.62384666  0.16371970  1
  Ba  Ba3  1  0.50525843  0.87544082  0.83236954  1
  Ba  Ba4  1  0.33630225  0.87447870  0.33511561  1
  Ba  Ba5  1  0.00491483  0.87504754  0.66621526  1
  Ba  Ba6  1  0.33070842  0.62351730  0.66945777  1
  Ba  Ba7  1  0.33258654  0.37288749  -0.00127279  1
  Ba  Ba8  1  0.50235594  0.87508821  0.16711270  1
  Ba  Ba9  1  0.49887601  0.12573910  0.16808585  1
  Ba  Ba10  1  0.67022664  0.87528580  0.00064605  1
  Ba  Ba11  1  0.49558979  0.37526409  0.16537978  1
  Ba  Ba12  1  0.50112697  0.12630055  0.83328108  1
  Ba  Ba13  1  0.83058547  0.12642093  0.50180030  1
  Ba  Ba14  1  0.83296829  0.37482240  0.16568015  1
  Ba  Ba15  1  0.00303578  0.87534676  0.33358238  1
  Ba  Ba16  1  0.83040454  0.62408483  0.50220205  1
  Sr  Sr17  1  0.17230942  0.87431230  0.49779563  1
  Sr  Sr18  1  0.50180056  0.37505462  0.83122228  1
  Sr  Sr19  1  0.49636781  0.62396869  0.83633370  1
  Sr  Sr20  1  0.17085332  0.37409637  0.49691224  1
  Sr  Sr21  1  0.33598209  0.37529478  0.33291840  1
  La  La22  1  -0.00649591  0.12798152  0.99980693  1
  La  La23  1  0.00142965  0.37578817  0.00317268  1
  La  La24  1  0.82908025  0.62666099  0.17110708  1
  La  La25  1  0.33067786  0.12523509  0.66629196  1
  La  La26  1  0.67620179  0.87552283  0.67136613  1
  La  La27  1  0.16847380  0.37546849  0.16457709  1
  La  La28  1  0.84155657  0.87479281  0.83380509  1
  La  La29  1  0.33559210  0.37410008  0.67016758  1
  Pr  Pr30  1  0.66398151  0.12620200  0.33089980  1
  Pr  Pr31  1  0.17000117  0.37528333  0.82915490  1
  Pr  Pr32  1  0.32367944  0.62288754  0.33163192  1
  Pr  Pr33  1  0.66112789  0.37539814  0.33305446  1
  Pr  Pr34  1  0.17694628  0.87641827  0.82782772  1
  Pr  Pr35  1  -0.00508713  0.62651891  0.33117470  1
  Pr  Pr36  1  0.83589673  0.37537086  0.83247322  1
  Pr  Pr37  1  0.49918906  0.37731127  0.49878835  1
  Pr  Pr38  1  0.66885950  0.87436806  0.33362359  1
  Pr  Pr39  1  0.16209086  0.62646160  0.84057411  1
  Pr  Pr40  1  0.33993902  0.87441493  0.66579858  1
  Pr  Pr41  1  -0.01106694  0.62225717  1.00010057  1
  Pr  Pr42  1  0.17359507  0.87410507  0.16312915  1
  Pr  Pr43  1  0.66212511  0.62370569  0.33123428  1
  Pr  Pr44  1  0.32505677  0.12600073  0.33086627  1
  Pr  Pr45  1  0.82896852  0.12357749  0.17187043  1
  Pr  Pr46  1  0.16289433  0.62757294  0.49976418  1
  Pr  Pr47  1  0.33596679  0.62098562  0.99898862  1
  Pr  Pr48  1  0.49222199  0.12707348  0.50193879  1
  Pr  Pr49  1  0.50615372  0.87272519  0.49808326  1
  Pr  Pr50  1  0.00490872  0.87439904  0.00604901  1
  Pr  Pr51  1  0.65478271  0.62351038  0.66307381  1
  Pr  Pr52  1  0.49026221  0.62298242  0.50258680  1
  Pr  Pr53  1  0.16199438  0.12436609  0.83533953  1
  Pr  Pr54  1  0.34466005  0.87522889  0.00293081  1
  Pr  Pr55  1  0.66047492  0.37379293  0.00240964  1
  Pr  Pr56  1  0.82850289  0.62680047  0.83254910  1
  Pr  Pr57  1  0.67218841  0.37441208  0.66916139  1
  Pr  Pr58  1  0.16502367  0.12630752  0.16693950  1
  Pr  Pr59  1  0.16379244  0.12194078  0.49913896  1
  Pr  Pr60  1  0.33375413  0.12540163  0.99954566  1
  Pr  Pr61  1  0.66486701  0.12590129  1.00206605  1
  Pr  Pr62  1  0.83149933  0.12362605  0.83190554  1
  Pr  Pr63  1  0.83394594  0.37578246  0.49361968  1
  Pr  Pr64  1  0.66068863  0.62392938  1.00049577  1
  Pr  Pr65  1  -0.00158467  0.62541028  0.66496469  1
  Pr  Pr66  1  0.00190859  0.37921441  0.33646761  1
  Pr  Pr67  1  0.65636518  0.12662883  0.66254579  1
  Pr  Pr68  1  0.84159297  0.87513542  0.49442627  1
  Pr  Pr69  1  -0.00090406  0.12608871  0.33034176  1
  Pr  Pr70  1  -0.00116702  0.12458916  0.66260262  1
  Pr  Pr71  1  0.00028144  0.37517419  0.66640292  1
  Mn  Mn72  1  0.00326085  0.00176332  0.16531583  1
  Mn  Mn73  1  0.00150808  0.00133202  0.49938539  1
  Mn  Mn74  1  0.00135752  0.00139406  0.83533904  1
  Mn  Mn75  1  -0.00153065  0.49924396  0.16742561  1
  Mn  Mn76  1  0.00186122  0.49897438  0.50122002  1
  Mn  Mn77  1  -0.00015468  0.49859569  0.83311056  1
  Mn  Mn78  1  0.33208583  0.00107591  0.16570216  1
  Mn  Mn79  1  0.33368475  0.00195841  0.49991280  1
  Mn  Mn80  1  0.33288279  0.00096663  0.83248432  1
  Mn  Mn81  1  0.33025703  0.50038269  0.16667085  1
  Mn  Mn82  1  0.33070075  0.49782806  0.49981168  1
  Mn  Mn83  1  0.33146453  0.49836321  0.83209734  1
  Mn  Mn84  1  0.66832275  0.00132490  0.16785154  1
  Mn  Mn85  1  0.66473768  -0.00020826  0.50204688  1
  Mn  Mn86  1  0.67138922  0.00145756  0.83231726  1
  Mn  Mn87  1  0.66605656  0.49895153  0.16611828  1
  Mn  Mn88  1  0.66426622  0.49932891  0.50101645  1
  Mn  Mn89  1  0.66821597  0.49940288  0.83279359  1
  Mn  Mn90  1  0.00046639  0.25014445  0.16607195  1
  Mn  Mn91  1  0.00130524  0.25139563  0.49964092  1
  Mn  Mn92  1  -0.00018453  0.25141024  0.83229181  1
  Mn  Mn93  1  0.00149564  0.74917958  0.16589777  1
  Mn  Mn94  1  0.00178281  0.74883750  0.50003268  1
  Mn  Mn95  1  0.00155066  0.74879446  0.83608641  1
  Mn  Mn96  1  0.32995666  0.24849495  0.16704589  1
  Mn  Mn97  1  0.33189710  0.25026223  0.49947355  1
  Mn  Mn98  1  0.33190248  0.24885027  0.83243307  1
  Mn  Mn99  1  0.33253624  0.74888657  0.16607384  1
  Mn  Mn100  1  0.33283592  0.74889282  0.50043428  1
  Mn  Mn101  1  0.33223065  0.75075400  0.83333370  1
  Mn  Mn102  1  0.66659061  0.25139486  0.16659447  1
  Mn  Mn103  1  0.66438545  0.25169765  0.50049233  1
  Mn  Mn104  1  0.67041976  0.25107433  0.83359566  1
  Mn  Mn105  1  0.66755787  0.74865431  0.16738490  1
  Mn  Mn106  1  0.66481407  0.74975790  0.50247715  1
  Mn  Mn107  1  0.66938492  0.74831219  0.83154414  1
  Mn  Mn108  1  0.16437859  0.24820700  -0.00085197  1
  Mn  Mn109  1  0.16546924  0.25144252  0.33325708  1
  Mn  Mn110  1  0.16561104  0.25015859  0.66470910  1
  Mn  Mn111  1  0.16650769  0.75213685  -0.00376719  1
  Mn  Mn112  1  0.16635796  0.74936430  0.33369326  1
  Mn  Mn113  1  0.16817722  0.74969141  0.66753771  1
  Mn  Mn114  1  0.49958192  0.24903587  -0.00144923  1
  Mn  Mn115  1  0.49906239  0.25100910  0.33688130  1
  Mn  Mn116  1  0.49928065  0.25116865  0.66579986  1
  Mn  Mn117  1  0.50048626  0.74835360  -0.00110615  1
  Mn  Mn118  1  0.50094507  0.74857479  0.33698451  1
  Mn  Mn119  1  0.49969068  0.74913513  0.66599587  1
  Mn  Mn120  1  0.83273511  0.25036132  -0.00145565  1
  Mn  Mn121  1  0.83357211  0.25133986  0.33373821  1
  Mn  Mn122  1  0.83396784  0.25177267  0.66649182  1
  Mn  Mn123  1  0.83404857  0.74715399  0.00033351  1
  Mn  Mn124  1  0.83177290  0.74936809  0.33582936  1
  Mn  Mn125  1  0.83448736  0.74885130  0.66702091  1
  Mn  Mn126  1  0.16532614  -0.00021895  -0.00218764  1
  Mn  Mn127  1  0.16630337  0.00086165  0.33327906  1
  Mn  Mn128  1  0.16845065  0.00064559  0.66630214  1
  Mn  Mn129  1  0.16496860  0.49937892  -0.00186837  1
  Mn  Mn130  1  0.16542075  0.49797025  0.33451396  1
  Mn  Mn131  1  0.16534615  0.49923086  0.66559446  1
  Mn  Mn132  1  0.50169816  0.00220466  0.00015899  1
  Mn  Mn133  1  0.50166227  0.00044864  0.33776411  1
  Mn  Mn134  1  0.49997183  0.00081489  0.66427058  1
  Mn  Mn135  1  0.49904598  0.49963801  -0.00324160  1
  Mn  Mn136  1  0.49827075  0.49939236  0.33606011  1
  Mn  Mn137  1  0.49939933  0.49811615  0.66730104  1
  Mn  Mn138  1  0.83570614  0.00349445  0.00031806  1
  Mn  Mn139  1  0.83311587  0.00146875  0.33582140  1
  Mn  Mn140  1  0.83474288  0.00137242  0.66683712  1
  Mn  Mn141  1  0.83111923  0.49961065  -0.00196868  1
  Mn  Mn142  1  0.83183675  0.49913836  0.33375331  1
  Mn  Mn143  1  0.83357005  0.49868552  0.66664284  1
  O  O144  1  0.17023965  0.12231516  0.02316485  1
  O  O145  1  0.16585362  0.12814790  0.35462086  1
  O  O146  1  0.16483932  0.12622689  0.69209221  1
  O  O147  1  0.18293469  0.62849237  0.00496214  1
  O  O148  1  0.16783952  0.62044887  0.35442292  1
  O  O149  1  0.15981947  0.62095120  0.69485799  1
  O  O150  1  0.50410044  0.12582692  0.00694274  1
  O  O151  1  0.51157733  0.12673409  0.35992193  1
  O  O152  1  0.50329615  0.12687057  0.67787521  1
  O  O153  1  0.50169026  0.62426358  0.00420559  1
  O  O154  1  0.51095270  0.62287921  0.36116002  1
  O  O155  1  0.50591681  0.62039468  0.68489030  1
  O  O156  1  0.83884557  0.13049941  0.02681386  1
  O  O157  1  0.83373598  0.12815305  0.34585509  1
  O  O158  1  0.84109718  0.12939766  0.68865768  1
  O  O159  1  0.83934928  0.62127970  0.02507246  1
  O  O160  1  0.83187931  0.62228847  0.34605935  1
  O  O161  1  0.84049373  0.62046786  0.68941366  1
  O  O162  1  0.15916242  0.37336214  0.30886497  1
  O  O163  1  0.16168146  0.37381337  0.64431952  1
  O  O164  1  0.15601638  0.37166626  0.97388491  1
  O  O165  1  0.16677800  0.87849101  0.31046450  1
  O  O166  1  0.17259963  0.87900838  0.64764564  1
  O  O167  1  0.14977410  0.87825541  0.96988511  1
  O  O168  1  0.50122964  0.37461347  0.32075231  1
  O  O169  1  0.50053497  0.37355002  0.64375194  1
  O  O170  1  0.50692502  0.37454463  0.98328900  1
  O  O171  1  0.50374629  0.87500599  0.32393453  1
  O  O172  1  0.49629793  0.87901724  0.64323320  1
  O  O173  1  0.49488143  0.87535641  0.99146194  1
  O  O174  1  0.83737300  0.37529111  0.32151223  1
  O  O175  1  0.83090991  0.37513266  0.63818706  1
  O  O176  1  0.83309428  0.37476308  0.97399807  1
  O  O177  1  0.82710091  0.87530504  0.32504861  1
  O  O178  1  0.82644221  0.87531511  0.64097824  1
  O  O179  1  0.84115833  0.87371985  0.97765095  1
  O  O180  1  0.00511562  0.37279009  0.19095411  1
  O  O181  1  -0.00245084  0.37514049  0.52321306  1
  O  O182  1  -0.00095159  0.37463066  0.86183717  1
  O  O183  1  0.00755333  0.87569963  0.17591915  1
  O  O184  1  -0.00540128  0.87501402  0.50894076  1
  O  O185  1  -0.00409500  0.87505739  0.86225370  1
  O  O186  1  0.32564267  0.37210672  0.18117918  1
  O  O187  1  0.33315506  0.37221420  0.52495351  1
  O  O188  1  0.32555349  0.37094405  0.84164884  1
  O  O189  1  0.32796482  0.87637928  0.17554114  1
  O  O190  1  0.33277109  0.87779551  0.52092187  1
  O  O191  1  0.32783630  0.87780650  0.85581246  1
  O  O192  1  0.66556744  0.37484223  0.18646423  1
  O  O193  1  0.66454956  0.37554612  0.52719835  1
  O  O194  1  0.67720876  0.37551047  0.85996982  1
  O  O195  1  0.66916144  0.87584463  0.18602349  1
  O  O196  1  0.65678826  0.87461251  0.53002238  1
  O  O197  1  0.67693464  0.87494360  0.84205169  1
  O  O198  1  0.00736562  0.12697412  0.14145266  1
  O  O199  1  0.00637799  0.12911821  0.47642713  1
  O  O200  1  0.00171021  0.13023286  0.80511925  1
  O  O201  1  -0.00610689  0.62398010  0.14492816  1
  O  O202  1  0.00802013  0.62091467  0.47649023  1
  O  O203  1  0.00509216  0.62023700  0.80723398  1
  O  O204  1  0.32001407  0.12342809  0.14462424  1
  O  O205  1  0.33983277  0.12796980  0.47409591  1
  O  O206  1  0.32392700  0.12513556  0.81078419  1
  O  O207  1  0.32807593  0.62628461  0.14554018  1
  O  O208  1  0.33907136  0.62171540  0.47757753  1
  O  O209  1  0.32173324  0.62589356  0.82818697  1
  O  O210  1  0.67553255  0.12852644  0.14955175  1
  O  O211  1  0.66072390  0.12738656  0.47442456  1
  O  O212  1  0.67742682  0.12788883  0.80522225  1
  O  O213  1  0.67383815  0.62162856  0.14892896  1
  O  O214  1  0.66089933  0.62306109  0.47488498  1
  O  O215  1  0.67557503  0.62212216  0.80474707  1
  O  O216  1  0.07985865  0.02500594  0.25300130  1
  O  O217  1  0.08218167  0.02277033  0.58785275  1
  O  O218  1  0.07523277  0.02723195  0.92454299  1
  O  O219  1  0.07358782  0.51364488  0.26216986  1
  O  O220  1  0.08014587  0.52262043  0.58774575  1
  O  O221  1  0.07690641  0.52232795  0.92124212  1
  O  O222  1  0.41182185  0.01975219  0.26562213  1
  O  O223  1  0.40820211  0.02252335  0.58859522  1
  O  O224  1  0.40472800  0.01415889  0.92304319  1
  O  O225  1  0.41064565  0.51563671  0.26186309  1
  O  O226  1  0.41564663  0.50900490  0.58223798  1
  O  O227  1  0.41156154  0.51326679  0.91699698  1
  O  O228  1  0.74780665  0.02042704  0.25552424  1
  O  O229  1  0.73483954  0.01800461  0.59450854  1
  O  O230  1  0.75116324  0.02566890  0.92139233  1
  O  O231  1  0.74754993  0.51598725  0.25166805  1
  O  O232  1  0.73873082  0.51420071  0.59200350  1
  O  O233  1  0.74985093  0.52629732  0.91619727  1
  O  O234  1  0.24576283  0.22903944  0.24920499  1
  O  O235  1  0.24886345  0.22566054  0.58031341  1
  O  O236  1  0.24645189  0.22785742  0.91623914  1
  O  O237  1  0.24656926  0.73804980  0.24678966  1
  O  O238  1  0.24233610  0.73250190  0.57339334  1
  O  O239  1  0.23378592  0.74626187  0.90099670  1
  O  O240  1  0.58948931  0.23876029  0.25972082  1
  O  O241  1  0.57795745  0.23157144  0.57774941  1
  O  O242  1  0.59425747  0.23858338  0.91960544  1
  O  O243  1  0.58577605  0.73565658  0.25614130  1
  O  O244  1  0.57242546  0.72861030  0.57264896  1
  O  O245  1  0.58469401  0.73311479  0.90950706  1
  O  O246  1  0.92021850  0.22769718  0.24681168  1
  O  O247  1  0.92384741  0.23784310  0.58963052  1
  O  O248  1  0.91512409  0.22939136  0.91158485  1
  O  O249  1  0.91215253  0.73088961  0.24585001  1
  O  O250  1  0.91704617  0.73567491  0.58601636  1
  O  O251  1  0.91092272  0.72383798  0.91149830  1
  O  O252  1  0.08307128  0.48181330  0.08376482  1
  O  O253  1  0.08441633  0.47833715  0.41971158  1
  O  O254  1  0.08401238  0.47346391  0.75366939  1
  O  O255  1  0.09401753  0.98263353  0.09020066  1
  O  O256  1  0.09111513  0.99371799  0.42213693  1
  O  O257  1  0.09402978  0.98857650  0.76373047  1
  O  O258  1  0.41214436  0.49851072  0.07912142  1
  O  O259  1  0.42211878  0.48330248  0.42487760  1
  O  O260  1  0.41703191  0.48196180  0.74886361  1
  O  O261  1  0.41339134  0.99516092  0.08203126  1
  O  O262  1  0.43024940  0.98934596  0.43273619  1
  O  O263  1  0.41777083  0.98744868  0.74609255  1
  O  O264  1  0.74623927  0.48486679  0.07460554  1
  O  O265  1  0.74861707  0.47756098  0.41974393  1
  O  O266  1  0.75638587  0.47554474  0.75392668  1
  O  O267  1  0.75904024  0.99801637  0.08812384  1
  O  O268  1  0.75036568  0.97814928  0.42804453  1
  O  O269  1  0.76285598  0.98463433  0.75851274  1
  O  O270  1  0.23928887  0.26208503  0.08867358  1
  O  O271  1  0.25218632  0.26187337  0.41415212  1
  O  O272  1  0.24709008  0.26821425  0.74670950  1
  O  O273  1  0.25046391  0.77650816  0.06785860  1
  O  O274  1  0.25571013  0.75228397  0.41301666  1
  O  O275  1  0.25835345  0.77300510  0.74219369  1
  O  O276  1  0.58615102  0.26045590  0.08114576  1
  O  O277  1  0.58495382  0.27619951  0.41853289  1
  O  O278  1  0.59152816  0.26765886  0.74539232  1
  O  O279  1  0.58918609  0.75036283  0.07873155  1
  O  O280  1  0.59205995  0.77211517  0.41357192  1
  O  O281  1  0.59597283  0.76114305  0.73533228  1
  O  O282  1  0.92235732  0.26596721  0.07640698  1
  O  O283  1  0.91729260  0.27126877  0.41936636  1
  O  O284  1  0.91909490  0.27733543  0.75063519  1
  O  O285  1  0.92928357  0.76064465  0.07087114  1
  O  O286  1  0.91690092  0.75679500  0.41643962  1
  O  O287  1  0.92288790  0.76240789  0.75440345  1
  O  O288  1  0.24258114  0.48452106  0.08141490  1
  O  O289  1  0.25370960  0.48567204  0.41187308  1
  O  O290  1  0.24955668  0.47754385  0.74367488  1
  O  O291  1  0.25038405  0.97568365  0.06857552  1
  O  O292  1  0.25477010  0.99768351  0.41324642  1
  O  O293  1  0.25801879  0.98124897  0.74182175  1
  O  O294  1  0.58705199  0.48989139  0.07691113  1
  O  O295  1  0.58532187  0.47531560  0.41774690  1
  O  O296  1  0.59215875  0.48015397  0.74366492  1
  O  O297  1  0.59040862  0.99944297  0.08237857  1
  O  O298  1  0.59095272  0.97621964  0.41454707  1
  O  O299  1  0.59615440  0.99107221  0.73666425  1
  O  O300  1  0.92119952  0.48386353  0.07293105  1
  O  O301  1  0.91925088  0.48141480  0.41774999  1
  O  O302  1  0.92052138  0.47396293  0.74947454  1
  O  O303  1  0.93079428  0.99054442  0.07128358  1
  O  O304  1  0.91586048  0.99215543  0.41754377  1
  O  O305  1  0.92227172  0.98648264  0.75446584  1
  O  O306  1  0.08170007  0.26982620  0.08280008  1
  O  O307  1  0.07846186  0.26957560  0.41157178  1
  O  O308  1  0.08160482  0.27390509  0.75113304  1
  O  O309  1  0.09254446  0.76861835  0.08628177  1
  O  O310  1  0.09227524  0.75736248  0.42481746  1
  O  O311  1  0.09493565  0.76444329  0.76606929  1
  O  O312  1  0.40963693  0.24896765  0.08228691  1
  O  O313  1  0.42303714  0.26724949  0.42635170  1
  O  O314  1  0.41410253  0.26414310  0.74626474  1
  O  O315  1  0.41338469  0.75687474  0.08222655  1
  O  O316  1  0.42988411  0.75979506  0.43119917  1
  O  O317  1  0.41845975  0.76293202  0.75168723  1
  O  O318  1  0.74438227  0.26522932  0.07338136  1
  O  O319  1  0.74699628  0.27354156  0.42053900  1
  O  O320  1  0.75568782  0.27481751  0.75338529  1
  O  O321  1  0.75937344  0.75283307  0.08820007  1
  O  O322  1  0.75188252  0.77247616  0.42839251  1
  O  O323  1  0.76275161  0.76506485  0.75905671  1
  O  O324  1  0.24244952  0.02009350  0.24366288  1
  O  O325  1  0.24751889  0.02601796  0.57805021  1
  O  O326  1  0.23733518  0.01793234  0.90793550  1
  O  O327  1  0.24701889  0.51167622  0.25217281  1
  O  O328  1  0.24159394  0.51586543  0.57450566  1
  O  O329  1  0.23954692  0.50615953  0.90766638  1
  O  O330  1  0.58894035  0.01393195  0.25707066  1
  O  O331  1  0.57342515  0.02183323  0.57298074  1
  O  O332  1  0.58970652  0.01332817  0.91474224  1
  O  O333  1  0.58707079  0.51141002  0.25847627  1
  O  O334  1  0.57713343  0.51893270  0.57790142  1
  O  O335  1  0.58710735  0.51492421  0.91368139  1
  O  O336  1  0.91763385  0.02223255  0.24279161  1
  O  O337  1  0.91819742  0.01504075  0.58645326  1
  O  O338  1  0.91242451  0.02540607  0.91123222  1
  O  O339  1  0.91423575  0.51831527  0.24930509  1
  O  O340  1  0.92103034  0.51251040  0.58806721  1
  O  O341  1  0.91189405  0.52125689  0.91020051  1
  O  O342  1  0.08234902  0.22728428  0.24812242  1
  O  O343  1  0.08412014  0.22664212  0.58276289  1
  O  O344  1  0.08099269  0.22621202  0.91536519  1
  O  O345  1  0.07423853  0.73163254  0.25820971  1
  O  O346  1  0.08012984  0.72767517  0.59017087  1
  O  O347  1  0.07308936  0.72416376  0.92692836  1
  O  O348  1  0.40906452  0.23375198  0.26071192  1
  O  O349  1  0.41076097  0.23093500  0.58556887  1
  O  O350  1  0.41059934  0.23519485  0.91834604  1
  O  O351  1  0.41245138  0.72978554  0.26612540  1
  O  O352  1  0.41139993  0.73959226  0.58733906  1
  O  O353  1  0.40404056  0.73771066  0.92378975  1
  O  O354  1  0.75083939  0.23327180  0.24900171  1
  O  O355  1  0.73923561  0.23578557  0.59142454  1
  O  O356  1  0.75419476  0.22426416  0.91439728  1
  O  O357  1  0.74430942  0.73250847  0.25909827  1
  O  O358  1  0.73417963  0.73253853  0.59492764  1
  O  O359  1  0.74824989  0.72448818  0.92206891  1
