# generated using pymatgen
data_Ba17Sr5La8Pr42Mn72O216
_symmetry_space_group_name_H-M   'P 1'
_cell_length_a   16.67566853
_cell_length_b   15.70745458
_cell_length_c   16.81596626
_cell_angle_alpha   90.00170950
_cell_angle_beta   90.01939317
_cell_angle_gamma   89.99019753
_symmetry_Int_Tables_number   1
_chemical_formula_structural   Ba17Sr5La8Pr42Mn72O216
_chemical_formula_sum   'Ba17 Sr5 La8 Pr42 Mn72 O216'
_cell_volume   4404.64450015
_cell_formula_units_Z   1
loop_
 _symmetry_equiv_pos_site_id
 _symmetry_equiv_pos_as_xyz
  1  'x, y, z'
loop_
 _atom_site_type_symbol
 _atom_site_label
 _atom_site_symmetry_multiplicity
 _atom_site_fract_x
 _atom_site_fract_y
 _atom_site_fract_z
 _atom_site_occupancy
  Ba  Ba0  1  0.00176893  0.37728691  0.00273543  1
  Ba  Ba1  1  0.50320778  0.37486722  0.49976958  1
  Ba  Ba2  1  0.83459625  0.87680780  0.83095413  1
  Ba  Ba3  1  0.16449978  0.12235390  0.50250441  1
  Ba  Ba4  1  0.33252019  0.62763122  0.33015968  1
  Ba  Ba5  1  0.50061307  0.12397698  0.50036980  1
  Ba  Ba6  1  0.82995545  0.12623289  0.16673871  1
  Ba  Ba7  1  0.00173934  0.37543112  0.33323236  1
  Ba  Ba8  1  0.49961115  0.62647041  0.49863249  1
  Ba  Ba9  1  0.33349023  0.12272280  0.33224228  1
  Ba  Ba10  1  0.16674746  0.12394507  0.16736918  1
  Ba  Ba11  1  0.83324482  0.37367046  0.16795746  1
  Ba  Ba12  1  0.33425017  0.37546098  0.66533427  1
  Ba  Ba13  1  0.49769174  0.12521150  0.83516508  1
  Ba  Ba14  1  -0.00447971  0.62505978  0.66712737  1
  Ba  Ba15  1  0.33191564  0.12477375  0.66645619  1
  Ba  Ba16  1  0.66810474  0.87384029  0.66756615  1
  Sr  Sr17  1  0.50377966  0.87655628  0.49874032  1
  Sr  Sr18  1  0.66709320  0.37412041  0.66558445  1
  Sr  Sr19  1  0.33780294  0.87640674  0.33303687  1
  Sr  Sr20  1  0.82723494  0.12473270  0.83442209  1
  Sr  Sr21  1  0.67115575  0.37349451  0.33782390  1
  La  La22  1  0.33327161  0.37260033  0.33603899  1
  La  La23  1  0.66229160  0.62114591  1.00026399  1
  La  La24  1  0.32945026  0.62628315  0.65757460  1
  La  La25  1  0.82906339  0.62185665  0.50110966  1
  La  La26  1  0.66874666  0.87844124  0.00115484  1
  La  La27  1  0.82561470  0.62538890  0.83260457  1
  La  La28  1  0.00276115  0.37471316  0.66759687  1
  La  La29  1  0.16293723  0.12700308  0.83760768  1
  Pr  Pr30  1  0.32947444  0.12513617  0.99454571  1
  Pr  Pr31  1  0.16173290  0.62479834  0.50161234  1
  Pr  Pr32  1  0.17022612  0.37634210  0.83085640  1
  Pr  Pr33  1  0.17289238  0.37545218  0.49943607  1
  Pr  Pr34  1  0.17413512  0.87117252  0.83143839  1
  Pr  Pr35  1  -0.00353833  0.12558509  0.32947341  1
  Pr  Pr36  1  0.50155949  0.87398822  0.82754177  1
  Pr  Pr37  1  0.15587906  0.62673742  0.17130176  1
  Pr  Pr38  1  0.66342788  0.37046551  0.00378793  1
  Pr  Pr39  1  0.00930347  0.87770886  0.33366178  1
  Pr  Pr40  1  0.34237896  0.87795310  0.66308470  1
  Pr  Pr41  1  0.01003069  0.87601943  0.00397875  1
  Pr  Pr42  1  0.66812324  0.12778410  0.99719298  1
  Pr  Pr43  1  0.65971452  0.12669995  0.33325886  1
  Pr  Pr44  1  -0.00739311  0.62641384  0.33356825  1
  Pr  Pr45  1  0.34539722  0.87614622  -0.00000228  1
  Pr  Pr46  1  0.50296072  0.87225441  0.16837315  1
  Pr  Pr47  1  0.83764265  0.37707231  0.49321681  1
  Pr  Pr48  1  0.83980234  0.87617711  0.16091291  1
  Pr  Pr49  1  0.65916932  0.62275382  0.33365377  1
  Pr  Pr50  1  0.32945876  0.62860815  0.99718058  1
  Pr  Pr51  1  0.50242036  0.37558860  0.82538408  1
  Pr  Pr52  1  0.18269497  0.87478273  0.16420071  1
  Pr  Pr53  1  0.67294951  0.87713111  0.34094782  1
  Pr  Pr54  1  -0.00722542  0.12324032  0.66661305  1
  Pr  Pr55  1  0.15733833  0.62250653  0.83486005  1
  Pr  Pr56  1  0.83771036  0.37131895  0.83061262  1
  Pr  Pr57  1  0.84055654  0.87308948  0.49884639  1
  Pr  Pr58  1  0.82617076  0.62140950  0.16879696  1
  Pr  Pr59  1  0.00434153  0.87564150  0.67153601  1
  Pr  Pr60  1  0.49847185  0.37741887  0.16787454  1
  Pr  Pr61  1  0.83158746  0.12855626  0.49945182  1
  Pr  Pr62  1  0.17538515  0.87339625  0.50097531  1
  Pr  Pr63  1  0.33564935  0.37468499  -0.00227991  1
  Pr  Pr64  1  0.49684581  0.62323295  0.83082518  1
  Pr  Pr65  1  -0.01371111  0.62399776  0.99660645  1
  Pr  Pr66  1  0.17261544  0.37555275  0.16487944  1
  Pr  Pr67  1  0.49769684  0.62616730  0.17181120  1
  Pr  Pr68  1  0.49914547  0.12431627  0.17061485  1
  Pr  Pr69  1  -0.01296926  0.12834782  0.99685849  1
  Pr  Pr70  1  0.66449609  0.62540986  0.66457199  1
  Pr  Pr71  1  0.66488517  0.12329095  0.66706992  1
  Mn  Mn72  1  0.00138021  -0.00154899  0.16710179  1
  Mn  Mn73  1  -0.00052043  -0.00195734  0.50111594  1
  Mn  Mn74  1  0.00149601  -0.00010469  0.83563182  1
  Mn  Mn75  1  0.00019085  0.50236676  0.16623776  1
  Mn  Mn76  1  0.00061314  0.50092818  0.50031063  1
  Mn  Mn77  1  -0.00242473  0.49962808  0.83439015  1
  Mn  Mn78  1  0.33725943  -0.00186954  0.16366826  1
  Mn  Mn79  1  0.33435942  -0.00204605  0.49927390  1
  Mn  Mn80  1  0.33031598  -0.00283308  0.83383306  1
  Mn  Mn81  1  0.33304696  0.50121337  0.16362931  1
  Mn  Mn82  1  0.33230625  0.50153656  0.49693280  1
  Mn  Mn83  1  0.33209619  0.50457513  0.83284764  1
  Mn  Mn84  1  0.66684886  -0.00208434  0.16951716  1
  Mn  Mn85  1  0.67131737  -0.00000712  0.50061629  1
  Mn  Mn86  1  0.66553231  0.00110895  0.83469584  1
  Mn  Mn87  1  0.66415835  0.49846816  0.16633928  1
  Mn  Mn88  1  0.66849658  0.49953907  0.50093505  1
  Mn  Mn89  1  0.66575063  0.49854803  0.83356069  1
  Mn  Mn90  1  0.00150680  0.25016061  0.16636087  1
  Mn  Mn91  1  0.00026429  0.24907881  0.50164119  1
  Mn  Mn92  1  0.00008916  0.25069968  0.83287673  1
  Mn  Mn93  1  -0.00010213  0.75081475  0.16642387  1
  Mn  Mn94  1  0.00042372  0.75239659  0.49914853  1
  Mn  Mn95  1  -0.00080616  0.74915357  0.83643826  1
  Mn  Mn96  1  0.33474546  0.25260530  0.16455757  1
  Mn  Mn97  1  0.33314269  0.24980495  0.49995542  1
  Mn  Mn98  1  0.33146747  0.25097128  0.83438223  1
  Mn  Mn99  1  0.33551384  0.74991133  0.16253802  1
  Mn  Mn100  1  0.33328252  0.75076042  0.49699189  1
  Mn  Mn101  1  0.33192205  0.74786551  0.82955440  1
  Mn  Mn102  1  0.66331408  0.25041449  0.16755074  1
  Mn  Mn103  1  0.66988300  0.24990981  0.50148188  1
  Mn  Mn104  1  0.66654596  0.25205287  0.83382484  1
  Mn  Mn105  1  0.66841669  0.75081647  0.16889774  1
  Mn  Mn106  1  0.66988046  0.75074225  0.50001776  1
  Mn  Mn107  1  0.66412935  0.74670670  0.83535256  1
  Mn  Mn108  1  0.16657317  0.25109940  0.00042378  1
  Mn  Mn109  1  0.16573369  0.24999470  0.33346127  1
  Mn  Mn110  1  0.16431521  0.25032513  0.66822511  1
  Mn  Mn111  1  0.16750070  0.74828463  0.00071047  1
  Mn  Mn112  1  0.16539516  0.75143717  0.33319742  1
  Mn  Mn113  1  0.16643572  0.75017522  0.66678257  1
  Mn  Mn114  1  0.49730548  0.25197827  0.00187199  1
  Mn  Mn115  1  0.50128437  0.25058400  0.33202378  1
  Mn  Mn116  1  0.50198851  0.25099424  0.66669327  1
  Mn  Mn117  1  0.50175072  0.74752406  -0.00141418  1
  Mn  Mn118  1  0.50270082  0.75202798  0.33265656  1
  Mn  Mn119  1  0.49946243  0.74950151  0.66686202  1
  Mn  Mn120  1  0.83102908  0.25056126  -0.00249524  1
  Mn  Mn121  1  0.83345255  0.24898202  0.33524760  1
  Mn  Mn122  1  0.83323598  0.25033053  0.66600650  1
  Mn  Mn123  1  0.83129521  0.75058912  0.00118396  1
  Mn  Mn124  1  0.83385784  0.75073994  0.33039232  1
  Mn  Mn125  1  0.83380833  0.74942669  0.66581868  1
  Mn  Mn126  1  0.16687068  -0.00167848  -0.00091746  1
  Mn  Mn127  1  0.16699239  -0.00183852  0.33354994  1
  Mn  Mn128  1  0.16528054  -0.00302345  0.66980986  1
  Mn  Mn129  1  0.16853725  0.50404454  0.00217777  1
  Mn  Mn130  1  0.16523044  0.50234441  0.33252018  1
  Mn  Mn131  1  0.16509349  0.50133364  0.66715707  1
  Mn  Mn132  1  0.50134252  -0.00062965  0.00215082  1
  Mn  Mn133  1  0.50249177  -0.00182109  0.33266429  1
  Mn  Mn134  1  0.50182672  -0.00047582  0.66653600  1
  Mn  Mn135  1  0.49754813  0.50050623  -0.00141467  1
  Mn  Mn136  1  0.50081172  0.49958693  0.33164971  1
  Mn  Mn137  1  0.50047812  0.50013441  0.66714147  1
  Mn  Mn138  1  0.83321493  -0.00154515  -0.00168404  1
  Mn  Mn139  1  0.83458401  -0.00189723  0.33266554  1
  Mn  Mn140  1  0.83459492  0.00261601  0.66550616  1
  Mn  Mn141  1  0.82870309  0.50027318  -0.00023398  1
  Mn  Mn142  1  0.83287341  0.50223359  0.33440004  1
  Mn  Mn143  1  0.83106864  0.49621121  0.66653512  1
  O  O144  1  0.18152868  0.12106313  0.01000302  1
  O  O145  1  0.16097610  0.11994853  0.34476790  1
  O  O146  1  0.16157600  0.12068585  0.69204748  1
  O  O147  1  0.18103574  0.62626506  0.03033355  1
  O  O148  1  0.16060380  0.62896488  0.35700461  1
  O  O149  1  0.17456042  0.62697693  0.68943376  1
  O  O150  1  0.49498948  0.12768122  0.02621766  1
  O  O151  1  0.50477641  0.12355679  0.34062140  1
  O  O152  1  0.50920966  0.12455107  0.67657545  1
  O  O153  1  0.50063387  0.62301249  0.02903324  1
  O  O154  1  0.50561326  0.62624141  0.33995422  1
  O  O155  1  0.49979873  0.62497040  0.68675391  1
  O  O156  1  0.83130980  0.12283499  0.00873480  1
  O  O157  1  0.84125354  0.12102828  0.35531530  1
  O  O158  1  0.84197072  0.12823551  0.68817828  1
  O  O159  1  0.83090060  0.62809825  0.02371162  1
  O  O160  1  0.83997720  0.62958556  0.35667424  1
  O  O161  1  0.82800470  0.61882205  0.69041142  1
  O  O162  1  0.16998544  0.38029517  0.30875378  1
  O  O163  1  0.15655463  0.37882894  0.64662769  1
  O  O164  1  0.17077286  0.38304263  0.97422753  1
  O  O165  1  0.15893898  0.87279969  0.30651564  1
  O  O166  1  0.15321440  0.87215223  0.64681267  1
  O  O167  1  0.15802951  0.87204550  0.97493039  1
  O  O168  1  0.50132027  0.37594333  0.31230578  1
  O  O169  1  0.50249768  0.37771021  0.66026621  1
  O  O170  1  0.49707606  0.37909562  0.96918759  1
  O  O171  1  0.51451346  0.87466649  0.31148333  1
  O  O172  1  0.49667898  0.87242601  0.65375412  1
  O  O173  1  0.49991059  0.87030518  0.96991764  1
  O  O174  1  0.83018380  0.37835978  0.32684203  1
  O  O175  1  0.83333444  0.37204882  0.63790384  1
  O  O176  1  0.82245297  0.37623797  0.97719429  1
  O  O177  1  0.82543535  0.87136963  0.30269292  1
  O  O178  1  0.83825872  0.87920725  0.64315447  1
  O  O179  1  0.82730147  0.87323425  0.98787777  1
  O  O180  1  0.00646621  0.37924011  0.17576103  1
  O  O181  1  -0.00689574  0.37374829  0.52298425  1
  O  O182  1  -0.00000414  0.37669009  0.84740648  1
  O  O183  1  -0.01091133  0.87193856  0.18979568  1
  O  O184  1  -0.00942477  0.87510313  0.52840321  1
  O  O185  1  0.00596485  0.87012641  0.86016172  1
  O  O186  1  0.33023673  0.38036925  0.18949334  1
  O  O187  1  0.32589948  0.37829920  0.50504272  1
  O  O188  1  0.33106257  0.38218488  0.85482451  1
  O  O189  1  0.33338514  0.87101082  0.17971042  1
  O  O190  1  0.32957504  0.87159572  0.51774543  1
  O  O191  1  0.33270397  0.86937985  0.85852689  1
  O  O192  1  0.65907389  0.37506430  0.18660041  1
  O  O193  1  0.67914990  0.37546463  0.51444654  1
  O  O194  1  0.65956533  0.37782126  0.86069376  1
  O  O195  1  0.66910477  0.87209020  0.19657411  1
  O  O196  1  0.67382279  0.87426507  0.51021998  1
  O  O197  1  0.65601466  0.86983819  0.85642517  1
  O  O198  1  0.00218089  0.12030384  0.14282244  1
  O  O199  1  -0.00285162  0.12031910  0.47384053  1
  O  O200  1  0.00730477  0.12805520  0.81035012  1
  O  O201  1  0.00724334  0.62934300  0.14041855  1
  O  O202  1  0.00774877  0.63049223  0.47600528  1
  O  O203  1  -0.00011647  0.62421585  0.82355144  1
  O  O204  1  0.34393135  0.12440565  0.13960992  1
  O  O205  1  0.33164162  0.12112082  0.49238709  1
  O  O206  1  0.32146201  0.12076426  0.82736780  1
  O  O207  1  0.34268833  0.62640170  0.14045117  1
  O  O208  1  0.32472906  0.62769359  0.48836335  1
  O  O209  1  0.33440404  0.62739090  0.80195855  1
  O  O210  1  0.65573654  0.12365081  0.13995297  1
  O  O211  1  0.67687392  0.12279337  0.47662775  1
  O  O212  1  0.66759971  0.12968510  0.81355803  1
  O  O213  1  0.66660161  0.62657327  0.14266232  1
  O  O214  1  0.67488663  0.62759044  0.47860091  1
  O  O215  1  0.66686746  0.62066557  0.80930698  1
  O  O216  1  0.07204519  0.01015837  0.26255530  1
  O  O217  1  0.07044143  0.01168927  0.59989242  1
  O  O218  1  0.07418208  0.02059849  0.93223964  1
  O  O219  1  0.07616689  0.52588164  0.25752370  1
  O  O220  1  0.08265828  0.51572711  0.58305393  1
  O  O221  1  0.08226948  0.52640641  0.92852939  1
  O  O222  1  0.42278988  0.00679075  0.24178759  1
  O  O223  1  0.41507791  -0.00030120  0.58583360  1
  O  O224  1  0.40151403  0.01084472  0.92677024  1
  O  O225  1  0.42026420  0.51224474  0.23945498  1
  O  O226  1  0.41013402  0.51482090  0.58889636  1
  O  O227  1  0.41143188  0.52777328  0.92057818  1
  O  O228  1  0.73998046  0.01668351  0.26226988  1
  O  O229  1  0.75175941  0.02526208  0.58532231  1
  O  O230  1  0.74230987  0.01153238  0.92407145  1
  O  O231  1  0.74791406  0.52272817  0.25525573  1
  O  O232  1  0.74560918  0.52142418  0.58932130  1
  O  O233  1  0.74412586  0.52364776  0.91776307  1
  O  O234  1  0.25181820  0.24604969  0.24452125  1
  O  O235  1  0.24065661  0.24781922  0.58255971  1
  O  O236  1  0.24290865  0.24122762  0.91271379  1
  O  O237  1  0.23945512  0.73742695  0.23409992  1
  O  O238  1  0.24143213  0.73594351  0.57823721  1
  O  O239  1  0.24249400  0.72747345  0.90284925  1
  O  O240  1  0.58191196  0.22877036  0.24633702  1
  O  O241  1  0.59240022  0.23908178  0.58718902  1
  O  O242  1  0.58553835  0.23639884  0.92812584  1
  O  O243  1  0.58280763  0.72946995  0.24374433  1
  O  O244  1  0.58489556  0.73556246  0.58870234  1
  O  O245  1  0.57888048  0.72059187  0.91616882  1
  O  O246  1  0.91710368  0.23637615  0.25415817  1
  O  O247  1  0.91302409  0.22750065  0.58011594  1
  O  O248  1  0.91354593  0.23761108  0.90845253  1
  O  O249  1  0.90807829  0.72589107  0.23806348  1
  O  O250  1  0.90739028  0.73434901  0.56696182  1
  O  O251  1  0.90747809  0.72841267  0.91321356  1
  O  O252  1  0.09816098  0.49136985  0.09454074  1
  O  O253  1  0.09293006  0.48598835  0.42642057  1
  O  O254  1  0.08706239  0.48676949  0.75604796  1
  O  O255  1  0.09289590  0.97329356  0.09134102  1
  O  O256  1  0.08663698  0.97275131  0.42758840  1
  O  O257  1  0.09179794  0.97722449  0.76356008  1
  O  O258  1  0.41762243  0.47529079  0.07985008  1
  O  O259  1  0.41618626  0.48885025  0.40864450  1
  O  O260  1  0.42411679  0.49019197  0.76149665  1
  O  O261  1  0.42467970  0.97304773  0.08535101  1
  O  O262  1  0.42288854  0.98337194  0.41351637  1
  O  O263  1  0.41634235  0.98026247  0.75622222  1
  O  O264  1  0.74295843  0.48708739  0.08005937  1
  O  O265  1  0.75993037  0.49155500  0.42608675  1
  O  O266  1  0.75389296  0.47696203  0.75879081  1
  O  O267  1  0.75255942  0.97990896  0.09156265  1
  O  O268  1  0.76094402  0.97880492  0.42173894  1
  O  O269  1  0.75162902  0.99693217  0.74890134  1
  O  O270  1  0.25635877  0.27241643  0.07744506  1
  O  O271  1  0.24955956  0.26852777  0.41189603  1
  O  O272  1  0.24488869  0.26531406  0.75447190  1
  O  O273  1  0.26046018  0.77116140  0.06906362  1
  O  O274  1  0.24979812  0.77012772  0.41129082  1
  O  O275  1  0.25650586  0.77503864  0.74096742  1
  O  O276  1  0.57657003  0.27465265  0.08514786  1
  O  O277  1  0.59181271  0.25625615  0.41140490  1
  O  O278  1  0.58481964  0.26816472  0.75520054  1
  O  O279  1  0.59159459  0.77293810  0.08282073  1
  O  O280  1  0.59567413  0.76153543  0.40870745  1
  O  O281  1  0.57741461  0.75761367  0.75810224  1
  O  O282  1  0.91783360  0.25409978  0.07662836  1
  O  O283  1  0.91700750  0.26057021  0.42100694  1
  O  O284  1  0.92098138  0.27210153  0.74294504  1
  O  O285  1  0.92798760  0.76806013  0.07474321  1
  O  O286  1  0.92508728  0.77195547  0.40289977  1
  O  O287  1  0.92280219  0.76545912  0.73981484  1
  O  O288  1  0.25671581  0.47766968  0.07618239  1
  O  O289  1  0.25084276  0.48386423  0.40893019  1
  O  O290  1  0.24566780  0.48622358  0.75412162  1
  O  O291  1  0.25958482  0.97819991  0.07056202  1
  O  O292  1  0.24999086  0.97915354  0.41464064  1
  O  O293  1  0.25418139  0.97117732  0.74577871  1
  O  O294  1  0.58039961  0.47757494  0.07752626  1
  O  O295  1  0.59353669  0.49364026  0.41163198  1
  O  O296  1  0.58460205  0.48619825  0.75362346  1
  O  O297  1  0.58735218  0.97132732  0.08696928  1
  O  O298  1  0.59525716  0.98846814  0.40994798  1
  O  O299  1  0.57989373  0.98620046  0.75767103  1
  O  O300  1  0.91693180  0.49963958  0.08156341  1
  O  O301  1  0.92029090  0.49441576  0.41589474  1
  O  O302  1  0.91487478  0.47594901  0.74457757  1
  O  O303  1  0.92387332  0.98073546  0.07606355  1
  O  O304  1  0.92155056  0.97271803  0.41015730  1
  O  O305  1  0.92934649  0.98710039  0.73719553  1
  O  O306  1  0.09488328  0.26507712  0.08935328  1
  O  O307  1  0.08947053  0.26795198  0.43029867  1
  O  O308  1  0.08763872  0.27195339  0.75796837  1
  O  O309  1  0.09233857  0.77217428  0.09790377  1
  O  O310  1  0.08678913  0.77655106  0.42346445  1
  O  O311  1  0.09183806  0.76266492  0.75954953  1
  O  O312  1  0.41727446  0.28096861  0.08349514  1
  O  O313  1  0.41562189  0.26267294  0.40699067  1
  O  O314  1  0.41949480  0.26255264  0.76075535  1
  O  O315  1  0.42388655  0.77142309  0.08158376  1
  O  O316  1  0.42325756  0.76557675  0.41492346  1
  O  O317  1  0.41810288  0.77027398  0.75417871  1
  O  O318  1  0.73907645  0.26115257  0.08004845  1
  O  O319  1  0.75975845  0.26095180  0.42693557  1
  O  O320  1  0.75706033  0.27102035  0.75394612  1
  O  O321  1  0.75792709  0.76804910  0.09503054  1
  O  O322  1  0.76229574  0.77017301  0.41955389  1
  O  O323  1  0.75010047  0.75327791  0.75712966  1
  O  O324  1  0.25003263  0.00097766  0.24058737  1
  O  O325  1  0.24319845  -0.00337374  0.58473532  1
  O  O326  1  0.23483515  0.00518682  0.90430223  1
  O  O327  1  0.23893975  0.51953105  0.23746154  1
  O  O328  1  0.24253482  0.51685598  0.57940365  1
  O  O329  1  0.24665159  0.52857943  0.91404020  1
  O  O330  1  0.58229995  0.01951789  0.24552687  1
  O  O331  1  0.59237327  0.01150112  0.58557025  1
  O  O332  1  0.58556240  0.01726437  0.92786211  1
  O  O333  1  0.58151592  0.52064503  0.24424680  1
  O  O334  1  0.58707783  0.51454546  0.58727060  1
  O  O335  1  0.57723070  0.52379075  0.91438314  1
  O  O336  1  0.91419987  0.01174069  0.24920645  1
  O  O337  1  0.91092542  0.02286780  0.57491059  1
  O  O338  1  0.91613494  0.01766196  0.91121040  1
  O  O339  1  0.91266059  0.52375265  0.24740973  1
  O  O340  1  0.90874571  0.51354260  0.57456075  1
  O  O341  1  0.90820835  0.51752468  0.91400555  1
  O  O342  1  0.07740646  0.23509363  0.25905526  1
  O  O343  1  0.07042607  0.23549904  0.59711079  1
  O  O344  1  0.07744438  0.22845838  0.92352907  1
  O  O345  1  0.07131527  0.73155291  0.25923549  1
  O  O346  1  0.08333653  0.73545679  0.58396053  1
  O  O347  1  0.07741931  0.72489932  0.93155224  1
  O  O348  1  0.42284547  0.24128998  0.23952115  1
  O  O349  1  0.41725685  0.24584858  0.58336635  1
  O  O350  1  0.40557274  0.23791088  0.92822176  1
  O  O351  1  0.42167678  0.74194133  0.24196983  1
  O  O352  1  0.40763749  0.73939864  0.59202162  1
  O  O353  1  0.40979459  0.72488274  0.91555608  1
  O  O354  1  0.74256632  0.23460952  0.26006183  1
  O  O355  1  0.74946280  0.22360418  0.58977318  1
  O  O356  1  0.74546795  0.23568297  0.91846873  1
  O  O357  1  0.74500007  0.72182768  0.25627944  1
  O  O358  1  0.74793961  0.72838222  0.58769035  1
  O  O359  1  0.74018847  0.72922434  0.92380808  1
