# generated using pymatgen
data_Ba17Sr5La8Pr42Mn72O216
_symmetry_space_group_name_H-M   'P 1'
_cell_length_a   16.67339092
_cell_length_b   15.70499178
_cell_length_c   16.81612771
_cell_angle_alpha   89.99592568
_cell_angle_beta   90.04715732
_cell_angle_gamma   89.97967805
_symmetry_Int_Tables_number   1
_chemical_formula_structural   Ba17Sr5La8Pr42Mn72O216
_chemical_formula_sum   'Ba17 Sr5 La8 Pr42 Mn72 O216'
_cell_volume   4403.39319929
_cell_formula_units_Z   1
loop_
 _symmetry_equiv_pos_site_id
 _symmetry_equiv_pos_as_xyz
  1  'x, y, z'
loop_
 _atom_site_type_symbol
 _atom_site_label
 _atom_site_symmetry_multiplicity
 _atom_site_fract_x
 _atom_site_fract_y
 _atom_site_fract_z
 _atom_site_occupancy
  Ba  Ba0  1  0.66223466  0.12482038  1.00063122  1
  Ba  Ba1  1  -0.00224193  0.12409303  0.99782586  1
  Ba  Ba2  1  0.00001378  0.62361476  0.66668955  1
  Ba  Ba3  1  0.32781717  0.12571744  0.33431568  1
  Ba  Ba4  1  0.50049103  0.62636353  0.83532725  1
  Ba  Ba5  1  0.16711020  0.87235113  0.50121453  1
  Ba  Ba6  1  0.00162329  0.62453729  0.99724527  1
  Ba  Ba7  1  0.83222977  0.12592881  0.83401891  1
  Ba  Ba8  1  0.66725051  0.87503914  0.66393657  1
  Ba  Ba9  1  0.83339113  0.62438446  0.16669992  1
  Ba  Ba10  1  0.33354569  0.37670832  0.00120011  1
  Ba  Ba11  1  -0.00242318  0.12578635  0.66460138  1
  Ba  Ba12  1  0.83285887  0.37645908  0.16824449  1
  Ba  Ba13  1  0.00114881  0.37526428  0.66552648  1
  Ba  Ba14  1  0.83252562  0.87731324  0.82968613  1
  Ba  Ba15  1  0.66722517  0.62460165  0.99924122  1
  Ba  Ba16  1  0.50261373  0.37665581  0.49814576  1
  Sr  Sr17  1  0.83459385  0.62416772  0.50078034  1
  Sr  Sr18  1  0.16894795  0.62534153  0.50511853  1
  Sr  Sr19  1  0.00010010  0.87189975  0.66754948  1
  Sr  Sr20  1  0.50638804  0.87381172  0.49838344  1
  Sr  Sr21  1  0.16783978  0.62496382  0.83328169  1
  La  La22  1  0.67033334  0.37442260  0.66430923  1
  La  La23  1  0.32793028  0.12536348  1.00085980  1
  La  La24  1  0.65528004  0.12589591  0.32887078  1
  La  La25  1  0.50150109  0.37309189  0.16571195  1
  La  La26  1  0.00479816  0.87090225  0.33443691  1
  La  La27  1  0.33622859  0.87122707  0.00148197  1
  La  La28  1  0.33306293  0.37665471  0.33657173  1
  La  La29  1  0.49305493  0.12330310  0.50258089  1
  Pr  Pr30  1  0.32708804  0.12558369  0.66281388  1
  Pr  Pr31  1  0.50696365  0.87848707  0.16696634  1
  Pr  Pr32  1  0.16492090  0.37675026  0.83239820  1
  Pr  Pr33  1  0.00252652  0.62698687  0.32958032  1
  Pr  Pr34  1  0.49420516  0.12303635  0.83384513  1
  Pr  Pr35  1  0.15806108  0.12903852  0.16897058  1
  Pr  Pr36  1  0.16123795  0.87409900  0.82644917  1
  Pr  Pr37  1  -0.00536764  0.12297000  0.32840515  1
  Pr  Pr38  1  0.82109777  0.12491458  0.16821493  1
  Pr  Pr39  1  0.33226259  0.62395025  0.99720987  1
  Pr  Pr40  1  0.66823958  0.62831248  0.66532046  1
  Pr  Pr41  1  0.33893967  0.87443355  0.34208739  1
  Pr  Pr42  1  0.83254863  0.63161786  0.83410294  1
  Pr  Pr43  1  0.67981224  0.87365691  0.34041940  1
  Pr  Pr44  1  0.33343626  0.87221517  0.67106954  1
  Pr  Pr45  1  0.49394143  0.62681300  0.16687322  1
  Pr  Pr46  1  0.33304013  0.62515494  0.66700714  1
  Pr  Pr47  1  0.00206732  0.37924618  0.33408008  1
  Pr  Pr48  1  0.65755128  0.62470359  0.32852817  1
  Pr  Pr49  1  0.16886499  0.87708710  0.16459539  1
  Pr  Pr50  1  0.83080251  0.37555782  0.83731839  1
  Pr  Pr51  1  -0.00107270  0.87422673  -0.00574274  1
  Pr  Pr52  1  0.16313613  0.12338988  0.50202242  1
  Pr  Pr53  1  0.16468498  0.37685668  0.50109846  1
  Pr  Pr54  1  0.33521764  0.37902913  0.67209565  1
  Pr  Pr55  1  0.50370309  0.87565592  0.83090359  1
  Pr  Pr56  1  0.66541225  0.37647718  -0.00010092  1
  Pr  Pr57  1  0.84330284  0.87407832  0.50221835  1
  Pr  Pr58  1  0.67973331  0.37668714  0.33939957  1
  Pr  Pr59  1  0.16867363  0.62195945  0.16845707  1
  Pr  Pr60  1  0.82390025  0.12665705  0.50575816  1
  Pr  Pr61  1  0.66244996  0.12063887  0.66641770  1
  Pr  Pr62  1  0.84309895  0.37626935  0.49703270  1
  Pr  Pr63  1  0.67107464  0.87241543  -0.00342668  1
  Pr  Pr64  1  0.48681299  0.12556173  0.16990067  1
  Pr  Pr65  1  0.50350488  0.37493859  0.82961740  1
  Pr  Pr66  1  0.83935231  0.87364116  0.16129231  1
  Pr  Pr67  1  0.50102962  0.62717092  0.50604237  1
  Pr  Pr68  1  0.16657472  0.37300000  0.16267702  1
  Pr  Pr69  1  0.33279249  0.62678239  0.33883527  1
  Pr  Pr70  1  0.00234383  0.37511828  -0.00222488  1
  Pr  Pr71  1  0.15894350  0.12584300  0.83358930  1
  Mn  Mn72  1  -0.00046791  -0.00060169  0.16539471  1
  Mn  Mn73  1  0.00050500  -0.00027960  0.49600871  1
  Mn  Mn74  1  -0.00013174  -0.00025295  0.83095926  1
  Mn  Mn75  1  0.00202148  0.49923430  0.16603840  1
  Mn  Mn76  1  0.00178330  0.50141379  0.49828893  1
  Mn  Mn77  1  0.00002149  0.49813645  0.83385728  1
  Mn  Mn78  1  0.33066792  -0.00347969  0.16817920  1
  Mn  Mn79  1  0.33416892  -0.00135834  0.50152939  1
  Mn  Mn80  1  0.33136753  0.00050316  0.83435602  1
  Mn  Mn81  1  0.33339845  0.50296814  0.17040739  1
  Mn  Mn82  1  0.33364120  0.49967765  0.50240939  1
  Mn  Mn83  1  0.33401212  0.50014777  0.83517759  1
  Mn  Mn84  1  0.66512616  -0.00150095  0.16946911  1
  Mn  Mn85  1  0.66732256  -0.00066973  0.49630680  1
  Mn  Mn86  1  0.66337492  0.00214033  0.83269611  1
  Mn  Mn87  1  0.66327948  0.50080371  0.16825876  1
  Mn  Mn88  1  0.66934068  0.50219407  0.49905952  1
  Mn  Mn89  1  0.66745290  0.49824821  0.83151348  1
  Mn  Mn90  1  -0.00225018  0.24978556  0.16618153  1
  Mn  Mn91  1  0.00118120  0.24997769  0.49456346  1
  Mn  Mn92  1  0.00005217  0.25212254  0.83310147  1
  Mn  Mn93  1  0.00373083  0.75096180  0.16556871  1
  Mn  Mn94  1  0.00149244  0.74883377  0.49938233  1
  Mn  Mn95  1  0.00042547  0.74900438  0.83200622  1
  Mn  Mn96  1  0.33061586  0.25102347  0.16771257  1
  Mn  Mn97  1  0.33212687  0.25105121  0.50124360  1
  Mn  Mn98  1  0.33445277  0.24883248  0.83296619  1
  Mn  Mn99  1  0.33263304  0.75103572  0.17042950  1
  Mn  Mn100  1  0.33613521  0.75048471  0.50269835  1
  Mn  Mn101  1  0.33197754  0.75064064  0.83645825  1
  Mn  Mn102  1  0.66293341  0.25015140  0.16790632  1
  Mn  Mn103  1  0.66652924  0.24912337  0.49852088  1
  Mn  Mn104  1  0.66422292  0.25065872  0.83228571  1
  Mn  Mn105  1  0.66485024  0.75137709  0.16962107  1
  Mn  Mn106  1  0.66986480  0.74926484  0.49736189  1
  Mn  Mn107  1  0.66589499  0.75046027  0.83202870  1
  Mn  Mn108  1  0.16702516  0.24887827  -0.00068516  1
  Mn  Mn109  1  0.16426244  0.25253328  0.33324378  1
  Mn  Mn110  1  0.16954086  0.25036391  0.66614603  1
  Mn  Mn111  1  0.16843307  0.75246330  -0.00128544  1
  Mn  Mn112  1  0.16926217  0.74759395  0.33216455  1
  Mn  Mn113  1  0.16742294  0.74880432  0.66752111  1
  Mn  Mn114  1  0.49750788  0.24950588  -0.00130632  1
  Mn  Mn115  1  0.49803982  0.25191451  0.33257035  1
  Mn  Mn116  1  0.49973468  0.24963740  0.66714456  1
  Mn  Mn117  1  0.49983745  0.75345009  0.00238206  1
  Mn  Mn118  1  0.50040624  0.75030170  0.33447269  1
  Mn  Mn119  1  0.50009803  0.75070624  0.66673360  1
  Mn  Mn120  1  0.83093258  0.25172624  0.00188133  1
  Mn  Mn121  1  0.83450760  0.24692153  0.33546902  1
  Mn  Mn122  1  0.83052691  0.25104570  0.66577226  1
  Mn  Mn123  1  0.83414668  0.75040784  -0.00081268  1
  Mn  Mn124  1  0.83573968  0.74931211  0.33414408  1
  Mn  Mn125  1  0.83375568  0.74785787  0.66479788  1
  Mn  Mn126  1  0.16849467  -0.00246119  -0.00221716  1
  Mn  Mn127  1  0.16590973  -0.00011267  0.33173727  1
  Mn  Mn128  1  0.16668571  -0.00071797  0.66636048  1
  Mn  Mn129  1  0.16712397  0.50073687  0.00003395  1
  Mn  Mn130  1  0.16813176  0.50114071  0.33422708  1
  Mn  Mn131  1  0.16937115  0.50019052  0.66750504  1
  Mn  Mn132  1  0.49812818  -0.00099453  0.00057784  1
  Mn  Mn133  1  0.49933597  -0.00184241  0.33334977  1
  Mn  Mn134  1  0.49750186  -0.00092188  0.66686049  1
  Mn  Mn135  1  0.49961458  0.49897719  0.00087788  1
  Mn  Mn136  1  0.49892034  0.50168169  0.33267164  1
  Mn  Mn137  1  0.50159731  0.50088678  0.66609939  1
  Mn  Mn138  1  0.83253416  -0.00134476  0.00148795  1
  Mn  Mn139  1  0.83414996  0.00023086  0.33352259  1
  Mn  Mn140  1  0.83267150  0.00191343  0.66435999  1
  Mn  Mn141  1  0.83375584  0.49814784  -0.00114052  1
  Mn  Mn142  1  0.83560619  0.50264643  0.33590374  1
  Mn  Mn143  1  0.83131129  0.49846809  0.66631190  1
  O  O144  1  0.17150402  0.12053804  0.02562358  1
  O  O145  1  0.15986969  0.13095941  0.35829338  1
  O  O146  1  0.17684321  0.12522389  0.68882889  1
  O  O147  1  0.17282407  0.62873543  0.02541090  1
  O  O148  1  0.16762994  0.62309475  0.35647740  1
  O  O149  1  0.17967753  0.62409090  0.68274474  1
  O  O150  1  0.49585504  0.12212524  0.02774205  1
  O  O151  1  0.50434710  0.12312322  0.35563461  1
  O  O152  1  0.50608017  0.12534378  0.68940211  1
  O  O153  1  0.49588647  0.63098240  0.02415334  1
  O  O154  1  0.50434282  0.62555032  0.36093536  1
  O  O155  1  0.50821504  0.62577197  0.67903731  1
  O  O156  1  0.83446580  0.12359164  0.02281555  1
  O  O157  1  0.84185809  0.12004076  0.36199614  1
  O  O158  1  0.83002837  0.12870991  0.67330339  1
  O  O159  1  0.83717213  0.62340778  0.00270423  1
  O  O160  1  0.84534745  0.62518945  0.35038894  1
  O  O161  1  0.82769859  0.61897101  0.68950258  1
  O  O162  1  0.16727639  0.37814836  0.30519197  1
  O  O163  1  0.17579918  0.37394131  0.64595639  1
  O  O164  1  0.16340000  0.37350993  0.97952212  1
  O  O165  1  0.16756736  0.86990603  0.30899633  1
  O  O166  1  0.16775551  0.87537528  0.65881261  1
  O  O167  1  0.17793125  0.87622891  0.97117118  1
  O  O168  1  0.49066552  0.38070386  0.31045123  1
  O  O169  1  0.49206877  0.37444827  0.65379837  1
  O  O170  1  0.49843418  0.36996166  0.97462011  1
  O  O171  1  0.49172459  0.87255287  0.31031927  1
  O  O172  1  0.48932663  0.87419799  0.64720522  1
  O  O173  1  0.49011584  0.87744508  0.97557945  1
  O  O174  1  0.83065916  0.37457885  0.32493782  1
  O  O175  1  0.82347089  0.37414959  0.63973962  1
  O  O176  1  0.81603806  0.37551709  0.98559745  1
  O  O177  1  0.82911718  0.87934453  0.30564345  1
  O  O178  1  0.83406448  0.87643924  0.64651848  1
  O  O179  1  0.82338587  0.87546727  0.99363937  1
  O  O180  1  0.00934678  0.37343170  0.19094301  1
  O  O181  1  -0.00151281  0.37487375  0.50871337  1
  O  O182  1  0.01732790  0.37421490  0.84871091  1
  O  O183  1  0.00088249  0.87681098  0.19136326  1
  O  O184  1  -0.00448044  0.87589089  0.51511382  1
  O  O185  1  0.01133924  0.87556756  0.84585639  1
  O  O186  1  0.32922838  0.38161791  0.19251568  1
  O  O187  1  0.32868060  0.37443601  0.52596847  1
  O  O188  1  0.34216152  0.37406617  0.84574897  1
  O  O189  1  0.32332804  0.87256580  0.19968175  1
  O  O190  1  0.33832830  0.87540383  0.52402470  1
  O  O191  1  0.33234507  0.87792326  0.85950309  1
  O  O192  1  0.65737439  0.37553928  0.19570009  1
  O  O193  1  0.67267298  0.37724083  0.51878327  1
  O  O194  1  0.66368312  0.37351163  0.85492574  1
  O  O195  1  0.66066832  0.87569464  0.19737289  1
  O  O196  1  0.66927228  0.87513026  0.50800526  1
  O  O197  1  0.65944630  0.87884595  0.85011076  1
  O  O198  1  0.00611208  0.12429147  0.15237824  1
  O  O199  1  0.00839976  0.12647068  0.47253385  1
  O  O200  1  0.00493259  0.12733345  0.82469669  1
  O  O201  1  0.00844150  0.62494123  0.15448520  1
  O  O202  1  0.00055416  0.62306166  0.47543276  1
  O  O203  1  -0.01596642  0.62070118  0.82810683  1
  O  O204  1  0.33651706  0.11886805  0.14546462  1
  O  O205  1  0.33388174  0.12438984  0.48928059  1
  O  O206  1  0.33708653  0.12311629  0.80530451  1
  O  O207  1  0.33511041  0.62871864  0.14036146  1
  O  O208  1  0.33494748  0.62506246  0.48224514  1
  O  O209  1  0.32980611  0.62473088  0.81172212  1
  O  O210  1  0.66995508  0.12271098  0.15866220  1
  O  O211  1  0.67208555  0.12239102  0.47165417  1
  O  O212  1  0.65447564  0.12803013  0.81150748  1
  O  O213  1  0.65825576  0.62731809  0.15591691  1
  O  O214  1  0.66197709  0.62543017  0.47238649  1
  O  O215  1  0.66999855  0.62003449  0.81179647  1
  O  O216  1  0.07791194  0.01846817  0.25135931  1
  O  O217  1  0.08646853  0.01662202  0.57846404  1
  O  O218  1  0.08952811  0.00948905  0.91273722  1
  O  O219  1  0.09009143  0.52065452  0.24904946  1
  O  O220  1  0.09258420  0.50554391  0.57458893  1
  O  O221  1  0.09001834  0.50923803  0.91245835  1
  O  O222  1  0.41243004  0.01166239  0.25054975  1
  O  O223  1  0.41330213  0.02264734  0.59082242  1
  O  O224  1  0.40962072  0.02271597  0.92187190  1
  O  O225  1  0.41433961  0.52914175  0.25338220  1
  O  O226  1  0.41986946  0.52193415  0.58321187  1
  O  O227  1  0.41343707  0.51775734  0.92344440  1
  O  O228  1  0.74347934  0.02111800  0.26510810  1
  O  O229  1  0.74288699  0.02129683  0.58261354  1
  O  O230  1  0.74201123  0.00492268  0.92374386  1
  O  O231  1  0.74202160  0.51316873  0.26201534  1
  O  O232  1  0.74306910  0.52210604  0.58784086  1
  O  O233  1  0.76081757  0.51078206  0.90258830  1
  O  O234  1  0.23544722  0.23684675  0.24183732  1
  O  O235  1  0.24581472  0.22812862  0.57894997  1
  O  O236  1  0.24668522  0.22959548  0.90887990  1
  O  O237  1  0.24952460  0.72148548  0.24819804  1
  O  O238  1  0.25795005  0.73847604  0.59202591  1
  O  O239  1  0.25394084  0.72979068  0.92262972  1
  O  O240  1  0.57133371  0.23113980  0.23959536  1
  O  O241  1  0.57687750  0.22801140  0.57467304  1
  O  O242  1  0.56816602  0.23699438  0.90287931  1
  O  O243  1  0.57331460  0.73131240  0.24466947  1
  O  O244  1  0.58357432  0.73313114  0.57677288  1
  O  O245  1  0.58353358  0.75062918  0.91915014  1
  O  O246  1  0.90792311  0.22513415  0.24324877  1
  O  O247  1  0.90718889  0.24006077  0.56538122  1
  O  O248  1  0.91484670  0.25941273  0.91486477  1
  O  O249  1  0.92239185  0.74026502  0.25491845  1
  O  O250  1  0.91197734  0.74013995  0.57716456  1
  O  O251  1  0.91981135  0.75175071  0.91549839  1
  O  O252  1  0.08366189  0.47742292  0.08212366  1
  O  O253  1  0.08358170  0.47945353  0.41025994  1
  O  O254  1  0.08821578  0.49053138  0.75059903  1
  O  O255  1  0.08895016  0.97460761  0.08038790  1
  O  O256  1  0.08317840  0.98518883  0.41230274  1
  O  O257  1  0.09024773  0.99162961  0.75274561  1
  O  O258  1  0.42055293  0.48811378  0.09491130  1
  O  O259  1  0.41054837  0.48915379  0.41172410  1
  O  O260  1  0.41482734  0.48721093  0.74867873  1
  O  O261  1  0.41964388  0.97592575  0.09114855  1
  O  O262  1  0.42287768  0.98327697  0.42158015  1
  O  O263  1  0.41559299  0.97850036  0.75647082  1
  O  O264  1  0.74336515  0.48898460  0.07965563  1
  O  O265  1  0.75696282  0.48343364  0.42421606  1
  O  O266  1  0.74566735  0.47424256  0.74637851  1
  O  O267  1  0.75666929  0.98413917  0.10039545  1
  O  O268  1  0.76307851  0.97802789  0.42174781  1
  O  O269  1  0.74369069  1.00125081  0.74823348  1
  O  O270  1  0.24952206  0.26090368  0.08316012  1
  O  O271  1  0.24918672  0.27430010  0.41244234  1
  O  O272  1  0.26058475  0.26964678  0.74466438  1
  O  O273  1  0.25159068  0.77362872  0.08667312  1
  O  O274  1  0.26022623  0.76263601  0.40919042  1
  O  O275  1  0.25057895  0.77139987  0.75520499  1
  O  O276  1  0.58473481  0.27234244  0.07411089  1
  O  O277  1  0.59708524  0.26576872  0.40365410  1
  O  O278  1  0.58882230  0.27269318  0.74118143  1
  O  O279  1  0.58401425  0.77784969  0.08260849  1
  O  O280  1  0.59391070  0.76603562  0.40458924  1
  O  O281  1  0.57830247  0.76525605  0.75226966  1
  O  O282  1  0.92505681  0.26972738  0.07795588  1
  O  O283  1  0.92841271  0.26551323  0.40261668  1
  O  O284  1  0.91491537  0.26640301  0.75128463  1
  O  O285  1  0.91996867  0.77064636  0.08346318  1
  O  O286  1  0.91880388  0.77251112  0.41365722  1
  O  O287  1  0.91633430  0.75611711  0.74752838  1
  O  O288  1  0.24291710  0.48905011  0.09563119  1
  O  O289  1  0.24670007  0.47811014  0.42036192  1
  O  O290  1  0.25044046  0.47676203  0.75492882  1
  O  O291  1  0.25579211  0.97519077  0.07884806  1
  O  O292  1  0.25707006  0.98353657  0.40919848  1
  O  O293  1  0.25427864  0.97891674  0.74923349  1
  O  O294  1  0.58102579  0.47574292  0.08246959  1
  O  O295  1  0.59405237  0.48446284  0.40407258  1
  O  O296  1  0.58359196  0.47804183  0.74818779  1
  O  O297  1  0.58839150  0.97346842  0.07563662  1
  O  O298  1  0.59475667  0.98379784  0.40351078  1
  O  O299  1  0.57666718  0.98525485  0.74915026  1
  O  O300  1  0.92061040  0.48331344  0.08030455  1
  O  O301  1  0.91989041  0.48093159  0.41460474  1
  O  O302  1  0.90825902  0.48115800  0.75789273  1
  O  O303  1  0.92138749  0.97489025  0.08167501  1
  O  O304  1  0.92272277  0.97663686  0.40292864  1
  O  O305  1  0.92184752  0.99141044  0.74392293  1
  O  O306  1  0.08818450  0.26584589  0.09028569  1
  O  O307  1  0.08827465  0.27878781  0.41605490  1
  O  O308  1  0.09565439  0.26029480  0.75568692  1
  O  O309  1  0.08682183  0.77792059  0.07978743  1
  O  O310  1  0.07984583  0.76005897  0.40729792  1
  O  O311  1  0.08592324  0.75764579  0.75119775  1
  O  O312  1  0.42378879  0.26269457  0.09073628  1
  O  O313  1  0.41604049  0.26298163  0.41852423  1
  O  O314  1  0.42636834  0.26290423  0.76025402  1
  O  O315  1  0.42010516  0.77461247  0.09505484  1
  O  O316  1  0.42275260  0.76510748  0.41971062  1
  O  O317  1  0.41260721  0.76937987  0.75369225  1
  O  O318  1  0.74910946  0.25818512  0.09139791  1
  O  O319  1  0.76242971  0.26486751  0.42892378  1
  O  O320  1  0.74918629  0.27099748  0.75488104  1
  O  O321  1  0.74874634  0.76920533  0.09117893  1
  O  O322  1  0.75938641  0.76975008  0.42146829  1
  O  O323  1  0.74805343  0.75078284  0.74770436  1
  O  O324  1  0.23673103  0.01659305  0.23636386  1
  O  O325  1  0.24834206  0.01833365  0.58316368  1
  O  O326  1  0.24831731  0.02793415  0.91320817  1
  O  O327  1  0.25482790  0.52556948  0.25704262  1
  O  O328  1  0.26070654  0.51415779  0.59356621  1
  O  O329  1  0.25321852  0.51638718  0.92230697  1
  O  O330  1  0.57171659  0.01766060  0.23911003  1
  O  O331  1  0.57931412  0.02060347  0.57563794  1
  O  O332  1  0.57044710  0.01239344  0.90769041  1
  O  O333  1  0.57378716  0.52287142  0.24568557  1
  O  O334  1  0.58422778  0.51925490  0.57812437  1
  O  O335  1  0.58705167  0.50272715  0.91661100  1
  O  O336  1  0.90482643  0.02201085  0.24479648  1
  O  O337  1  0.90738744  0.01394080  0.56528705  1
  O  O338  1  0.91962342  -0.00228589  0.91778004  1
  O  O339  1  0.92535002  0.50955441  0.25609266  1
  O  O340  1  0.91208919  0.50698052  0.57958706  1
  O  O341  1  0.92161620  0.48430636  0.92058507  1
  O  O342  1  0.07448077  0.23081057  0.25656426  1
  O  O343  1  0.08652882  0.23810631  0.57450458  1
  O  O344  1  0.08685336  0.23720360  0.91749820  1
  O  O345  1  0.08840611  0.73069995  0.24729029  1
  O  O346  1  0.08613035  0.73759335  0.57934624  1
  O  O347  1  0.08882693  0.74433390  0.91360905  1
  O  O348  1  0.41154913  0.23890196  0.24951038  1
  O  O349  1  0.41221548  0.23027508  0.59336184  1
  O  O350  1  0.40990533  0.22276329  0.92259610  1
  O  O351  1  0.41128504  0.72672684  0.25724714  1
  O  O352  1  0.41732502  0.72632942  0.58678027  1
  O  O353  1  0.40973062  0.73655333  0.92782103  1
  O  O354  1  0.74357605  0.23236510  0.26458018  1
  O  O355  1  0.73632716  0.22904894  0.58983881  1
  O  O356  1  0.74200670  0.24340626  0.91913085  1
  O  O357  1  0.74125982  0.73607524  0.26249134  1
  O  O358  1  0.74638783  0.72918499  0.58443100  1
  O  O359  1  0.75112270  0.74029141  0.91225492  1
