# generated using pymatgen
data_Ba17Sr5La8Pr42Mn72O216
_symmetry_space_group_name_H-M   'P 1'
_cell_length_a   16.68016228
_cell_length_b   15.71241748
_cell_length_c   16.82604767
_cell_angle_alpha   89.99635420
_cell_angle_beta   90.03233906
_cell_angle_gamma   90.02902114
_symmetry_Int_Tables_number   1
_chemical_formula_structural   Ba17Sr5La8Pr42Mn72O216
_chemical_formula_sum   'Ba17 Sr5 La8 Pr42 Mn72 O216'
_cell_volume   4409.86475686
_cell_formula_units_Z   1
loop_
 _symmetry_equiv_pos_site_id
 _symmetry_equiv_pos_as_xyz
  1  'x, y, z'
loop_
 _atom_site_type_symbol
 _atom_site_label
 _atom_site_symmetry_multiplicity
 _atom_site_fract_x
 _atom_site_fract_y
 _atom_site_fract_z
 _atom_site_occupancy
  Ba  Ba0  1  0.16333032  0.87560278  0.50006912  1
  Ba  Ba1  1  0.16811266  0.12548273  0.50021583  1
  Ba  Ba2  1  0.16728939  0.87531436  0.16251214  1
  Ba  Ba3  1  0.16988908  0.62518013  0.16448805  1
  Ba  Ba4  1  0.33539103  0.62539955  0.32994238  1
  Ba  Ba5  1  0.83188634  0.37652355  0.16746718  1
  Ba  Ba6  1  0.66485765  0.37489542  0.66782136  1
  Ba  Ba7  1  0.50299656  0.62392349  0.83596659  1
  Ba  Ba8  1  0.50222306  0.62443372  0.16943046  1
  Ba  Ba9  1  0.83192337  0.87372576  0.16611740  1
  Ba  Ba10  1  0.66237753  0.37518041  0.33549884  1
  Ba  Ba11  1  -0.00113919  0.87428472  0.33247873  1
  Ba  Ba12  1  0.49497325  0.87442600  0.83220493  1
  Ba  Ba13  1  0.33098538  0.87573901  -0.00536325  1
  Ba  Ba14  1  0.17134446  0.12695367  0.16627904  1
  Ba  Ba15  1  0.83491236  0.12552870  0.50210060  1
  Ba  Ba16  1  -0.00128203  0.37615253  0.33365470  1
  Sr  Sr17  1  0.83626074  0.62364358  0.16707222  1
  Sr  Sr18  1  0.15841485  0.87442617  0.83049160  1
  Sr  Sr19  1  0.15974006  0.37598677  0.83025631  1
  Sr  Sr20  1  0.50503012  0.12602234  0.50236469  1
  Sr  Sr21  1  0.49688499  0.37482455  0.16986576  1
  La  La22  1  -0.00587475  0.87778926  0.66630054  1
  La  La23  1  0.67719003  0.12468022  1.00250147  1
  La  La24  1  0.00354199  0.62500541  1.00065769  1
  La  La25  1  0.33770401  0.12229866  0.33263121  1
  La  La26  1  0.67161292  0.12311910  0.66479787  1
  La  La27  1  0.50712919  0.12443205  0.17018053  1
  La  La28  1  0.00385102  0.62692063  0.32869647  1
  La  La29  1  0.65949101  0.87306367  0.00462565  1
  Pr  Pr30  1  0.67269585  0.62402126  0.33091704  1
  Pr  Pr31  1  -0.00719596  0.37232003  0.66697759  1
  Pr  Pr32  1  0.83037323  0.37605282  0.83354692  1
  Pr  Pr33  1  0.84190822  0.12627309  0.17316714  1
  Pr  Pr34  1  0.65911411  0.87400666  0.33618144  1
  Pr  Pr35  1  0.32580493  0.37318551  0.66783269  1
  Pr  Pr36  1  -0.00113502  0.37494509  0.00579249  1
  Pr  Pr37  1  0.17277994  0.62423831  0.83747648  1
  Pr  Pr38  1  0.16246874  0.37627115  0.49628669  1
  Pr  Pr39  1  0.32914967  0.37698291  0.00076712  1
  Pr  Pr40  1  0.50742417  0.62162384  0.50392132  1
  Pr  Pr41  1  0.51210152  0.12517822  0.83569623  1
  Pr  Pr42  1  0.17128160  0.62672522  0.49724689  1
  Pr  Pr43  1  0.48851728  0.37213203  0.49588934  1
  Pr  Pr44  1  0.65753270  0.87792869  0.66844032  1
  Pr  Pr45  1  -0.00121786  0.87484627  0.00623206  1
  Pr  Pr46  1  0.00712923  0.12288456  0.33178535  1
  Pr  Pr47  1  0.67781622  0.12639625  0.33414421  1
  Pr  Pr48  1  0.65735920  0.37662213  0.00890539  1
  Pr  Pr49  1  0.33981371  0.62591398  0.66114264  1
  Pr  Pr50  1  0.32535596  0.87349418  0.32895496  1
  Pr  Pr51  1  0.34182126  0.12402354  0.65969674  1
  Pr  Pr52  1  0.31861098  0.87628892  0.67402643  1
  Pr  Pr53  1  0.82678946  0.87345367  0.83229287  1
  Pr  Pr54  1  0.00759534  0.12599895  0.66246747  1
  Pr  Pr55  1  0.82384082  0.37513860  0.49285911  1
  Pr  Pr56  1  0.16761084  0.37869669  0.16340632  1
  Pr  Pr57  1  0.67567570  0.62887686  0.66741718  1
  Pr  Pr58  1  0.00771722  0.12601746  0.99964082  1
  Pr  Pr59  1  0.33701840  0.62775201  0.99847982  1
  Pr  Pr60  1  0.82578309  0.87342700  0.49262284  1
  Pr  Pr61  1  0.49112881  0.37426851  0.83131347  1
  Pr  Pr62  1  0.84063359  0.62150182  0.49976012  1
  Pr  Pr63  1  0.67798066  0.62425174  1.00017610  1
  Pr  Pr64  1  0.49323691  0.87497702  0.16387315  1
  Pr  Pr65  1  0.00897518  0.62414863  0.66671061  1
  Pr  Pr66  1  0.84024245  0.12563972  0.83237775  1
  Pr  Pr67  1  0.48753053  0.87636058  0.50045812  1
  Pr  Pr68  1  0.34123339  0.12391742  0.99830640  1
  Pr  Pr69  1  0.83840452  0.62319976  0.83590674  1
  Pr  Pr70  1  0.17428963  0.12711131  0.83517457  1
  Pr  Pr71  1  0.33029777  0.37645474  0.33020974  1
  Mn  Mn72  1  0.00086595  0.00093268  0.16444972  1
  Mn  Mn73  1  -0.00235052  0.00021287  0.50087072  1
  Mn  Mn74  1  -0.00152256  0.00061305  0.83351873  1
  Mn  Mn75  1  0.00038405  0.50065854  0.16644020  1
  Mn  Mn76  1  0.00034673  0.50150418  0.50189358  1
  Mn  Mn77  1  -0.00042651  0.49782485  0.83208295  1
  Mn  Mn78  1  0.33659261  0.00303015  0.16404871  1
  Mn  Mn79  1  0.33381234  -0.00000105  0.49958943  1
  Mn  Mn80  1  0.33144880  0.00331190  0.82909607  1
  Mn  Mn81  1  0.33572779  0.49724141  0.16494430  1
  Mn  Mn82  1  0.33222534  0.50056430  0.50013101  1
  Mn  Mn83  1  0.33217813  0.49762581  0.83114181  1
  Mn  Mn84  1  0.66797127  0.00059038  0.16933215  1
  Mn  Mn85  1  0.66381419  -0.00153248  0.50148373  1
  Mn  Mn86  1  0.66883753  0.00017120  0.83409493  1
  Mn  Mn87  1  0.66586440  0.50039941  0.16738506  1
  Mn  Mn88  1  0.66531966  0.50199400  0.50231504  1
  Mn  Mn89  1  0.66780085  0.49846515  0.83640615  1
  Mn  Mn90  1  0.00209825  0.25125555  0.16632824  1
  Mn  Mn91  1  -0.00020960  0.25151267  0.50152060  1
  Mn  Mn92  1  -0.00060033  0.25071651  0.83270417  1
  Mn  Mn93  1  -0.00077862  0.74890600  0.16524326  1
  Mn  Mn94  1  -0.00193653  0.74699117  0.50111132  1
  Mn  Mn95  1  -0.00175692  0.75020268  0.83236534  1
  Mn  Mn96  1  0.33701383  0.25077040  0.16517101  1
  Mn  Mn97  1  0.33239647  0.25008325  0.49994344  1
  Mn  Mn98  1  0.33355255  0.24949311  0.83098967  1
  Mn  Mn99  1  0.33470940  0.75041408  0.16433002  1
  Mn  Mn100  1  0.33355430  0.75039599  0.49950336  1
  Mn  Mn101  1  0.33078738  0.74886247  0.82980116  1
  Mn  Mn102  1  0.66668725  0.25000236  0.16714135  1
  Mn  Mn103  1  0.66386081  0.24852498  0.50276179  1
  Mn  Mn104  1  0.66923774  0.25025336  0.83707718  1
  Mn  Mn105  1  0.66731344  0.74992480  0.16923942  1
  Mn  Mn106  1  0.66476870  0.74915276  0.50047940  1
  Mn  Mn107  1  0.66804159  0.74969793  0.83294735  1
  Mn  Mn108  1  0.16872019  0.25128056  -0.00226427  1
  Mn  Mn109  1  0.16840929  0.25065832  0.33337141  1
  Mn  Mn110  1  0.16579351  0.25241561  0.66802367  1
  Mn  Mn111  1  0.16616557  0.74864680  -0.00451888  1
  Mn  Mn112  1  0.16640738  0.75015717  0.33321303  1
  Mn  Mn113  1  0.16467841  0.74728388  0.66816129  1
  Mn  Mn114  1  0.50128642  0.24892593  -0.00040290  1
  Mn  Mn115  1  0.49933217  0.24754237  0.33586404  1
  Mn  Mn116  1  0.49948497  0.25120339  0.66749136  1
  Mn  Mn117  1  0.50125089  0.74879565  0.00214066  1
  Mn  Mn118  1  0.50028709  0.75286913  0.33575156  1
  Mn  Mn119  1  0.49945595  0.74837269  0.66479587  1
  Mn  Mn120  1  0.83529321  0.24869684  -0.00069709  1
  Mn  Mn121  1  0.83438419  0.25008402  0.33533851  1
  Mn  Mn122  1  0.83304272  0.25150036  0.66815977  1
  Mn  Mn123  1  0.83495812  0.74961843  -0.00238015  1
  Mn  Mn124  1  0.83070695  0.74907784  0.33326867  1
  Mn  Mn125  1  0.83402348  0.75012780  0.66505137  1
  Mn  Mn126  1  0.16745760  0.00287812  -0.00422018  1
  Mn  Mn127  1  0.16757584  0.00132367  0.33326270  1
  Mn  Mn128  1  0.16395497  0.00112549  0.66963504  1
  Mn  Mn129  1  0.16716336  0.49847784  -0.00369996  1
  Mn  Mn130  1  0.16686526  0.49874975  0.33236667  1
  Mn  Mn131  1  0.16610887  0.50007987  0.66618144  1
  Mn  Mn132  1  0.50222922  0.00219971  0.00159574  1
  Mn  Mn133  1  0.50108178  0.00018664  0.33492781  1
  Mn  Mn134  1  0.49802191  0.00077226  0.66594790  1
  Mn  Mn135  1  0.50014684  0.49907784  0.00078660  1
  Mn  Mn136  1  0.49909483  0.49900382  0.33648454  1
  Mn  Mn137  1  0.50043254  0.49877423  0.66730744  1
  Mn  Mn138  1  0.83549010  0.00152750  -0.00098128  1
  Mn  Mn139  1  0.83303132  -0.00092308  0.33417126  1
  Mn  Mn140  1  0.83274669  -0.00284386  0.66694057  1
  Mn  Mn141  1  0.83486741  0.49957290  -0.00168364  1
  Mn  Mn142  1  0.83246465  0.50144458  0.33429850  1
  Mn  Mn143  1  0.83405098  0.50108397  0.66741492  1
  O  O144  1  0.16166468  0.12955243  0.00936312  1
  O  O145  1  0.16773912  0.12790947  0.34270433  1
  O  O146  1  0.15711993  0.12707833  0.69143776  1
  O  O147  1  0.16203964  0.62053063  0.00735095  1
  O  O148  1  0.16562285  0.62251886  0.35120648  1
  O  O149  1  0.16094555  0.62146184  0.69479915  1
  O  O150  1  0.49361514  0.12728275  0.02299335  1
  O  O151  1  0.48808897  0.12223155  0.35600388  1
  O  O152  1  0.49151619  0.12863533  0.69192869  1
  O  O153  1  0.48924887  0.62265927  0.01117426  1
  O  O154  1  0.50133022  0.62796579  0.36040440  1
  O  O155  1  0.49015217  0.62413400  0.67986849  1
  O  O156  1  0.82938327  0.12552827  0.02766351  1
  O  O157  1  0.83579411  0.12429950  0.34442020  1
  O  O158  1  0.82728431  0.12043833  0.69002441  1
  O  O159  1  0.82754632  0.62531367  0.01558795  1
  O  O160  1  0.82994772  0.62614104  0.35598012  1
  O  O161  1  0.82704911  0.62656921  0.69384309  1
  O  O162  1  0.17100176  0.37276874  0.31041640  1
  O  O163  1  0.17089531  0.37929601  0.63909383  1
  O  O164  1  0.17053036  0.37398144  0.97700292  1
  O  O165  1  0.17251093  0.87743771  0.32430749  1
  O  O166  1  0.16907183  0.87267050  0.65711511  1
  O  O167  1  0.15866304  0.87665251  0.98043281  1
  O  O168  1  0.49606088  0.37088011  0.32053554  1
  O  O169  1  0.49786254  0.37503992  0.64055396  1
  O  O170  1  0.50923245  0.37103685  0.97338570  1
  O  O171  1  0.51165214  0.87991188  0.30693089  1
  O  O172  1  0.50640634  0.87194047  0.64487540  1
  O  O173  1  0.50967431  0.87739028  0.98982171  1
  O  O174  1  0.83012595  0.37582783  0.32841615  1
  O  O175  1  0.84082433  0.38155441  0.63803662  1
  O  O176  1  0.84533079  0.37270658  0.97534990  1
  O  O177  1  0.82487500  0.87369112  0.32434672  1
  O  O178  1  0.84194401  0.87158586  0.63691285  1
  O  O179  1  0.84352309  0.87640006  0.97475416  1
  O  O180  1  0.00716132  0.37593937  0.17463485  1
  O  O181  1  0.00729185  0.37933851  0.52450839  1
  O  O182  1  -0.00457487  0.37417252  0.86131921  1
  O  O183  1  0.00076984  0.87613107  0.16918263  1
  O  O184  1  -0.00695503  0.86884533  0.52165765  1
  O  O185  1  -0.00416780  0.87760300  0.86083103  1
  O  O186  1  0.33295824  0.37169839  0.18536575  1
  O  O187  1  0.33345079  0.37649358  0.52557961  1
  O  O188  1  0.33841673  0.37106305  0.85696927  1
  O  O189  1  0.34147597  0.88095528  0.18224290  1
  O  O190  1  0.33728695  0.87245081  0.52784109  1
  O  O191  1  0.32783693  0.87812714  0.83621094  1
  O  O192  1  0.66440432  0.37385829  0.17633199  1
  O  O193  1  0.67448283  0.37854528  0.51135237  1
  O  O194  1  0.67689343  0.37035689  0.86423543  1
  O  O195  1  0.66442480  0.87843577  0.19211982  1
  O  O196  1  0.67452866  0.87136233  0.52593169  1
  O  O197  1  0.67357805  0.87531260  0.85821325  1
  O  O198  1  -0.00536678  0.12680599  0.14606266  1
  O  O199  1  -0.00187360  0.13014798  0.47975930  1
  O  O200  1  -0.00871395  0.12786433  0.80300748  1
  O  O201  1  -0.00153023  0.62282173  0.14763933  1
  O  O202  1  -0.00852638  0.62293915  0.47575016  1
  O  O203  1  -0.00641058  0.62129028  0.80720613  1
  O  O204  1  0.34329759  0.12876841  0.14347788  1
  O  O205  1  0.33582267  0.12805895  0.47864115  1
  O  O206  1  0.32638530  0.12922196  0.80235547  1
  O  O207  1  0.33647942  0.61878553  0.14481283  1
  O  O208  1  0.32826316  0.62461843  0.48612090  1
  O  O209  1  0.32710373  0.61986577  0.80617738  1
  O  O210  1  0.66600241  0.12480835  0.14597603  1
  O  O211  1  0.66090170  0.11932478  0.47978435  1
  O  O212  1  0.66583996  0.12616514  0.80953863  1
  O  O213  1  0.66863364  0.62369295  0.14383299  1
  O  O214  1  0.65558200  0.62747813  0.47469531  1
  O  O215  1  0.67427290  0.62628082  0.81132825  1
  O  O216  1  0.08290522  0.01411225  0.24860371  1
  O  O217  1  0.08276543  0.01107783  0.58613503  1
  O  O218  1  0.08748125  0.02570715  0.90459741  1
  O  O219  1  0.08194549  0.51290280  0.25367066  1
  O  O220  1  0.08848490  0.52616246  0.57935966  1
  O  O221  1  0.08461382  0.51744013  0.90915508  1
  O  O222  1  0.42778852  0.01731023  0.24338232  1
  O  O223  1  0.42339134  0.01576253  0.57542584  1
  O  O224  1  0.41978652  0.02500676  0.90570620  1
  O  O225  1  0.41833934  0.50191456  0.25042168  1
  O  O226  1  0.41948461  0.51786868  0.57574140  1
  O  O227  1  0.41546934  0.50583831  0.91622792  1
  O  O228  1  0.75589368  0.02257301  0.24397921  1
  O  O229  1  0.74937422  0.00952827  0.58455810  1
  O  O230  1  0.76195063  0.02075071  0.90870205  1
  O  O231  1  0.75111251  0.51783634  0.25003289  1
  O  O232  1  0.75434256  0.52488173  0.58157872  1
  O  O233  1  0.75750263  0.51935524  0.91094845  1
  O  O234  1  0.26475847  0.23806639  0.25998915  1
  O  O235  1  0.25975872  0.23630892  0.59418015  1
  O  O236  1  0.26011563  0.22853749  0.92087814  1
  O  O237  1  0.25509025  0.74873555  0.24968099  1
  O  O238  1  0.25531021  0.73021996  0.59085972  1
  O  O239  1  0.25150866  0.72651065  0.91558640  1
  O  O240  1  0.58792177  0.22479621  0.26240317  1
  O  O241  1  0.58864080  0.22888570  0.59640490  1
  O  O242  1  0.59263284  0.22469647  0.92564402  1
  O  O243  1  0.59420035  0.73636542  0.26881112  1
  O  O244  1  0.59128398  0.72758218  0.59046889  1
  O  O245  1  0.59460512  0.73529260  0.93257399  1
  O  O246  1  0.91979837  0.23284023  0.25214111  1
  O  O247  1  0.92657211  0.23727438  0.59611105  1
  O  O248  1  0.92111031  0.22436012  0.91833710  1
  O  O249  1  0.91851280  0.73320943  0.25807641  1
  O  O250  1  0.92362907  0.72360913  0.59328974  1
  O  O251  1  0.92299809  0.72518454  0.91968774  1
  O  O252  1  0.08607082  0.48025764  0.07748539  1
  O  O253  1  0.08724571  0.48985303  0.42211717  1
  O  O254  1  0.07483792  0.47977363  0.74054955  1
  O  O255  1  0.07426882  0.99389051  0.06958130  1
  O  O256  1  0.07620115  0.99904574  0.41208020  1
  O  O257  1  0.06920965  0.98357890  0.74302479  1
  O  O258  1  0.41240993  0.47703817  0.07598427  1
  O  O259  1  0.41036485  0.47773984  0.41476325  1
  O  O260  1  0.41090948  0.47609789  0.74500412  1
  O  O261  1  0.41813344  0.98887633  0.08094851  1
  O  O262  1  0.41326569  0.97321482  0.40627387  1
  O  O263  1  0.40224498  0.98771329  0.73446947  1
  O  O264  1  0.74468335  0.48539262  0.06970448  1
  O  O265  1  0.74776858  0.49692704  0.41967827  1
  O  O266  1  0.75245849  0.48401772  0.75253677  1
  O  O267  1  0.74138373  0.98524358  0.07036315  1
  O  O268  1  0.73850191  0.98401615  0.41198704  1
  O  O269  1  0.74589982  0.97434274  0.74315432  1
  O  O270  1  0.24748500  0.27225620  0.08750328  1
  O  O271  1  0.24642188  0.27438989  0.42293585  1
  O  O272  1  0.24366035  0.27057855  0.75430883  1
  O  O273  1  0.25105953  0.75172929  0.07590079  1
  O  O274  1  0.25017262  0.76046773  0.41935950  1
  O  O275  1  0.23982987  0.75959985  0.75467845  1
  O  O276  1  0.57648588  0.26189186  0.08785985  1
  O  O277  1  0.56990715  0.26235927  0.43020283  1
  O  O278  1  0.57291451  0.26445006  0.76677293  1
  O  O279  1  0.58054404  0.76987319  0.09586703  1
  O  O280  1  0.57348930  0.77556595  0.42953034  1
  O  O281  1  0.58385712  0.76248419  0.74908181  1
  O  O282  1  0.92033972  0.26230294  0.07864547  1
  O  O283  1  0.91096573  0.26917736  0.42914464  1
  O  O284  1  0.91117535  0.27461750  0.75620890  1
  O  O285  1  0.91670240  0.75933915  0.07797096  1
  O  O286  1  0.90002958  0.75944970  0.42966316  1
  O  O287  1  0.90738027  0.77078377  0.75856797  1
  O  O288  1  0.24971835  0.47820388  0.08105556  1
  O  O289  1  0.24715155  0.47778971  0.41951265  1
  O  O290  1  0.24703882  0.47789264  0.74940885  1
  O  O291  1  0.25202432  0.99942526  0.08017062  1
  O  O292  1  0.25463655  0.98962672  0.41616966  1
  O  O293  1  0.23732168  0.99042044  0.75812883  1
  O  O294  1  0.57811305  0.48298855  0.08670488  1
  O  O295  1  0.56886214  0.48593481  0.43471733  1
  O  O296  1  0.57706995  0.48027557  0.76554183  1
  O  O297  1  0.57971485  0.98681099  0.09773956  1
  O  O298  1  0.57622407  0.97428178  0.42654489  1
  O  O299  1  0.57928037  0.99083158  0.75263607  1
  O  O300  1  0.92153027  0.48936596  0.07548872  1
  O  O301  1  0.90720001  0.48661617  0.43148929  1
  O  O302  1  0.91313389  0.47602728  0.75384318  1
  O  O303  1  0.91471524  0.98975766  0.08123221  1
  O  O304  1  0.90567842  0.98315707  0.42634106  1
  O  O305  1  0.90620355  0.97842785  0.76006720  1
  O  O306  1  0.08306788  0.26875766  0.07798329  1
  O  O307  1  0.08393262  0.26536966  0.42145892  1
  O  O308  1  0.07403250  0.27192355  0.74483966  1
  O  O309  1  0.07686351  0.75714936  0.06849814  1
  O  O310  1  0.07798220  0.74963494  0.41679415  1
  O  O311  1  0.06840801  0.76458084  0.73996564  1
  O  O312  1  0.40812735  0.26861939  0.06704461  1
  O  O313  1  0.40709552  0.27077031  0.41049588  1
  O  O314  1  0.40958427  0.27403307  0.74233400  1
  O  O315  1  0.41818641  0.76289411  0.08275048  1
  O  O316  1  0.41221162  0.77850427  0.41080066  1
  O  O317  1  0.40326476  0.76156481  0.73368507  1
  O  O318  1  0.74452369  0.26492342  0.06959970  1
  O  O319  1  0.74655564  0.25422927  0.41648919  1
  O  O320  1  0.75188016  0.26505612  0.75546783  1
  O  O321  1  0.74234973  0.76459223  0.06785770  1
  O  O322  1  0.73655873  0.76543238  0.40968333  1
  O  O323  1  0.74520367  0.77428571  0.73589894  1
  O  O324  1  0.26384316  0.01203846  0.25558380  1
  O  O325  1  0.25811005  0.01354358  0.59791290  1
  O  O326  1  0.25631722  0.02537731  0.91706389  1
  O  O327  1  0.25035672  0.50067657  0.24692994  1
  O  O328  1  0.25184107  0.52297825  0.58670595  1
  O  O329  1  0.25364602  0.51964546  0.91699142  1
  O  O330  1  0.59295604  0.02461986  0.26446827  1
  O  O331  1  0.58989263  0.01436132  0.59338332  1
  O  O332  1  0.59058549  0.02185538  0.92566066  1
  O  O333  1  0.58843992  0.51606263  0.26486865  1
  O  O334  1  0.59138040  0.52446265  0.59313689  1
  O  O335  1  0.59598869  0.51386061  0.93061344  1
  O  O336  1  0.92214531  0.01906301  0.25184035  1
  O  O337  1  0.92476705  0.01551464  0.59880685  1
  O  O338  1  0.92384503  0.02839232  0.92135611  1
  O  O339  1  0.91770521  0.51677197  0.25766046  1
  O  O340  1  0.92273213  0.52515339  0.59241678  1
  O  O341  1  0.91899707  0.52122087  0.91642560  1
  O  O342  1  0.08177493  0.23629189  0.25233680  1
  O  O343  1  0.08415224  0.23945185  0.58584562  1
  O  O344  1  0.08530715  0.23041435  0.90782406  1
  O  O345  1  0.08138281  0.73768362  0.25089338  1
  O  O346  1  0.08994049  0.72389309  0.58014830  1
  O  O347  1  0.08738031  0.72897526  0.90541335  1
  O  O348  1  0.42632665  0.23173880  0.24312815  1
  O  O349  1  0.42008950  0.23529583  0.57781079  1
  O  O350  1  0.42714550  0.22830372  0.90479560  1
  O  O351  1  0.42366009  0.75033467  0.24919141  1
  O  O352  1  0.42585371  0.73193240  0.57120140  1
  O  O353  1  0.41155771  0.73746066  0.91418273  1
  O  O354  1  0.75485980  0.22969027  0.24578304  1
  O  O355  1  0.74985888  0.23789274  0.58765230  1
  O  O356  1  0.75863022  0.22451804  0.91208319  1
  O  O357  1  0.75284902  0.72929846  0.24656078  1
  O  O358  1  0.75665827  0.72504107  0.57376936  1
  O  O359  1  0.76188494  0.73349878  0.90532670  1
