# generated using pymatgen
data_Ba17Sr5La8Pr42Mn72O216
_symmetry_space_group_name_H-M   'P 1'
_cell_length_a   16.67443503
_cell_length_b   15.71092857
_cell_length_c   16.82264677
_cell_angle_alpha   89.99841948
_cell_angle_beta   90.01474996
_cell_angle_gamma   89.99177895
_symmetry_Int_Tables_number   1
_chemical_formula_structural   Ba17Sr5La8Pr42Mn72O216
_chemical_formula_sum   'Ba17 Sr5 La8 Pr42 Mn72 O216'
_cell_volume   4407.04300955
_cell_formula_units_Z   1
loop_
 _symmetry_equiv_pos_site_id
 _symmetry_equiv_pos_as_xyz
  1  'x, y, z'
loop_
 _atom_site_type_symbol
 _atom_site_label
 _atom_site_symmetry_multiplicity
 _atom_site_fract_x
 _atom_site_fract_y
 _atom_site_fract_z
 _atom_site_occupancy
  Ba  Ba0  1  0.50045989  0.37502122  0.49915058  1
  Ba  Ba1  1  0.83294584  0.12549675  0.16432971  1
  Ba  Ba2  1  0.83673625  0.37710301  0.49898326  1
  Ba  Ba3  1  0.50133954  0.12492309  0.50111676  1
  Ba  Ba4  1  0.33253092  0.12491991  0.33583668  1
  Ba  Ba5  1  0.83342314  0.87578635  0.16324881  1
  Ba  Ba6  1  0.16602148  0.12561946  0.16748927  1
  Ba  Ba7  1  0.66567979  0.87315691  0.00320852  1
  Ba  Ba8  1  0.66703120  0.87422694  0.33441829  1
  Ba  Ba9  1  0.16615099  0.12538069  0.83599171  1
  Ba  Ba10  1  0.16514636  0.87320973  0.50138956  1
  Ba  Ba11  1  -0.00103619  0.37502727  0.66573586  1
  Ba  Ba12  1  0.66594411  0.37519392  0.66806138  1
  Ba  Ba13  1  0.00073479  0.12580984  0.66665725  1
  Ba  Ba14  1  0.33215921  0.37579070  0.33523430  1
  Ba  Ba15  1  0.49819946  0.37609859  0.16505730  1
  Ba  Ba16  1  0.32910644  0.87201641  0.00147284  1
  Sr  Sr17  1  0.16795683  0.12482222  0.50237668  1
  Sr  Sr18  1  -0.00193850  0.12466798  0.99664267  1
  Sr  Sr19  1  0.67045684  0.62626721  1.00009258  1
  Sr  Sr20  1  0.83276005  0.37633179  0.82760545  1
  Sr  Sr21  1  -0.00043145  0.62575690  0.99571531  1
  La  La22  1  0.17163354  0.62340780  0.50464640  1
  La  La23  1  -0.00003897  0.87657701  0.66542542  1
  La  La24  1  -0.00166345  0.87781137  0.33149005  1
  La  La25  1  0.83391516  0.12522699  0.49774992  1
  La  La26  1  0.83497169  0.87606305  0.49483874  1
  La  La27  1  0.16914700  0.62319136  0.84010818  1
  La  La28  1  0.66974737  0.62194167  0.33190152  1
  La  La29  1  0.66674136  0.12388887  1.00213350  1
  Pr  Pr30  1  0.66157683  0.87698702  0.67210865  1
  Pr  Pr31  1  0.83499393  0.62698925  0.50009386  1
  Pr  Pr32  1  0.15799549  0.37396712  0.83172988  1
  Pr  Pr33  1  0.83141439  0.63017045  0.16405792  1
  Pr  Pr34  1  0.16209618  0.87757427  0.16657726  1
  Pr  Pr35  1  0.32427092  0.87655667  0.67270460  1
  Pr  Pr36  1  0.49615179  0.37756957  0.82741178  1
  Pr  Pr37  1  0.49965902  0.12122755  0.17150848  1
  Pr  Pr38  1  0.50915962  0.62338049  0.50064732  1
  Pr  Pr39  1  0.16472677  0.37178003  0.49931968  1
  Pr  Pr40  1  0.67310733  0.12777910  0.66561676  1
  Pr  Pr41  1  0.51125565  0.62673955  0.83594322  1
  Pr  Pr42  1  0.32769624  0.87596835  0.33372829  1
  Pr  Pr43  1  0.00071837  0.37283333  -0.00229567  1
  Pr  Pr44  1  0.32940766  0.37258494  0.66804157  1
  Pr  Pr45  1  0.00058297  0.12553586  0.32943498  1
  Pr  Pr46  1  0.83454147  0.37610550  0.16438777  1
  Pr  Pr47  1  0.50263286  0.12327629  0.83280624  1
  Pr  Pr48  1  0.83162844  0.87552223  0.83177143  1
  Pr  Pr49  1  0.34375627  0.62804497  0.66532149  1
  Pr  Pr50  1  0.00001795  0.87770919  0.00180727  1
  Pr  Pr51  1  0.34344452  0.62237879  0.99660700  1
  Pr  Pr52  1  0.32352602  0.37603180  0.00337941  1
  Pr  Pr53  1  0.15606707  0.87549716  0.83218877  1
  Pr  Pr54  1  0.34195763  0.62398496  0.33348252  1
  Pr  Pr55  1  0.49574522  0.87586503  0.16219644  1
  Pr  Pr56  1  0.83436064  0.13362020  0.83896997  1
  Pr  Pr57  1  0.33737976  0.12759100  0.99865183  1
  Pr  Pr58  1  0.50664065  0.62801539  0.16652279  1
  Pr  Pr59  1  0.49283919  0.87428673  0.49713817  1
  Pr  Pr60  1  0.66744720  0.37762619  0.00060125  1
  Pr  Pr61  1  0.16592184  0.37303782  0.16883804  1
  Pr  Pr62  1  0.33457297  0.12276323  0.65861083  1
  Pr  Pr63  1  0.66939584  0.37162197  0.34053759  1
  Pr  Pr64  1  0.49260700  0.87188449  0.83288808  1
  Pr  Pr65  1  0.67383757  0.62203821  0.66616399  1
  Pr  Pr66  1  0.00088355  0.62296941  0.66373756  1
  Pr  Pr67  1  0.00483274  0.37296133  0.33561453  1
  Pr  Pr68  1  0.17141519  0.62405634  0.16866505  1
  Pr  Pr69  1  0.00067950  0.62435459  0.32717055  1
  Pr  Pr70  1  0.66250319  0.12740955  0.33195502  1
  Pr  Pr71  1  0.83403390  0.61849050  0.83562942  1
  Mn  Mn72  1  0.00004060  0.00105656  0.16498364  1
  Mn  Mn73  1  0.00025066  -0.00004319  0.49886572  1
  Mn  Mn74  1  -0.00391623  -0.00125409  0.83400593  1
  Mn  Mn75  1  0.00079446  0.50075636  0.16342803  1
  Mn  Mn76  1  0.00199275  0.50230901  0.49641375  1
  Mn  Mn77  1  0.00009586  0.50237570  0.83231493  1
  Mn  Mn78  1  0.33223953  -0.00158188  0.16655052  1
  Mn  Mn79  1  0.33271759  -0.00291565  0.50194904  1
  Mn  Mn80  1  0.33302282  0.00030105  0.83404236  1
  Mn  Mn81  1  0.33283774  0.50127287  0.16533250  1
  Mn  Mn82  1  0.33384889  0.50280304  0.50200321  1
  Mn  Mn83  1  0.33375243  0.50042723  0.83373195  1
  Mn  Mn84  1  0.66536396  0.00065601  0.16734371  1
  Mn  Mn85  1  0.66757161  -0.00115286  0.50347361  1
  Mn  Mn86  1  0.66528358  -0.00067463  0.83395661  1
  Mn  Mn87  1  0.66773303  0.50028443  0.16629031  1
  Mn  Mn88  1  0.66922292  0.50154093  0.49808017  1
  Mn  Mn89  1  0.66627222  0.50083645  0.83526774  1
  Mn  Mn90  1  -0.00142865  0.25354434  0.16603630  1
  Mn  Mn91  1  0.00173355  0.24963577  0.49751683  1
  Mn  Mn92  1  -0.00235722  0.25066568  0.83412054  1
  Mn  Mn93  1  0.00234517  0.74630831  0.16246416  1
  Mn  Mn94  1  0.00049739  0.74748200  0.49807537  1
  Mn  Mn95  1  -0.00204887  0.74880880  0.83228791  1
  Mn  Mn96  1  0.33325237  0.25153700  0.16489716  1
  Mn  Mn97  1  0.33297753  0.24991527  0.50241750  1
  Mn  Mn98  1  0.33450046  0.25062173  0.83394144  1
  Mn  Mn99  1  0.33259570  0.74597868  0.16800689  1
  Mn  Mn100  1  0.33487339  0.74876972  0.50002850  1
  Mn  Mn101  1  0.33210641  0.74833725  0.83362215  1
  Mn  Mn102  1  0.66552791  0.25283723  0.16722354  1
  Mn  Mn103  1  0.66903912  0.24822910  0.49988381  1
  Mn  Mn104  1  0.66334223  0.24819427  0.83517114  1
  Mn  Mn105  1  0.66633196  0.74871292  0.16697304  1
  Mn  Mn106  1  0.66783233  0.75042973  0.50365997  1
  Mn  Mn107  1  0.66802959  0.75199399  0.83323346  1
  Mn  Mn108  1  0.16590328  0.25052417  0.00060758  1
  Mn  Mn109  1  0.16589026  0.24979283  0.33468077  1
  Mn  Mn110  1  0.16815043  0.25094550  0.66735364  1
  Mn  Mn111  1  0.16577373  0.74757370  0.00174493  1
  Mn  Mn112  1  0.16636800  0.74693234  0.33359258  1
  Mn  Mn113  1  0.16599501  0.74820123  0.67082522  1
  Mn  Mn114  1  0.50021283  0.25056920  -0.00277865  1
  Mn  Mn115  1  0.50016766  0.24967766  0.33200814  1
  Mn  Mn116  1  0.49825695  0.24992143  0.66925252  1
  Mn  Mn117  1  0.50001296  0.74908937  0.00026076  1
  Mn  Mn118  1  0.50040433  0.75049433  0.33338117  1
  Mn  Mn119  1  0.50168143  0.75011672  0.66551730  1
  Mn  Mn120  1  0.83218375  0.25428748  -0.00115254  1
  Mn  Mn121  1  0.83414577  0.25054447  0.33129920  1
  Mn  Mn122  1  0.83336911  0.24875084  0.66811310  1
  Mn  Mn123  1  0.83499252  0.74682330  -0.00276188  1
  Mn  Mn124  1  0.83512767  0.74905028  0.33322547  1
  Mn  Mn125  1  0.83317879  0.75068609  0.66564917  1
  Mn  Mn126  1  0.16639427  -0.00025279  0.00020003  1
  Mn  Mn127  1  0.16590170  -0.00120418  0.33408002  1
  Mn  Mn128  1  0.16641346  -0.00047186  0.66834106  1
  Mn  Mn129  1  0.16535814  0.50108159  0.00222922  1
  Mn  Mn130  1  0.16656458  0.50331431  0.33613395  1
  Mn  Mn131  1  0.16913379  0.50295777  0.67018470  1
  Mn  Mn132  1  0.49821340  0.00176438  0.00107599  1
  Mn  Mn133  1  0.49971934  -0.00283033  0.33277067  1
  Mn  Mn134  1  0.49994446  -0.00259268  0.66790202  1
  Mn  Mn135  1  0.50171928  0.49916732  -0.00360894  1
  Mn  Mn136  1  0.50225664  0.50166094  0.33288119  1
  Mn  Mn137  1  0.49927158  0.50204835  0.66791355  1
  Mn  Mn138  1  0.83246266  0.00165613  -0.00365993  1
  Mn  Mn139  1  0.83378835  0.00021498  0.33355812  1
  Mn  Mn140  1  0.83235286  -0.00174482  0.66529121  1
  Mn  Mn141  1  0.83372620  0.49815471  -0.00130133  1
  Mn  Mn142  1  0.83540211  0.50266784  0.32839080  1
  Mn  Mn143  1  0.83408842  0.50165277  0.66746987  1
  O  O144  1  0.16771876  0.12757947  0.01087842  1
  O  O145  1  0.15631756  0.12434594  0.34922593  1
  O  O146  1  0.17781327  0.12110549  0.67733605  1
  O  O147  1  0.16203561  0.62313013  0.02555718  1
  O  O148  1  0.15637158  0.62543098  0.36188405  1
  O  O149  1  0.16339563  0.62629902  0.69659442  1
  O  O150  1  0.49455787  0.12843622  0.02681360  1
  O  O151  1  0.50533883  0.12197815  0.34275935  1
  O  O152  1  0.49050894  0.12243605  0.68973706  1
  O  O153  1  0.49513347  0.62255329  0.02135780  1
  O  O154  1  0.49939742  0.62941069  0.35710562  1
  O  O155  1  0.49529036  0.62763013  0.69339169  1
  O  O156  1  0.83575532  0.13036392  0.00613812  1
  O  O157  1  0.84301954  0.12254395  0.35271071  1
  O  O158  1  0.82788219  0.11834558  0.69313749  1
  O  O159  1  0.83674175  0.61948988  0.02096582  1
  O  O160  1  0.83862248  0.62614393  0.35543206  1
  O  O161  1  0.83285864  0.62977950  0.69228533  1
  O  O162  1  0.16129786  0.38059783  0.31321714  1
  O  O163  1  0.17409790  0.38276216  0.64400682  1
  O  O164  1  0.17195965  0.37818386  0.97533142  1
  O  O165  1  0.17105633  0.86802117  0.31042698  1
  O  O166  1  0.16647862  0.87203491  0.65816097  1
  O  O167  1  0.16268297  0.87039255  0.97578683  1
  O  O168  1  0.51089310  0.37735749  0.32327856  1
  O  O169  1  0.49511713  0.37962152  0.65683924  1
  O  O170  1  0.50821001  0.37473096  0.97013715  1
  O  O171  1  0.49558798  0.87128643  0.30663092  1
  O  O172  1  0.51007003  0.87069354  0.63903245  1
  O  O173  1  0.49814034  0.87496256  0.97794903  1
  O  O174  1  0.82663269  0.38118026  0.30852674  1
  O  O175  1  0.83174572  0.37904055  0.65833104  1
  O  O176  1  0.82202887  0.37662276  0.97675442  1
  O  O177  1  0.83963613  0.87264766  0.32089155  1
  O  O178  1  0.83052059  0.87231716  0.63669850  1
  O  O179  1  0.83799999  0.87329073  0.97759546  1
  O  O180  1  -0.00120565  0.38039928  0.19302735  1
  O  O181  1  0.00614822  0.37884296  0.50996743  1
  O  O182  1  0.00396435  0.37880845  0.85055022  1
  O  O183  1  0.00561100  0.86812128  0.18701251  1
  O  O184  1  -0.00729930  0.86898172  0.52234900  1
  O  O185  1  -0.00126039  0.87036651  0.85713520  1
  O  O186  1  0.32821467  0.37942384  0.17761317  1
  O  O187  1  0.32764271  0.38121453  0.52295385  1
  O  O188  1  0.34595581  0.37881497  0.86186854  1
  O  O189  1  0.34024608  0.86637464  0.19039838  1
  O  O190  1  0.34141834  0.86878081  0.52567526  1
  O  O191  1  0.34370930  0.87402513  0.84701054  1
  O  O192  1  0.67362759  0.37833369  0.19490561  1
  O  O193  1  0.66847713  0.37696256  0.50583805  1
  O  O194  1  0.65833997  0.37195677  0.85628469  1
  O  O195  1  0.65943645  0.87175979  0.17707300  1
  O  O196  1  0.67293699  0.87264274  0.52866771  1
  O  O197  1  0.67478834  0.87497057  0.84851574  1
  O  O198  1  -0.00000849  0.13226568  0.14971132  1
  O  O199  1  -0.00085176  0.12624758  0.47483475  1
  O  O200  1  -0.01014792  0.12377924  0.82696000  1
  O  O201  1  0.00876390  0.62192772  0.14149660  1
  O  O202  1  0.00022558  0.62526341  0.47250899  1
  O  O203  1  0.00006244  0.62790278  0.80793906  1
  O  O204  1  0.33790876  0.12762170  0.14340735  1
  O  O205  1  0.32840415  0.12086043  0.49823130  1
  O  O206  1  0.33743425  0.12407746  0.80502663  1
  O  O207  1  0.32730903  0.62321926  0.13946101  1
  O  O208  1  0.32900893  0.62741915  0.47827413  1
  O  O209  1  0.32368767  0.62285692  0.80711719  1
  O  O210  1  0.65828980  0.12919270  0.14649533  1
  O  O211  1  0.67180768  0.12150781  0.47864898  1
  O  O212  1  0.65885470  0.12006745  0.80776693  1
  O  O213  1  0.66379845  0.62309241  0.14832648  1
  O  O214  1  0.66479790  0.62746304  0.47857568  1
  O  O215  1  0.66342212  0.63179766  0.80892788  1
  O  O216  1  0.08214756  0.00544851  0.25190259  1
  O  O217  1  0.08288499  0.00582516  0.58337600  1
  O  O218  1  0.07850268  0.00337669  0.92029346  1
  O  O219  1  0.08576206  0.52132686  0.24950027  1
  O  O220  1  0.08800852  0.52511315  0.58341631  1
  O  O221  1  0.09011437  0.51503525  0.91366851  1
  O  O222  1  0.42299295  0.01007291  0.24147147  1
  O  O223  1  0.41986899  0.00619336  0.58483222  1
  O  O224  1  0.41992192  0.02352822  0.91284352  1
  O  O225  1  0.42109311  0.52326658  0.24507213  1
  O  O226  1  0.42198351  0.52638342  0.58041373  1
  O  O227  1  0.42397175  0.52590514  0.90386116  1
  O  O228  1  0.74724985  0.01555338  0.25838969  1
  O  O229  1  0.75119454  0.02319554  0.58465105  1
  O  O230  1  0.74827363  0.02354449  0.91166313  1
  O  O231  1  0.75436261  0.52776350  0.24566024  1
  O  O232  1  0.75450548  0.52428593  0.58065953  1
  O  O233  1  0.75208211  0.51894522  0.91501969  1
  O  O234  1  0.24438605  0.24631267  0.25158560  1
  O  O235  1  0.25716746  0.24159617  0.59495461  1
  O  O236  1  0.26209401  0.23857731  0.92466784  1
  O  O237  1  0.25496496  0.72257212  0.25669880  1
  O  O238  1  0.25681449  0.73074071  0.59243350  1
  O  O239  1  0.25275434  0.72430121  0.92719787  1
  O  O240  1  0.58083386  0.23125570  0.24529496  1
  O  O241  1  0.58761835  0.23419210  0.59429440  1
  O  O242  1  0.58318987  0.22057073  0.91902063  1
  O  O243  1  0.58590580  0.72737513  0.25521507  1
  O  O244  1  0.59009065  0.72407850  0.59233890  1
  O  O245  1  0.58357395  0.73430157  0.91666457  1
  O  O246  1  0.91240148  0.24518132  0.24557194  1
  O  O247  1  0.91486288  0.23519574  0.57374712  1
  O  O248  1  0.91281380  0.24583022  0.91488039  1
  O  O249  1  0.92178130  0.72585664  0.24520841  1
  O  O250  1  0.91768480  0.72385369  0.58556944  1
  O  O251  1  0.91471360  0.72768250  0.90900776  1
  O  O252  1  0.08034800  0.47179215  0.08080842  1
  O  O253  1  0.08460645  0.48006276  0.41600908  1
  O  O254  1  0.08639248  0.48749563  0.75239995  1
  O  O255  1  0.08317230  0.97783484  0.08289444  1
  O  O256  1  0.07723529  0.98259127  0.41000304  1
  O  O257  1  0.07972191  0.98159973  0.75216433  1
  O  O258  1  0.40801718  0.48591518  0.06469753  1
  O  O259  1  0.41617517  0.49890195  0.41331919  1
  O  O260  1  0.40618062  0.48521099  0.74261881  1
  O  O261  1  0.41497964  0.98539296  0.08259036  1
  O  O262  1  0.41333157  0.97600989  0.41265052  1
  O  O263  1  0.41433121  0.97486091  0.74507045  1
  O  O264  1  0.75066382  0.47927054  0.08536699  1
  O  O265  1  0.74949736  0.49268337  0.40591227  1
  O  O266  1  0.74662884  0.49706912  0.75184195  1
  O  O267  1  0.74738571  0.99856835  0.07791092  1
  O  O268  1  0.75695757  0.98742965  0.42380652  1
  O  O269  1  0.74820959  0.97691383  0.74500150  1
  O  O270  1  0.24516295  0.27128328  0.08554199  1
  O  O271  1  0.24343181  0.26266573  0.42701584  1
  O  O272  1  0.24872393  0.27741445  0.75832565  1
  O  O273  1  0.23899010  0.76310323  0.09930670  1
  O  O274  1  0.25151607  0.76211322  0.41518758  1
  O  O275  1  0.24376196  0.77117760  0.76108087  1
  O  O276  1  0.59031094  0.26897698  0.07496232  1
  O  O277  1  0.59304289  0.25651273  0.40800516  1
  O  O278  1  0.57108090  0.26086443  0.76141732  1
  O  O279  1  0.57381087  0.75875331  0.09305104  1
  O  O280  1  0.57518729  0.76565439  0.43092885  1
  O  O281  1  0.57751300  0.77289549  0.75458147  1
  O  O282  1  0.91769595  0.27805929  0.07998568  1
  O  O283  1  0.92609501  0.26373768  0.40471441  1
  O  O284  1  0.91157956  0.25696567  0.75283030  1
  O  O285  1  0.92241958  0.76095318  0.07634125  1
  O  O286  1  0.91575221  0.76615620  0.41785033  1
  O  O287  1  0.91241366  0.77536021  0.74785005  1
  O  O288  1  0.23889692  0.48216545  0.09114966  1
  O  O289  1  0.24128142  0.48985343  0.43019310  1
  O  O290  1  0.24604369  0.47481477  0.76192368  1
  O  O291  1  0.24323631  0.98237383  0.09155823  1
  O  O292  1  0.25073932  0.98386450  0.41579251  1
  O  O293  1  0.24577055  0.97703837  0.75851309  1
  O  O294  1  0.58738168  0.48423346  0.07970073  1
  O  O295  1  0.58782839  0.49554166  0.41297989  1
  O  O296  1  0.57200143  0.49138932  0.75958952  1
  O  O297  1  0.57217585  0.98966134  0.09097652  1
  O  O298  1  0.57765910  0.98031203  0.42792961  1
  O  O299  1  0.57546195  0.97519758  0.75898098  1
  O  O300  1  0.91558673  0.47373751  0.08009303  1
  O  O301  1  0.92376549  0.48793349  0.40171520  1
  O  O302  1  0.91501707  0.49750813  0.74935902  1
  O  O303  1  0.92190827  0.98837305  0.07254043  1
  O  O304  1  0.91767947  0.98112795  0.41614462  1
  O  O305  1  0.91465311  0.97200901  0.74473244  1
  O  O306  1  0.08218507  0.27755396  0.08616820  1
  O  O307  1  0.08505341  0.27087513  0.41642503  1
  O  O308  1  0.08728741  0.26250183  0.75237262  1
  O  O309  1  0.08139171  0.77403755  0.07916947  1
  O  O310  1  0.07636674  0.76637509  0.40527901  1
  O  O311  1  0.07579627  0.77125920  0.74776667  1
  O  O312  1  0.40848662  0.26865375  0.06644125  1
  O  O313  1  0.41599172  0.25607740  0.41733341  1
  O  O314  1  0.41124710  0.27356502  0.74902847  1
  O  O315  1  0.41589203  0.75878968  0.08480453  1
  O  O316  1  0.41254400  0.77064602  0.41003524  1
  O  O317  1  0.41216993  0.76896062  0.73756770  1
  O  O318  1  0.75162819  0.27253704  0.08706203  1
  O  O319  1  0.75511241  0.25790034  0.41479675  1
  O  O320  1  0.74533545  0.25411159  0.75562123  1
  O  O321  1  0.75237251  0.75080803  0.08391944  1
  O  O322  1  0.75209082  0.75972825  0.42496980  1
  O  O323  1  0.74687487  0.77156745  0.74312198  1
  O  O324  1  0.25287811  0.00039506  0.25270594  1
  O  O325  1  0.25824189  0.00269643  0.59512331  1
  O  O326  1  0.25731458  0.01519101  0.92427473  1
  O  O327  1  0.25134443  0.52632381  0.25994971  1
  O  O328  1  0.25656633  0.52747248  0.59563344  1
  O  O329  1  0.25922136  0.51940088  0.92683471  1
  O  O330  1  0.58570845  0.01723079  0.25430962  1
  O  O331  1  0.59297606  0.01482734  0.60001556  1
  O  O332  1  0.58260867  0.02196636  0.92251964  1
  O  O333  1  0.58497166  0.52309801  0.25007907  1
  O  O334  1  0.58639950  0.52323584  0.58912741  1
  O  O335  1  0.58617920  0.52181069  0.91865963  1
  O  O336  1  0.92234174  0.01169760  0.25447164  1
  O  O337  1  0.91088880  0.01326008  0.57779452  1
  O  O338  1  0.90512778  0.00888654  0.90453364  1
  O  O339  1  0.91516173  0.52578704  0.24213890  1
  O  O340  1  0.91923910  0.52416952  0.57942415  1
  O  O341  1  0.91838073  0.51489320  0.91384965  1
  O  O342  1  0.07368475  0.24205495  0.25758546  1
  O  O343  1  0.08987326  0.24320449  0.57689488  1
  O  O344  1  0.08077790  0.24875653  0.92130730  1
  O  O345  1  0.08925927  0.72624790  0.24410691  1
  O  O346  1  0.08487203  0.72701364  0.58228965  1
  O  O347  1  0.08835879  0.73216317  0.90901855  1
  O  O348  1  0.41965497  0.23732355  0.24089413  1
  O  O349  1  0.41371002  0.23998744  0.59072140  1
  O  O350  1  0.42270286  0.22487947  0.90901756  1
  O  O351  1  0.41895719  0.72170873  0.24542693  1
  O  O352  1  0.42683398  0.72649855  0.57520503  1
  O  O353  1  0.42033716  0.72681439  0.90891459  1
  O  O354  1  0.74048653  0.23551103  0.25843046  1
  O  O355  1  0.75224067  0.22796188  0.58472549  1
  O  O356  1  0.74357365  0.23036628  0.91909481  1
  O  O357  1  0.75201937  0.72862200  0.25018262  1
  O  O358  1  0.75298678  0.72214252  0.58355129  1
  O  O359  1  0.75576562  0.73099530  0.90823707  1
