# generated using pymatgen
data_Ba17Sr5La8Pr42Mn72O216
_symmetry_space_group_name_H-M   'P 1'
_cell_length_a   16.67662850
_cell_length_b   15.71099556
_cell_length_c   16.82487294
_cell_angle_alpha   89.98790538
_cell_angle_beta   90.01087089
_cell_angle_gamma   89.95204620
_symmetry_Int_Tables_number   1
_chemical_formula_structural   Ba17Sr5La8Pr42Mn72O216
_chemical_formula_sum   'Ba17 Sr5 La8 Pr42 Mn72 O216'
_cell_volume   4408.22327913
_cell_formula_units_Z   1
loop_
 _symmetry_equiv_pos_site_id
 _symmetry_equiv_pos_as_xyz
  1  'x, y, z'
loop_
 _atom_site_type_symbol
 _atom_site_label
 _atom_site_symmetry_multiplicity
 _atom_site_fract_x
 _atom_site_fract_y
 _atom_site_fract_z
 _atom_site_occupancy
  Ba  Ba0  1  0.83435106  0.12415611  0.16699130  1
  Ba  Ba1  1  0.33339109  0.37411607  -0.00045221  1
  Ba  Ba2  1  0.16654969  0.62711252  0.16867677  1
  Ba  Ba3  1  0.16944544  0.12278058  0.16645432  1
  Ba  Ba4  1  0.00219760  0.37474435  0.33484331  1
  Ba  Ba5  1  0.50123875  0.62618127  0.16592485  1
  Ba  Ba6  1  0.50067942  0.37722556  0.16362438  1
  Ba  Ba7  1  0.49920089  0.37710803  0.83165652  1
  Ba  Ba8  1  0.66619792  0.87599357  0.33681914  1
  Ba  Ba9  1  0.50150018  0.62775411  0.83252796  1
  Ba  Ba10  1  0.16503938  0.37348083  0.83152220  1
  Ba  Ba11  1  0.33387258  0.12239292  0.99833562  1
  Ba  Ba12  1  -0.00011070  0.37525301  -0.00156650  1
  Ba  Ba13  1  0.66784141  0.37564609  -0.00199152  1
  Ba  Ba14  1  0.33143441  0.37504071  0.66698143  1
  Ba  Ba15  1  0.16638609  0.12137544  0.83450737  1
  Ba  Ba16  1  0.00162730  0.62584705  0.33314966  1
  Sr  Sr17  1  0.83203184  0.37478772  0.83187415  1
  Sr  Sr18  1  0.16124847  0.87577908  0.83014149  1
  Sr  Sr19  1  0.16427786  0.37459176  0.50168135  1
  Sr  Sr20  1  -0.00182240  0.37514485  0.67272772  1
  Sr  Sr21  1  -0.00529267  0.87442805  0.67070379  1
  La  La22  1  0.16055264  0.87491063  0.49978381  1
  La  La23  1  0.66878071  0.12924582  0.66736732  1
  La  La24  1  0.16135882  0.87243397  0.16549144  1
  La  La25  1  0.00329949  0.12394389  0.66858164  1
  La  La26  1  0.83602436  0.62566241  0.50188769  1
  La  La27  1  0.83332570  0.37513478  0.50129812  1
  La  La28  1  0.00304882  0.62525169  0.66473236  1
  La  La29  1  0.66791868  0.62493092  0.33080170  1
  Pr  Pr30  1  0.32989250  0.37566185  0.33510659  1
  Pr  Pr31  1  0.83623736  0.37594103  0.16077683  1
  Pr  Pr32  1  0.50626186  0.12291545  0.50111608  1
  Pr  Pr33  1  0.50393915  0.62875803  0.50316180  1
  Pr  Pr34  1  0.82841856  0.87610822  0.82927211  1
  Pr  Pr35  1  0.49858940  0.37309068  0.49445468  1
  Pr  Pr36  1  0.16500195  0.37707585  0.16114959  1
  Pr  Pr37  1  0.66543046  0.37444700  0.67363251  1
  Pr  Pr38  1  0.00751342  0.12602219  0.33181888  1
  Pr  Pr39  1  0.33442589  0.62626296  0.32900801  1
  Pr  Pr40  1  0.83437748  0.62143318  0.16875068  1
  Pr  Pr41  1  0.66870291  0.12531296  0.32955922  1
  Pr  Pr42  1  0.66741206  0.37375805  0.33083764  1
  Pr  Pr43  1  0.17034974  0.62443020  0.83542569  1
  Pr  Pr44  1  0.66227087  0.87528683  0.66841633  1
  Pr  Pr45  1  0.33200295  0.12747882  0.66774870  1
  Pr  Pr46  1  0.00468131  0.62375700  0.99915886  1
  Pr  Pr47  1  0.83455097  0.87357147  0.49747227  1
  Pr  Pr48  1  0.83766310  0.12411300  0.50204677  1
  Pr  Pr49  1  0.32660287  0.87375705  0.66933582  1
  Pr  Pr50  1  0.66775575  0.61973874  0.66498378  1
  Pr  Pr51  1  -0.00191817  0.87784822  0.00036997  1
  Pr  Pr52  1  0.16878134  0.62185459  0.50091398  1
  Pr  Pr53  1  0.49546835  0.87618312  0.16513213  1
  Pr  Pr54  1  0.33725799  0.62346601  0.99804474  1
  Pr  Pr55  1  0.50291320  0.12958584  0.16420847  1
  Pr  Pr56  1  0.66204237  0.87258633  0.00538144  1
  Pr  Pr57  1  -0.00138878  0.87759982  0.33402986  1
  Pr  Pr58  1  0.83749815  0.62390432  0.83492416  1
  Pr  Pr59  1  0.34000087  0.12272680  0.32769849  1
  Pr  Pr60  1  0.00264569  0.12580449  0.99646913  1
  Pr  Pr61  1  0.33302646  0.62220187  0.66570917  1
  Pr  Pr62  1  0.83200476  0.87319238  0.16457550  1
  Pr  Pr63  1  0.17011976  0.12767895  0.50337959  1
  Pr  Pr64  1  0.49280385  0.87576954  0.82915977  1
  Pr  Pr65  1  0.49970744  0.12800259  0.83505054  1
  Pr  Pr66  1  0.49284061  0.87727296  0.49500132  1
  Pr  Pr67  1  0.66768743  0.12863156  0.99778669  1
  Pr  Pr68  1  0.32949969  0.87394456  0.33341666  1
  Pr  Pr69  1  0.83640988  0.12775679  0.83810790  1
  Pr  Pr70  1  0.66959650  0.62122597  0.99815141  1
  Pr  Pr71  1  0.32614565  0.87275306  -0.00119482  1
  Mn  Mn72  1  -0.00124059  -0.00009215  0.16793475  1
  Mn  Mn73  1  -0.00039862  -0.00074888  0.50074240  1
  Mn  Mn74  1  -0.00389261  -0.00291308  0.83319080  1
  Mn  Mn75  1  0.00023168  0.50008052  0.16703724  1
  Mn  Mn76  1  0.00003473  0.49994861  0.50274752  1
  Mn  Mn77  1  -0.00168946  0.50209892  0.83087760  1
  Mn  Mn78  1  0.33526738  -0.00184980  0.16636157  1
  Mn  Mn79  1  0.33296716  0.00074530  0.49938955  1
  Mn  Mn80  1  0.33372798  -0.00321432  0.83142291  1
  Mn  Mn81  1  0.33293280  0.50163442  0.16805960  1
  Mn  Mn82  1  0.33428409  0.50068058  0.49819943  1
  Mn  Mn83  1  0.33327847  0.50187530  0.83150240  1
  Mn  Mn84  1  0.66648452  -0.00182625  0.16688968  1
  Mn  Mn85  1  0.66849679  0.00171991  0.50232981  1
  Mn  Mn86  1  0.66585452  -0.00203366  0.83441367  1
  Mn  Mn87  1  0.66894255  0.50218975  0.16665168  1
  Mn  Mn88  1  0.66624205  0.49775088  0.49846611  1
  Mn  Mn89  1  0.66876733  0.50201443  0.83136038  1
  Mn  Mn90  1  0.00134713  0.24811275  0.16786751  1
  Mn  Mn91  1  0.00012404  0.24912403  0.50176606  1
  Mn  Mn92  1  -0.00235547  0.24990325  0.83212026  1
  Mn  Mn93  1  -0.00348639  0.75285943  0.16609774  1
  Mn  Mn94  1  -0.00017912  0.75097500  0.50151673  1
  Mn  Mn95  1  -0.00240380  0.74993986  0.83257110  1
  Mn  Mn96  1  0.33416046  0.24827367  0.16849776  1
  Mn  Mn97  1  0.33424844  0.24846755  0.49791454  1
  Mn  Mn98  1  0.33353383  0.24889180  0.83185751  1
  Mn  Mn99  1  0.33386957  0.75296605  0.16674277  1
  Mn  Mn100  1  0.33240386  0.75060534  0.49983622  1
  Mn  Mn101  1  0.33165216  0.75139706  0.83241196  1
  Mn  Mn102  1  0.66860077  0.24868585  0.16636008  1
  Mn  Mn103  1  0.66813585  0.25054845  0.49951509  1
  Mn  Mn104  1  0.66715478  0.24905298  0.83078078  1
  Mn  Mn105  1  0.66754828  0.75139456  0.16744937  1
  Mn  Mn106  1  0.66755724  0.75008040  0.50210073  1
  Mn  Mn107  1  0.66836611  0.75183347  0.83465187  1
  Mn  Mn108  1  0.16631704  0.24989402  0.00070560  1
  Mn  Mn109  1  0.17017813  0.24920705  0.33527070  1
  Mn  Mn110  1  0.16509455  0.24830028  0.66594469  1
  Mn  Mn111  1  0.16467547  0.75066175  -0.00202521  1
  Mn  Mn112  1  0.16732409  0.75316030  0.33498912  1
  Mn  Mn113  1  0.16541230  0.75082582  0.66703922  1
  Mn  Mn114  1  0.50063045  0.24841825  -0.00003592  1
  Mn  Mn115  1  0.50089982  0.24954726  0.33313904  1
  Mn  Mn116  1  0.49966477  0.24678961  0.66406139  1
  Mn  Mn117  1  0.50095096  0.75191181  -0.00087977  1
  Mn  Mn118  1  0.49970162  0.75069533  0.33547996  1
  Mn  Mn119  1  0.50087711  0.75136056  0.66449393  1
  Mn  Mn120  1  0.83367905  0.24972369  0.00079521  1
  Mn  Mn121  1  0.83354038  0.25036107  0.33531725  1
  Mn  Mn122  1  0.83436470  0.24770177  0.66760781  1
  Mn  Mn123  1  0.83415572  0.75115258  -0.00154521  1
  Mn  Mn124  1  0.83347298  0.75048224  0.33336195  1
  Mn  Mn125  1  0.83012999  0.75108424  0.66743918  1
  Mn  Mn126  1  0.16452049  -0.00430041  -0.00048249  1
  Mn  Mn127  1  0.16891299  -0.00107892  0.33632893  1
  Mn  Mn128  1  0.16564550  -0.00091303  0.66556265  1
  Mn  Mn129  1  0.16717892  0.50242132  0.00065588  1
  Mn  Mn130  1  0.16884423  0.49887749  0.33473140  1
  Mn  Mn131  1  0.16494248  0.50195707  0.66712109  1
  Mn  Mn132  1  0.50156420  -0.00316295  -0.00263649  1
  Mn  Mn133  1  0.50076748  0.00046868  0.33261335  1
  Mn  Mn134  1  0.50042635  -0.00135769  0.66503862  1
  Mn  Mn135  1  0.50056576  0.50199405  -0.00046820  1
  Mn  Mn136  1  0.50037930  0.49900351  0.33501104  1
  Mn  Mn137  1  0.50000279  0.50266050  0.66235281  1
  Mn  Mn138  1  0.83142774  -0.00132505  -0.00217460  1
  Mn  Mn139  1  0.83437647  0.00091657  0.33561378  1
  Mn  Mn140  1  0.83113440  -0.00027537  0.66698086  1
  Mn  Mn141  1  0.83552730  0.50218998  0.00070955  1
  Mn  Mn142  1  0.83211081  0.49861858  0.33421776  1
  Mn  Mn143  1  0.83292099  0.50111097  0.66759856  1
  O  O144  1  0.15726236  0.11829955  0.00896162  1
  O  O145  1  0.16914197  0.12094564  0.35932168  1
  O  O146  1  0.16686740  0.12069352  0.67565380  1
  O  O147  1  0.16652393  0.62946442  0.01284739  1
  O  O148  1  0.17654270  0.63125087  0.35671240  1
  O  O149  1  0.16889282  0.63121888  0.68842287  1
  O  O150  1  0.50472155  0.11770503  0.01972900  1
  O  O151  1  0.49936282  0.12418046  0.35877868  1
  O  O152  1  0.50210765  0.11630278  0.69155337  1
  O  O153  1  0.49774187  0.63155794  0.00913420  1
  O  O154  1  0.49878345  0.62402235  0.35964597  1
  O  O155  1  0.50362079  0.62963472  0.67671809  1
  O  O156  1  0.82675548  0.12199672  0.01151723  1
  O  O157  1  0.82827398  0.12471184  0.35949147  1
  O  O158  1  0.83170506  0.12025452  0.69371205  1
  O  O159  1  0.83054373  0.63066737  0.02622860  1
  O  O160  1  0.82700633  0.62246745  0.35764070  1
  O  O161  1  0.82689380  0.62979427  0.69094200  1
  O  O162  1  0.17638810  0.37085964  0.30877446  1
  O  O163  1  0.16148328  0.37386846  0.65280564  1
  O  O164  1  0.16622774  0.38029071  0.99301798  1
  O  O165  1  0.16989242  0.87739430  0.31175491  1
  O  O166  1  0.17099319  0.87456922  0.64251116  1
  O  O167  1  0.16172342  0.87089754  0.97889206  1
  O  O168  1  0.49809981  0.37280631  0.31957542  1
  O  O169  1  0.50567131  0.37737109  0.63914328  1
  O  O170  1  0.50148087  0.37337335  0.99140525  1
  O  O171  1  0.49583896  0.87777378  0.31080186  1
  O  O172  1  0.50670431  0.87548826  0.63665922  1
  O  O173  1  0.51142007  0.87475677  0.97100361  1
  O  O174  1  0.82649292  0.37582728  0.30688867  1
  O  O175  1  0.82772344  0.37297792  0.64450305  1
  O  O176  1  0.83430752  0.37610249  0.98448172  1
  O  O177  1  0.83974832  0.87761021  0.31088845  1
  O  O178  1  0.82563478  0.87636299  0.63938939  1
  O  O179  1  0.83657175  0.87411086  0.97013864  1
  O  O180  1  -0.00188306  0.37223982  0.17655626  1
  O  O181  1  -0.00362671  0.37386142  0.52088584  1
  O  O182  1  -0.00364757  0.37890827  0.83968379  1
  O  O183  1  -0.00752654  0.87749779  0.19010670  1
  O  O184  1  -0.00039186  0.87556640  0.52253227  1
  O  O185  1  -0.00888935  0.87194566  0.85716677  1
  O  O186  1  0.32902302  0.37301072  0.18943335  1
  O  O187  1  0.34599145  0.37163777  0.51329290  1
  O  O188  1  0.33291022  0.37976018  0.83804855  1
  O  O189  1  0.34161820  0.87611125  0.19064995  1
  O  O190  1  0.34191001  0.87629038  0.52793045  1
  O  O191  1  0.34049226  0.87344531  0.85302688  1
  O  O192  1  0.67434567  0.37794924  0.18648552  1
  O  O193  1  0.66699078  0.37558613  0.52955526  1
  O  O194  1  0.66989750  0.37283075  0.83849761  1
  O  O195  1  0.67048054  0.87512478  0.18169823  1
  O  O196  1  0.67188120  0.88039453  0.52553733  1
  O  O197  1  0.67430922  0.87538106  0.86286150  1
  O  O198  1  0.00113902  0.12014679  0.14257641  1
  O  O199  1  -0.00695428  0.12079287  0.47434579  1
  O  O200  1  -0.01067689  0.12024099  0.81354712  1
  O  O201  1  -0.00848730  0.63182038  0.14511450  1
  O  O202  1  -0.00535504  0.62822757  0.48961690  1
  O  O203  1  -0.00935049  0.62893794  0.80772652  1
  O  O204  1  0.33924856  0.11899254  0.15555939  1
  O  O205  1  0.32486992  0.12277935  0.47007638  1
  O  O206  1  0.34187412  0.11663554  0.81315329  1
  O  O207  1  0.33169072  0.63368467  0.14480134  1
  O  O208  1  0.32798623  0.62928849  0.47087015  1
  O  O209  1  0.32640785  0.63100124  0.81127364  1
  O  O210  1  0.66250555  0.11795605  0.14351349  1
  O  O211  1  0.66447556  0.12446376  0.47237290  1
  O  O212  1  0.66369554  0.12069798  0.80919999  1
  O  O213  1  0.67581248  0.62984366  0.14427865  1
  O  O214  1  0.66318256  0.61939760  0.47243126  1
  O  O215  1  0.67470147  0.63096285  0.80742978  1
  O  O216  1  0.08484812  0.01170209  0.25756903  1
  O  O217  1  0.08629603  0.01922430  0.57570830  1
  O  O218  1  0.07243599  0.00682366  0.92302568  1
  O  O219  1  0.08669925  0.50397969  0.24808476  1
  O  O220  1  0.08707942  0.52367931  0.58334775  1
  O  O221  1  0.08457591  0.52421988  0.91169289  1
  O  O222  1  0.42752053  0.01909804  0.24350349  1
  O  O223  1  0.42194969  0.02302510  0.57308277  1
  O  O224  1  0.43126512  0.00927016  0.90272099  1
  O  O225  1  0.41437339  0.51548790  0.25675416  1
  O  O226  1  0.41694019  0.52658412  0.57858751  1
  O  O227  1  0.41234482  0.51614976  0.91721690  1
  O  O228  1  0.74910216  0.01492815  0.25798587  1
  O  O229  1  0.75128744  0.02770426  0.58443000  1
  O  O230  1  0.75274907  0.02031655  0.90964712  1
  O  O231  1  0.75023426  0.52314144  0.25124070  1
  O  O232  1  0.75168793  0.52218017  0.57817925  1
  O  O233  1  0.75614313  0.52372898  0.91704852  1
  O  O234  1  0.26127965  0.23164013  0.26143734  1
  O  O235  1  0.25111789  0.22950147  0.58055060  1
  O  O236  1  0.25080827  0.24280851  0.91577028  1
  O  O237  1  0.25617051  0.74264707  0.25889643  1
  O  O238  1  0.25360016  0.72922519  0.58345899  1
  O  O239  1  0.25086315  0.73312116  0.91751345  1
  O  O240  1  0.58431388  0.22856133  0.25143508  1
  O  O241  1  0.58352866  0.22647156  0.57983103  1
  O  O242  1  0.58498062  0.22708954  0.91433000  1
  O  O243  1  0.58699269  0.73529384  0.26155265  1
  O  O244  1  0.58998000  0.73035975  0.58779351  1
  O  O245  1  0.59755250  0.73527213  0.92669151  1
  O  O246  1  0.92230466  0.23218735  0.25993007  1
  O  O247  1  0.91872851  0.22448242  0.58845009  1
  O  O248  1  0.91568020  0.22886854  0.91881429  1
  O  O249  1  0.90898544  0.73699508  0.24227673  1
  O  O250  1  0.91307578  0.73397005  0.58755727  1
  O  O251  1  0.91953940  0.72471855  0.92168150  1
  O  O252  1  0.08177488  0.49602522  0.08210485  1
  O  O253  1  0.09048546  0.49427852  0.42080271  1
  O  O254  1  0.07556582  0.50060180  0.74366406  1
  O  O255  1  0.08111599  0.97409291  0.08468831  1
  O  O256  1  0.08023111  0.97882998  0.41507304  1
  O  O257  1  0.07486563  0.98685705  0.74788035  1
  O  O258  1  0.41133111  0.49980529  0.08260629  1
  O  O259  1  0.41903065  0.48174642  0.41742069  1
  O  O260  1  0.41409040  0.50146849  0.74219089  1
  O  O261  1  0.41475688  0.97168720  0.07196860  1
  O  O262  1  0.40972970  0.98040114  0.41005422  1
  O  O263  1  0.41273505  0.97343845  0.73921354  1
  O  O264  1  0.75692774  0.48931572  0.08940115  1
  O  O265  1  0.74479523  0.47406653  0.41408723  1
  O  O266  1  0.74469170  0.48602256  0.74157748  1
  O  O267  1  0.74866541  0.97664406  0.07720850  1
  O  O268  1  0.75703343  0.98528605  0.42687495  1
  O  O269  1  0.74177883  0.97679156  0.74663080  1
  O  O270  1  0.24722631  0.26194731  0.09356562  1
  O  O271  1  0.25230778  0.27146114  0.41814908  1
  O  O272  1  0.25187811  0.24717287  0.74417563  1
  O  O273  1  0.24836477  0.77574497  0.08576335  1
  O  O274  1  0.24858857  0.77784162  0.42281973  1
  O  O275  1  0.24850236  0.77091750  0.74878960  1
  O  O276  1  0.58660044  0.24965450  0.08082594  1
  O  O277  1  0.58441908  0.27047903  0.41589498  1
  O  O278  1  0.58759128  0.25992098  0.74205240  1
  O  O279  1  0.57954143  0.77218481  0.08818926  1
  O  O280  1  0.57307206  0.76578880  0.42908833  1
  O  O281  1  0.58229386  0.77561354  0.75680685  1
  O  O282  1  0.91395104  0.26003769  0.08750977  1
  O  O283  1  0.90851612  0.26306439  0.42840731  1
  O  O284  1  0.90931051  0.25970474  0.75342447  1
  O  O285  1  0.91345434  0.77750134  0.08132386  1
  O  O286  1  0.91762560  0.77103762  0.41560009  1
  O  O287  1  0.90577670  0.76874462  0.75619778  1
  O  O288  1  0.24469370  0.48814740  0.09214108  1
  O  O289  1  0.25389375  0.48001141  0.41756010  1
  O  O290  1  0.24558755  0.50081066  0.75049636  1
  O  O291  1  0.24646706  0.97496806  0.08678866  1
  O  O292  1  0.24533652  0.97314315  0.42506653  1
  O  O293  1  0.25098248  0.98170433  0.74780954  1
  O  O294  1  0.58983506  0.50089584  0.08169337  1
  O  O295  1  0.58313609  0.47349154  0.41884639  1
  O  O296  1  0.58679365  0.49109880  0.73673284  1
  O  O297  1  0.57635343  0.97558302  0.08583398  1
  O  O298  1  0.57401611  0.98620081  0.42754150  1
  O  O299  1  0.57954886  0.97287704  0.75692104  1
  O  O300  1  0.91253281  0.49173665  0.08781598  1
  O  O301  1  0.90658163  0.48657913  0.42503668  1
  O  O302  1  0.90747315  0.49230665  0.75532467  1
  O  O303  1  0.91179430  0.97681717  0.08178544  1
  O  O304  1  0.91598842  0.97644830  0.42092620  1
  O  O305  1  0.90687274  0.97851472  0.75394712  1
  O  O306  1  0.08677899  0.26155878  0.08939861  1
  O  O307  1  0.08604534  0.25396242  0.42088855  1
  O  O308  1  0.07529797  0.25152398  0.74386785  1
  O  O309  1  0.07677601  0.77091599  0.08053631  1
  O  O310  1  0.08419038  0.77239799  0.41494205  1
  O  O311  1  0.07634374  0.76328675  0.74699211  1
  O  O312  1  0.42002387  0.25057191  0.08736306  1
  O  O313  1  0.41831612  0.26401466  0.41548734  1
  O  O314  1  0.41887751  0.25044491  0.74631236  1
  O  O315  1  0.41589613  0.77546323  0.08121066  1
  O  O316  1  0.41254942  0.77319512  0.41508267  1
  O  O317  1  0.41385874  0.77125599  0.74384111  1
  O  O318  1  0.75503198  0.26337467  0.08757689  1
  O  O319  1  0.74803601  0.27474211  0.41760043  1
  O  O320  1  0.74563588  0.26010827  0.74196565  1
  O  O321  1  0.75068004  0.77422702  0.07737683  1
  O  O322  1  0.75566563  0.76376556  0.42459137  1
  O  O323  1  0.74469761  0.77759201  0.74673173  1
  O  O324  1  0.26139435  0.00969670  0.26544285  1
  O  O325  1  0.25756606  0.01962658  0.58389217  1
  O  O326  1  0.25397523  -0.00214172  0.91971532  1
  O  O327  1  0.25784234  0.51591786  0.25901767  1
  O  O328  1  0.25118655  0.52264466  0.58245098  1
  O  O329  1  0.25145944  0.52365534  0.91904449  1
  O  O330  1  0.58516819  0.02235530  0.25568990  1
  O  O331  1  0.58868070  0.02280389  0.58811387  1
  O  O332  1  0.59120906  0.02189952  0.92202249  1
  O  O333  1  0.59079211  0.51226922  0.25900181  1
  O  O334  1  0.58364916  0.52345957  0.57774464  1
  O  O335  1  0.59243846  0.51645303  0.91621548  1
  O  O336  1  0.92427748  0.01759029  0.26182197  1
  O  O337  1  0.91797303  0.02012109  0.58452208  1
  O  O338  1  0.91534535  0.02099842  0.91884830  1
  O  O339  1  0.91129433  0.51259325  0.24735398  1
  O  O340  1  0.91622153  0.51983313  0.59037012  1
  O  O341  1  0.92039105  0.52619906  0.92139920  1
  O  O342  1  0.08419117  0.23245640  0.25608789  1
  O  O343  1  0.08340833  0.22578344  0.58059448  1
  O  O344  1  0.07578826  0.23611963  0.91917188  1
  O  O345  1  0.08231042  0.75072938  0.24903557  1
  O  O346  1  0.08846233  0.72993810  0.58004927  1
  O  O347  1  0.08120821  0.72695910  0.91168482  1
  O  O348  1  0.42130582  0.22707819  0.25051895  1
  O  O349  1  0.41709062  0.22041922  0.57955096  1
  O  O350  1  0.42335831  0.23467663  0.91178332  1
  O  O351  1  0.41543054  0.73668899  0.25547481  1
  O  O352  1  0.41706936  0.72871442  0.57641396  1
  O  O353  1  0.41159102  0.74095876  0.92061382  1
  O  O354  1  0.74394007  0.23475799  0.25857655  1
  O  O355  1  0.75440285  0.22639104  0.57951790  1
  O  O356  1  0.74944932  0.23000716  0.91369692  1
  O  O357  1  0.75152265  0.73159425  0.25019504  1
  O  O358  1  0.74986128  0.72571268  0.58466879  1
  O  O359  1  0.75699175  0.72802957  0.91215858  1
