# generated using pymatgen
data_Ba17Sr5La8Pr42Mn72O216
_symmetry_space_group_name_H-M   'P 1'
_cell_length_a   16.67049563
_cell_length_b   15.70615406
_cell_length_c   16.81533437
_cell_angle_alpha   89.99939906
_cell_angle_beta   89.95842094
_cell_angle_gamma   89.99504486
_symmetry_Int_Tables_number   1
_chemical_formula_structural   Ba17Sr5La8Pr42Mn72O216
_chemical_formula_sum   'Ba17 Sr5 La8 Pr42 Mn72 O216'
_cell_volume   4402.74727297
_cell_formula_units_Z   1
loop_
 _symmetry_equiv_pos_site_id
 _symmetry_equiv_pos_as_xyz
  1  'x, y, z'
loop_
 _atom_site_type_symbol
 _atom_site_label
 _atom_site_symmetry_multiplicity
 _atom_site_fract_x
 _atom_site_fract_y
 _atom_site_fract_z
 _atom_site_occupancy
  Ba  Ba0  1  0.49778709  0.62382992  0.50282027  1
  Ba  Ba1  1  0.16463387  0.37531433  0.82900548  1
  Ba  Ba2  1  0.00017932  0.62309053  0.32874165  1
  Ba  Ba3  1  0.83361512  0.12635489  0.16805321  1
  Ba  Ba4  1  0.66775029  0.37537412  0.67056250  1
  Ba  Ba5  1  0.16906747  0.87618409  0.49357384  1
  Ba  Ba6  1  0.00316958  0.87364667  0.33324732  1
  Ba  Ba7  1  0.16788586  0.12723938  0.16336272  1
  Ba  Ba8  1  0.66415143  0.37559692  0.00226483  1
  Ba  Ba9  1  0.66919892  0.12461128  0.33430255  1
  Ba  Ba10  1  0.16763267  0.62341228  0.16385855  1
  Ba  Ba11  1  -0.00256676  0.12454517  0.99755336  1
  Ba  Ba12  1  0.49563392  0.62622295  0.83391877  1
  Ba  Ba13  1  0.66973302  0.87602674  0.33735857  1
  Ba  Ba14  1  0.50147986  0.87531999  0.83489661  1
  Ba  Ba15  1  0.66981396  0.87372263  0.66950960  1
  Ba  Ba16  1  0.33592418  0.87640936  0.33377403  1
  Sr  Sr17  1  0.00041919  0.37571511  0.32987455  1
  Sr  Sr18  1  0.66076557  0.62444332  0.66726608  1
  Sr  Sr19  1  0.82902668  0.12472736  0.83863386  1
  Sr  Sr20  1  0.82877999  0.62281995  0.17000147  1
  Sr  Sr21  1  0.32856602  0.62576220  0.99698009  1
  La  La22  1  0.65780147  0.62447113  0.99954942  1
  La  La23  1  -0.00548108  0.62504869  0.99727245  1
  La  La24  1  0.33206740  0.12467058  0.99683198  1
  La  La25  1  0.66448167  0.62580742  0.33591072  1
  La  La26  1  0.83390425  0.37708367  0.50019742  1
  La  La27  1  0.33060761  0.12608353  0.66605203  1
  La  La28  1  0.83447067  0.37555947  0.16785955  1
  La  La29  1  0.50287282  0.12449505  0.83517326  1
  Pr  Pr30  1  0.49892152  0.37662323  0.83189703  1
  Pr  Pr31  1  0.16872073  0.87613757  0.82834497  1
  Pr  Pr32  1  0.83685320  0.87287717  0.49627503  1
  Pr  Pr33  1  0.00347267  0.12503580  0.32440690  1
  Pr  Pr34  1  0.33130867  0.37412517  0.33389349  1
  Pr  Pr35  1  0.16544042  0.37391074  0.49621637  1
  Pr  Pr36  1  0.16654086  0.62789119  0.49458430  1
  Pr  Pr37  1  0.83471457  0.37159350  0.83214033  1
  Pr  Pr38  1  0.32912869  0.62473187  0.66491612  1
  Pr  Pr39  1  0.33227693  0.62725455  0.32934480  1
  Pr  Pr40  1  0.50271765  0.12567812  0.17109407  1
  Pr  Pr41  1  0.50541494  0.37693698  0.49804529  1
  Pr  Pr42  1  0.00401262  0.87324734  0.66425021  1
  Pr  Pr43  1  0.49905622  0.37353482  0.16378897  1
  Pr  Pr44  1  0.66348850  0.12432164  0.66610808  1
  Pr  Pr45  1  0.33560870  0.37692201  0.66994542  1
  Pr  Pr46  1  0.33123493  0.37815306  0.00149122  1
  Pr  Pr47  1  0.50061462  0.12227802  0.50210012  1
  Pr  Pr48  1  0.83846461  0.87556353  0.17014960  1
  Pr  Pr49  1  0.67158206  0.37390844  0.33705492  1
  Pr  Pr50  1  -0.00178853  0.37556695  0.66793510  1
  Pr  Pr51  1  0.83665708  0.12321088  0.50206711  1
  Pr  Pr52  1  0.50540133  0.87302932  0.49828002  1
  Pr  Pr53  1  0.15869163  0.37661001  0.16012090  1
  Pr  Pr54  1  0.16493408  0.12212372  0.49408441  1
  Pr  Pr55  1  0.00401255  0.87755724  0.00307492  1
  Pr  Pr56  1  0.67254267  0.87243669  0.00308083  1
  Pr  Pr57  1  0.00097769  0.62172671  0.66115480  1
  Pr  Pr58  1  0.33790276  0.87424917  0.66637697  1
  Pr  Pr59  1  0.83272214  0.62690073  0.50348099  1
  Pr  Pr60  1  0.66702708  0.12417551  1.00040124  1
  Pr  Pr61  1  0.16133850  0.62497620  0.83652694  1
  Pr  Pr62  1  0.49778138  0.62470636  0.16995518  1
  Pr  Pr63  1  0.16981763  0.87309149  0.16550470  1
  Pr  Pr64  1  0.00255271  0.12714569  0.66616157  1
  Pr  Pr65  1  0.33934587  0.87279410  0.00500384  1
  Pr  Pr66  1  0.82242771  0.62431124  0.83603585  1
  Pr  Pr67  1  0.16332515  0.12609589  0.83809232  1
  Pr  Pr68  1  -0.00494965  0.37222120  0.00053097  1
  Pr  Pr69  1  0.83880028  0.87591312  0.83175406  1
  Pr  Pr70  1  0.51047451  0.87591057  0.16548538  1
  Pr  Pr71  1  0.33588188  0.12372244  0.33043491  1
  Mn  Mn72  1  0.00142609  -0.00051809  0.16578309  1
  Mn  Mn73  1  0.00037036  0.00331766  0.49882600  1
  Mn  Mn74  1  0.00000556  -0.00268205  0.83092276  1
  Mn  Mn75  1  -0.00242685  0.49957651  0.16365042  1
  Mn  Mn76  1  0.00105032  0.49861902  0.49895595  1
  Mn  Mn77  1  -0.00378912  0.50227924  0.83089675  1
  Mn  Mn78  1  0.33535122  0.00062047  0.16574590  1
  Mn  Mn79  1  0.33557033  0.00419704  0.49998317  1
  Mn  Mn80  1  0.33202301  -0.00003194  0.83218883  1
  Mn  Mn81  1  0.33454135  0.49847329  0.16704986  1
  Mn  Mn82  1  0.33106617  0.49658246  0.50012328  1
  Mn  Mn83  1  0.33075576  0.50023547  0.83344023  1
  Mn  Mn84  1  0.66911145  -0.00169027  0.16659115  1
  Mn  Mn85  1  0.66886274  0.00240009  0.50376037  1
  Mn  Mn86  1  0.66818214  0.00045369  0.83460978  1
  Mn  Mn87  1  0.66454839  0.50134072  0.17038998  1
  Mn  Mn88  1  0.66792310  0.49863157  0.50238508  1
  Mn  Mn89  1  0.66474184  0.49969224  0.83573768  1
  Mn  Mn90  1  -0.00054498  0.25138613  0.16636974  1
  Mn  Mn91  1  0.00100690  0.25108974  0.49790615  1
  Mn  Mn92  1  -0.00138213  0.25046463  0.83089375  1
  Mn  Mn93  1  -0.00050666  0.75066966  0.16324075  1
  Mn  Mn94  1  0.00030089  0.74698761  0.49985148  1
  Mn  Mn95  1  -0.00175224  0.74966031  0.83106813  1
  Mn  Mn96  1  0.33468059  0.25091793  0.16657229  1
  Mn  Mn97  1  0.33368188  0.25073802  0.50010569  1
  Mn  Mn98  1  0.33337374  0.24931803  0.83211322  1
  Mn  Mn99  1  0.33490939  0.75003411  0.16566154  1
  Mn  Mn100  1  0.33353302  0.74909941  0.49977278  1
  Mn  Mn101  1  0.32990176  0.75192616  0.83313331  1
  Mn  Mn102  1  0.66568411  0.25165715  0.16917202  1
  Mn  Mn103  1  0.66811790  0.24938049  0.50284299  1
  Mn  Mn104  1  0.66651189  0.24933077  0.83503947  1
  Mn  Mn105  1  0.66827730  0.74878808  0.16836475  1
  Mn  Mn106  1  0.66834030  0.74876499  0.50357212  1
  Mn  Mn107  1  0.66649139  0.74926108  0.83559745  1
  Mn  Mn108  1  0.16674389  0.25158716  -0.00234518  1
  Mn  Mn109  1  0.16792922  0.25273784  0.33088093  1
  Mn  Mn110  1  0.16678756  0.24792251  0.66196758  1
  Mn  Mn111  1  0.16574765  0.75064568  -0.00409909  1
  Mn  Mn112  1  0.16876877  0.74854769  0.33051763  1
  Mn  Mn113  1  0.16677996  0.75032181  0.66584390  1
  Mn  Mn114  1  0.49763258  0.24766878  0.00065393  1
  Mn  Mn115  1  0.49979454  0.25268084  0.33398576  1
  Mn  Mn116  1  0.49805672  0.24992370  0.66804854  1
  Mn  Mn117  1  0.49895342  0.75099520  0.00283601  1
  Mn  Mn118  1  0.50049849  0.74915932  0.33422502  1
  Mn  Mn119  1  0.49827832  0.74993338  0.66709799  1
  Mn  Mn120  1  0.83045713  0.25070515  -0.00047452  1
  Mn  Mn121  1  0.83629059  0.25281450  0.33618426  1
  Mn  Mn122  1  0.83585339  0.24653691  0.66876269  1
  Mn  Mn123  1  0.83288247  0.74855987  0.00041080  1
  Mn  Mn124  1  0.83340128  0.74747141  0.33405931  1
  Mn  Mn125  1  0.83594441  0.74890310  0.66887359  1
  Mn  Mn126  1  0.16882711  -0.00122355  -0.00391186  1
  Mn  Mn127  1  0.16862522  0.00273913  0.33016997  1
  Mn  Mn128  1  0.16673673  0.00017323  0.66516782  1
  Mn  Mn129  1  0.16415214  0.50030574  -0.00347719  1
  Mn  Mn130  1  0.16855681  0.49605001  0.33076325  1
  Mn  Mn131  1  0.16648240  0.50113141  0.66261437  1
  Mn  Mn132  1  0.50061281  0.00088631  0.00240639  1
  Mn  Mn133  1  0.50127756  0.00092277  0.33505868  1
  Mn  Mn134  1  0.49857542  0.00183827  0.66780676  1
  Mn  Mn135  1  0.49561779  0.49924613  0.00142296  1
  Mn  Mn136  1  0.49933528  0.49889155  0.33270466  1
  Mn  Mn137  1  0.49770213  0.49923748  0.66721615  1
  Mn  Mn138  1  0.83202994  -0.00217205  -0.00124905  1
  Mn  Mn139  1  0.83664468  0.00056987  0.33582758  1
  Mn  Mn140  1  0.83727180  0.00169623  0.66874540  1
  Mn  Mn141  1  0.83128853  0.50189643  0.00130171  1
  Mn  Mn142  1  0.83237416  0.49968936  0.33433194  1
  Mn  Mn143  1  0.83472274  0.50054478  0.66939299  1
  O  O144  1  0.17053519  0.12481185  0.00695443  1
  O  O145  1  0.16112261  0.13133321  0.34856666  1
  O  O146  1  0.16554681  0.12062692  0.69437826  1
  O  O147  1  0.16183057  0.62596266  0.00834431  1
  O  O148  1  0.17412888  0.61705690  0.34931558  1
  O  O149  1  0.16757272  0.62746190  0.69303619  1
  O  O150  1  0.49560729  0.12369894  0.02848265  1
  O  O151  1  0.49224165  0.13129703  0.35860494  1
  O  O152  1  0.49670783  0.12707302  0.69069822  1
  O  O153  1  0.49885742  0.62905117  0.02409132  1
  O  O154  1  0.49329402  0.62241177  0.34793281  1
  O  O155  1  0.49070877  0.62155296  0.67607634  1
  O  O156  1  0.82540650  0.12329601  0.01116974  1
  O  O157  1  0.84450196  0.12923561  0.35583784  1
  O  O158  1  0.84859642  0.12419704  0.69198754  1
  O  O159  1  0.83788754  0.62617706  0.02157427  1
  O  O160  1  0.82890436  0.62144395  0.35687358  1
  O  O161  1  0.84870116  0.62440501  0.69435789  1
  O  O162  1  0.17810827  0.37384262  0.30581443  1
  O  O163  1  0.16566546  0.37594960  0.63936238  1
  O  O164  1  0.17042224  0.37563987  0.98568738  1
  O  O165  1  0.17153063  0.87871341  0.31409528  1
  O  O166  1  0.16272400  0.87574742  0.64659004  1
  O  O167  1  0.16833213  0.87484452  0.97257381  1
  O  O168  1  0.49810860  0.37564965  0.30610718  1
  O  O169  1  0.49152619  0.37195456  0.64364475  1
  O  O170  1  0.49360354  0.36824813  0.97478053  1
  O  O171  1  0.50233910  0.87212756  0.31127272  1
  O  O172  1  0.49085440  0.88032851  0.64342093  1
  O  O173  1  0.49993726  0.87745819  0.98992283  1
  O  O174  1  0.82792820  0.37757288  0.31417034  1
  O  O175  1  0.83908913  0.37176676  0.64407111  1
  O  O176  1  0.83706080  0.37847086  0.97592756  1
  O  O177  1  0.83431178  0.87224095  0.31849195  1
  O  O178  1  0.83936296  0.87731453  0.63893419  1
  O  O179  1  0.82679044  0.87124205  0.97455990  1
  O  O180  1  -0.00244670  0.37552859  0.17697999  1
  O  O181  1  0.00721376  0.37413248  0.52666639  1
  O  O182  1  -0.00653654  0.38157203  0.85647705  1
  O  O183  1  -0.00680119  0.87437408  0.17406948  1
  O  O184  1  -0.00452028  0.87448650  0.52117248  1
  O  O185  1  0.00038215  0.87145679  0.85847226  1
  O  O186  1  0.34174822  0.37309276  0.19147324  1
  O  O187  1  0.32322527  0.37180234  0.52895166  1
  O  O188  1  0.33751411  0.37131581  0.85612060  1
  O  O189  1  0.32251456  0.87615393  0.17693622  1
  O  O190  1  0.33599669  0.88252696  0.52277562  1
  O  O191  1  0.32366938  0.87758134  0.85821766  1
  O  O192  1  0.65570448  0.37994507  0.19233597  1
  O  O193  1  0.66786677  0.37260739  0.51465941  1
  O  O194  1  0.66473215  0.37373057  0.84590598  1
  O  O195  1  0.66083782  0.87313015  0.18126220  1
  O  O196  1  0.67034856  0.87931902  0.51293277  1
  O  O197  1  0.67348618  0.87402039  0.85619491  1
  O  O198  1  0.00070716  0.12645487  0.15784028  1
  O  O199  1  -0.00478573  0.13158790  0.47006472  1
  O  O200  1  0.00563468  0.11985742  0.81031783  1
  O  O201  1  -0.00189483  0.62503238  0.14264763  1
  O  O202  1  -0.00444396  0.62043271  0.48662360  1
  O  O203  1  0.00319919  0.62687905  0.80392767  1
  O  O204  1  0.34313577  0.12647548  0.14063948  1
  O  O205  1  0.34475672  0.13073870  0.47372221  1
  O  O206  1  0.33213269  0.12509381  0.80976369  1
  O  O207  1  0.34351251  0.62340936  0.14639687  1
  O  O208  1  0.33004266  0.61474865  0.47328553  1
  O  O209  1  0.32420293  0.62735711  0.80982505  1
  O  O210  1  0.66271023  0.12183220  0.14523651  1
  O  O211  1  0.66315948  0.12751342  0.49013880  1
  O  O212  1  0.66668030  0.12596798  0.81189482  1
  O  O213  1  0.66610123  0.62559291  0.14282754  1
  O  O214  1  0.67307856  0.62004003  0.48177453  1
  O  O215  1  0.67217807  0.62500507  0.81969058  1
  O  O216  1  0.08604534  0.01008090  0.24949089  1
  O  O217  1  0.08246535  0.02568603  0.58221029  1
  O  O218  1  0.08796688  0.00995170  0.90818826  1
  O  O219  1  0.08599446  0.50023758  0.24394213  1
  O  O220  1  0.08683260  0.52383863  0.57952277  1
  O  O221  1  0.07630741  0.52131879  0.91085963  1
  O  O222  1  0.41721027  0.02143263  0.25299539  1
  O  O223  1  0.41586250  0.02627127  0.58522124  1
  O  O224  1  0.41364136  0.01838198  0.92243095  1
  O  O225  1  0.41909953  0.51809886  0.24818011  1
  O  O226  1  0.40367621  0.50839797  0.59178296  1
  O  O227  1  0.40736523  0.50896841  0.92224001  1
  O  O228  1  0.75501897  0.00362858  0.24929719  1
  O  O229  1  0.75071894  0.02622882  0.59175108  1
  O  O230  1  0.73972986  0.01338006  0.92734748  1
  O  O231  1  0.73955592  0.51459725  0.25998181  1
  O  O232  1  0.75792177  0.51854647  0.58592906  1
  O  O233  1  0.74593388  0.52086729  0.92474530  1
  O  O234  1  0.26267726  0.23424143  0.25730041  1
  O  O235  1  0.24885004  0.22196301  0.57773692  1
  O  O236  1  0.25299611  0.23157709  0.91492122  1
  O  O237  1  0.25444931  0.73479675  0.24754200  1
  O  O238  1  0.24505556  0.72552922  0.57995473  1
  O  O239  1  0.23603599  0.73568730  0.90283742  1
  O  O240  1  0.57947233  0.23383030  0.24972053  1
  O  O241  1  0.58066391  0.23007070  0.58827503  1
  O  O242  1  0.58173224  0.22426359  0.92274524  1
  O  O243  1  0.57867184  0.72864278  0.24506213  1
  O  O244  1  0.58070149  0.74663241  0.58079029  1
  O  O245  1  0.58282433  0.73808392  0.92342924  1
  O  O246  1  0.92260488  0.24190283  0.25828698  1
  O  O247  1  0.92126854  0.22932378  0.58484126  1
  O  O248  1  0.91205908  0.24352608  0.91302354  1
  O  O249  1  0.90880230  0.74141383  0.23982157  1
  O  O250  1  0.91556717  0.72897199  0.58340165  1
  O  O251  1  0.90793067  0.73027588  0.90502535  1
  O  O252  1  0.07983496  0.48004216  0.07702133  1
  O  O253  1  0.08837806  0.48105744  0.41766006  1
  O  O254  1  0.07610867  0.48703205  0.73884531  1
  O  O255  1  0.08891051  0.97777935  0.07979920  1
  O  O256  1  0.08416953  1.00060193  0.41646450  1
  O  O257  1  0.08298807  0.97614476  0.74696939  1
  O  O258  1  0.41456365  0.47387201  0.08390412  1
  O  O259  1  0.41670115  0.47162000  0.42006901  1
  O  O260  1  0.41667109  0.47772330  0.75422040  1
  O  O261  1  0.42260785  0.97750842  0.08977326  1
  O  O262  1  0.42454925  0.98645826  0.42655508  1
  O  O263  1  0.41078260  0.98613163  0.74634086  1
  O  O264  1  0.75392204  0.48330678  0.09701711  1
  O  O265  1  0.75113116  0.47825466  0.41934919  1
  O  O266  1  0.75827012  0.48853603  0.75972921  1
  O  O267  1  0.75303206  0.97456533  0.08603524  1
  O  O268  1  0.75884291  0.99479640  0.42855047  1
  O  O269  1  0.76255646  0.98636503  0.75813399  1
  O  O270  1  0.25008283  0.27179691  0.08833055  1
  O  O271  1  0.24972721  0.26885795  0.41812835  1
  O  O272  1  0.25469533  0.26284549  0.73977908  1
  O  O273  1  0.25459098  0.76722231  0.07487494  1
  O  O274  1  0.25556368  0.75031125  0.41388165  1
  O  O275  1  0.25255988  0.77444779  0.74223754  1
  O  O276  1  0.57316996  0.26168302  0.09017444  1
  O  O277  1  0.58065153  0.27355146  0.41586385  1
  O  O278  1  0.57474297  0.26107406  0.75841014  1
  O  O279  1  0.58930129  0.76754023  0.08218611  1
  O  O280  1  0.58559796  0.75727915  0.41504532  1
  O  O281  1  0.58662952  0.75516648  0.74998481  1
  O  O282  1  0.91398241  0.26964527  0.08149520  1
  O  O283  1  0.91439119  0.27610709  0.42408891  1
  O  O284  1  0.91836469  0.27342410  0.74864616  1
  O  O285  1  0.92393946  0.76879703  0.06890782  1
  O  O286  1  0.91529519  0.76031498  0.42235666  1
  O  O287  1  0.92400785  0.77751518  0.74455270  1
  O  O288  1  0.25079386  0.47895882  0.08816912  1
  O  O289  1  0.25062831  0.47162420  0.41805836  1
  O  O290  1  0.25587694  0.48569969  0.73805024  1
  O  O291  1  0.25488691  0.98404611  0.07408940  1
  O  O292  1  0.25325185  1.00635695  0.41464863  1
  O  O293  1  0.24917699  0.97821375  0.74523931  1
  O  O294  1  0.57482769  0.48927543  0.09242155  1
  O  O295  1  0.58338706  0.47881362  0.41152754  1
  O  O296  1  0.57718366  0.48678161  0.75479677  1
  O  O297  1  0.58973493  0.98174240  0.07833079  1
  O  O298  1  0.58041786  0.99052845  0.42435725  1
  O  O299  1  0.58469214  0.99684270  0.74932145  1
  O  O300  1  0.91895103  0.47993999  0.07563836  1
  O  O301  1  0.91488450  0.48103316  0.42215223  1
  O  O302  1  0.91618329  0.47372415  0.75033884  1
  O  O303  1  0.91619562  0.97964587  0.07869037  1
  O  O304  1  0.91313627  0.98516488  0.42568774  1
  O  O305  1  0.92345827  0.97242295  0.74455062  1
  O  O306  1  0.08057281  0.27013509  0.07891886  1
  O  O307  1  0.08560162  0.27099155  0.41728642  1
  O  O308  1  0.07597779  0.26289604  0.73725635  1
  O  O309  1  0.08815939  0.77476068  0.08036109  1
  O  O310  1  0.08789419  0.74946965  0.42039585  1
  O  O311  1  0.08774911  0.77129026  0.75406715  1
  O  O312  1  0.41126795  0.27308922  0.07851473  1
  O  O313  1  0.41605688  0.27922118  0.41815437  1
  O  O314  1  0.41607079  0.27208905  0.75046733  1
  O  O315  1  0.42323389  0.77356131  0.09183718  1
  O  O316  1  0.42516511  0.76751963  0.42566754  1
  O  O317  1  0.41155463  0.76624314  0.75053961  1
  O  O318  1  0.75116387  0.26625710  0.08908775  1
  O  O319  1  0.75358437  0.26770362  0.41893572  1
  O  O320  1  0.75749523  0.26115294  0.75571085  1
  O  O321  1  0.75708792  0.77264983  0.09154015  1
  O  O322  1  0.75863554  0.75842089  0.42969862  1
  O  O323  1  0.76397139  0.76087299  0.76263201  1
  O  O324  1  0.25576379  0.01933230  0.24957793  1
  O  O325  1  0.24995867  0.02655150  0.58082683  1
  O  O326  1  0.24832330  0.02224933  0.91006407  1
  O  O327  1  0.26180933  0.51231119  0.25691022  1
  O  O328  1  0.24550083  0.52497689  0.57855173  1
  O  O329  1  0.24331215  0.51629677  0.90946060  1
  O  O330  1  0.57774420  0.01350619  0.24245991  1
  O  O331  1  0.58175605  0.02110775  0.58587969  1
  O  O332  1  0.57888118  0.02427248  0.91870663  1
  O  O333  1  0.58195515  0.52630712  0.25072271  1
  O  O334  1  0.58050373  0.50387558  0.58292120  1
  O  O335  1  0.58080156  0.51244835  0.92304870  1
  O  O336  1  0.92216086  0.01247188  0.25777637  1
  O  O337  1  0.91899548  0.02514454  0.58343085  1
  O  O338  1  0.91118328  0.00416212  0.90982360  1
  O  O339  1  0.90917107  0.50662903  0.24322289  1
  O  O340  1  0.92066708  0.51357720  0.58814710  1
  O  O341  1  0.91284767  0.52557871  0.90972374  1
  O  O342  1  0.08484374  0.24558271  0.24890420  1
  O  O343  1  0.08579792  0.22361795  0.57686585  1
  O  O344  1  0.08525532  0.23773697  0.90625363  1
  O  O345  1  0.08675094  0.74772657  0.24391749  1
  O  O346  1  0.07967484  0.72915587  0.58789332  1
  O  O347  1  0.07255580  0.72948490  0.91773948  1
  O  O348  1  0.42028122  0.22934854  0.24703719  1
  O  O349  1  0.41586625  0.22955314  0.58437623  1
  O  O350  1  0.41862931  0.22375844  0.91589011  1
  O  O351  1  0.41563710  0.73147168  0.25333552  1
  O  O352  1  0.40344454  0.73907542  0.59153283  1
  O  O353  1  0.40414438  0.74458001  0.92660466  1
  O  O354  1  0.75019216  0.24912094  0.25359973  1
  O  O355  1  0.75464703  0.22442419  0.58935094  1
  O  O356  1  0.74405041  0.23478633  0.92270097  1
  O  O357  1  0.74201000  0.73027017  0.25776072  1
  O  O358  1  0.75266874  0.72755042  0.59117757  1
  O  O359  1  0.74299761  0.72849797  0.92848320  1
