# generated using pymatgen
data_Ba17Sr5La8Pr42Mn72O216
_symmetry_space_group_name_H-M   'P 1'
_cell_length_a   16.67497906
_cell_length_b   15.70325144
_cell_length_c   16.81455451
_cell_angle_alpha   89.99709206
_cell_angle_beta   90.00940042
_cell_angle_gamma   90.01107804
_symmetry_Int_Tables_number   1
_chemical_formula_structural   Ba17Sr5La8Pr42Mn72O216
_chemical_formula_sum   'Ba17 Sr5 La8 Pr42 Mn72 O216'
_cell_volume   4402.91430259
_cell_formula_units_Z   1
loop_
 _symmetry_equiv_pos_site_id
 _symmetry_equiv_pos_as_xyz
  1  'x, y, z'
loop_
 _atom_site_type_symbol
 _atom_site_label
 _atom_site_symmetry_multiplicity
 _atom_site_fract_x
 _atom_site_fract_y
 _atom_site_fract_z
 _atom_site_occupancy
  Ba  Ba0  1  0.83274746  0.12649638  0.16612803  1
  Ba  Ba1  1  0.16826457  0.37463963  0.49868127  1
  Ba  Ba2  1  0.33189792  0.87466666  0.33733136  1
  Ba  Ba3  1  0.83109682  0.87488545  0.49977717  1
  Ba  Ba4  1  0.83146726  0.87614157  0.82963773  1
  Ba  Ba5  1  0.66511495  0.12422910  0.33055541  1
  Ba  Ba6  1  0.83376544  0.62374242  0.16552390  1
  Ba  Ba7  1  0.66347820  0.12581175  0.99865147  1
  Ba  Ba8  1  -0.00209312  0.87277349  0.66619488  1
  Ba  Ba9  1  0.83749146  0.37556749  0.16460538  1
  Ba  Ba10  1  0.33358957  0.87675752  0.67041760  1
  Ba  Ba11  1  0.66494021  0.62521087  0.33035017  1
  Ba  Ba12  1  0.66491332  0.62475761  0.66477471  1
  Ba  Ba13  1  0.49666300  0.87255842  0.16975980  1
  Ba  Ba14  1  0.67321071  0.37522772  0.66419299  1
  Ba  Ba15  1  0.50025149  0.62291288  0.83451162  1
  Ba  Ba16  1  0.33080670  0.87489802  0.00390208  1
  Sr  Sr17  1  0.66798411  0.87342558  0.66558042  1
  Sr  Sr18  1  0.49866512  0.12680876  0.83670072  1
  Sr  Sr19  1  0.49571345  0.62636151  0.16780565  1
  Sr  Sr20  1  0.66555382  0.87398071  0.33210898  1
  Sr  Sr21  1  -0.00163911  0.62705148  0.66520738  1
  La  La22  1  0.50521150  0.87331976  0.49621577  1
  La  La23  1  0.66438274  0.62523044  0.99744300  1
  La  La24  1  0.33819693  0.37537027  0.33920598  1
  La  La25  1  0.17436597  0.37499098  0.82977981  1
  La  La26  1  0.16563430  0.12203940  0.83416530  1
  La  La27  1  0.16272406  0.87405451  0.49786300  1
  La  La28  1  0.50981264  0.37342192  0.83298889  1
  La  La29  1  0.49565174  0.12219975  0.16958057  1
  Pr  Pr30  1  0.67934120  0.37495593  0.33435505  1
  Pr  Pr31  1  0.33115737  0.62449128  0.66659916  1
  Pr  Pr32  1  -0.00382952  0.12279098  0.66242125  1
  Pr  Pr33  1  -0.00582240  0.87467883  0.33591368  1
  Pr  Pr34  1  0.84030171  0.37386391  0.82716646  1
  Pr  Pr35  1  0.16266368  0.87413293  0.16405128  1
  Pr  Pr36  1  0.16759203  0.12373439  0.16754711  1
  Pr  Pr37  1  0.34131229  0.37454380  0.67152877  1
  Pr  Pr38  1  0.32960639  0.12658147  0.33539713  1
  Pr  Pr39  1  0.49714355  0.12142868  0.50397932  1
  Pr  Pr40  1  0.00739096  0.37704208  0.66758897  1
  Pr  Pr41  1  -0.00739072  0.87490007  0.00013622  1
  Pr  Pr42  1  0.16562235  0.12336935  0.50223367  1
  Pr  Pr43  1  0.33310513  0.12382937  1.00104922  1
  Pr  Pr44  1  0.50982507  0.37637332  0.16818898  1
  Pr  Pr45  1  0.82839504  0.62896342  0.83086149  1
  Pr  Pr46  1  0.17157824  0.37487287  0.16507861  1
  Pr  Pr47  1  0.50485294  0.87708584  0.83191793  1
  Pr  Pr48  1  -0.00454829  0.12719149  0.99581406  1
  Pr  Pr49  1  0.16717133  0.62564330  0.16679215  1
  Pr  Pr50  1  0.16558806  0.62615517  0.50420484  1
  Pr  Pr51  1  0.33112967  0.62441944  0.33630555  1
  Pr  Pr52  1  0.32828591  0.12614821  0.66836831  1
  Pr  Pr53  1  0.82897468  0.62817981  0.50084493  1
  Pr  Pr54  1  0.82142228  0.87482218  0.16443007  1
  Pr  Pr55  1  0.51062430  0.37450388  0.49803004  1
  Pr  Pr56  1  0.16587484  0.62971042  0.83312317  1
  Pr  Pr57  1  0.83647294  0.37978160  0.49527785  1
  Pr  Pr58  1  0.49611973  0.62781303  0.50630370  1
  Pr  Pr59  1  -0.00435686  0.62201437  0.99385524  1
  Pr  Pr60  1  0.82713374  0.12226884  0.83339360  1
  Pr  Pr61  1  0.16713140  0.87472304  0.82948563  1
  Pr  Pr62  1  0.00799083  0.37458782  0.00170052  1
  Pr  Pr63  1  -0.00150198  0.37589825  0.33267562  1
  Pr  Pr64  1  0.67343110  0.37604771  -0.00180102  1
  Pr  Pr65  1  0.32803559  0.62836605  1.00059232  1
  Pr  Pr66  1  0.65854668  0.87411212  0.00164578  1
  Pr  Pr67  1  0.00110349  0.62547979  0.33141650  1
  Pr  Pr68  1  0.82727470  0.12365228  0.49811447  1
  Pr  Pr69  1  0.00114508  0.12515799  0.32890606  1
  Pr  Pr70  1  0.66481717  0.12076315  0.66464791  1
  Pr  Pr71  1  0.34139101  0.37608202  0.00612697  1
  Mn  Mn72  1  0.00003345  -0.00161493  0.16569351  1
  Mn  Mn73  1  -0.00103792  0.00200064  0.49618406  1
  Mn  Mn74  1  0.00116527  0.00166832  0.83252635  1
  Mn  Mn75  1  0.00472935  0.50110844  0.16461890  1
  Mn  Mn76  1  0.00105911  0.50075787  0.49949489  1
  Mn  Mn77  1  0.00175440  0.49939277  0.83234038  1
  Mn  Mn78  1  0.32977440  0.00128695  0.16934737  1
  Mn  Mn79  1  0.33185433  0.00098997  0.50330971  1
  Mn  Mn80  1  0.33410724  0.00170586  0.83674028  1
  Mn  Mn81  1  0.33324782  0.49950576  0.17056603  1
  Mn  Mn82  1  0.33489941  0.49828837  0.50270022  1
  Mn  Mn83  1  0.33296955  0.49953994  0.83683314  1
  Mn  Mn84  1  0.66329893  -0.00058522  0.16560503  1
  Mn  Mn85  1  0.66554573  0.00079784  0.49864040  1
  Mn  Mn86  1  0.66427982  0.00084199  0.83157333  1
  Mn  Mn87  1  0.66565638  0.49911980  0.16536389  1
  Mn  Mn88  1  0.66641922  0.50001388  0.49676207  1
  Mn  Mn89  1  0.67045085  0.49896177  0.83296209  1
  Mn  Mn90  1  0.00431685  0.24980571  0.16455245  1
  Mn  Mn91  1  -0.00063759  0.24962254  0.49836596  1
  Mn  Mn92  1  0.00170017  0.25039643  0.83135957  1
  Mn  Mn93  1  0.00008951  0.75106384  0.16587284  1
  Mn  Mn94  1  -0.00010027  0.74875012  0.49773241  1
  Mn  Mn95  1  0.00109167  0.74801581  0.83341581  1
  Mn  Mn96  1  0.33304701  0.25213785  0.16977805  1
  Mn  Mn97  1  0.33516875  0.24957985  0.50309488  1
  Mn  Mn98  1  0.33457155  0.25028990  0.83716476  1
  Mn  Mn99  1  0.33024407  0.74700314  0.16923198  1
  Mn  Mn100  1  0.33193811  0.74995794  0.50341435  1
  Mn  Mn101  1  0.33368264  0.74998959  0.83576208  1
  Mn  Mn102  1  0.66544312  0.25132285  0.16596548  1
  Mn  Mn103  1  0.66733944  0.24886218  0.49868606  1
  Mn  Mn104  1  0.66916428  0.25069962  0.83106522  1
  Mn  Mn105  1  0.66326144  0.74890799  0.16527220  1
  Mn  Mn106  1  0.66558277  0.74988778  0.49783092  1
  Mn  Mn107  1  0.66637144  0.75012153  0.83247281  1
  Mn  Mn108  1  0.16809765  0.24990615  -0.00056694  1
  Mn  Mn109  1  0.16602639  0.25028126  0.33234174  1
  Mn  Mn110  1  0.16691522  0.25078413  0.66751913  1
  Mn  Mn111  1  0.16230119  0.75018947  0.00037450  1
  Mn  Mn112  1  0.16517848  0.74877715  0.33317130  1
  Mn  Mn113  1  0.16663112  0.74918532  0.66717401  1
  Mn  Mn114  1  0.49942284  0.25335883  0.00156476  1
  Mn  Mn115  1  0.49830533  0.25118070  0.33383881  1
  Mn  Mn116  1  0.50122079  0.24830720  0.66838492  1
  Mn  Mn117  1  0.49805864  0.74727824  0.00043653  1
  Mn  Mn118  1  0.49856754  0.74833477  0.33563358  1
  Mn  Mn119  1  0.49862975  0.75193631  0.66782501  1
  Mn  Mn120  1  0.83525967  0.24988152  -0.00529743  1
  Mn  Mn121  1  0.83665342  0.25035684  0.33398507  1
  Mn  Mn122  1  0.83740531  0.24886242  0.66393135  1
  Mn  Mn123  1  0.83271860  0.75047301  -0.00056539  1
  Mn  Mn124  1  0.83413563  0.74966234  0.33135882  1
  Mn  Mn125  1  0.83296093  0.74830134  0.66646095  1
  Mn  Mn126  1  0.16296755  0.00105717  0.00062956  1
  Mn  Mn127  1  0.16489136  0.00074838  0.33282196  1
  Mn  Mn128  1  0.16550359  0.00126848  0.66724080  1
  Mn  Mn129  1  0.16776996  0.49869686  -0.00086975  1
  Mn  Mn130  1  0.16626584  0.50039923  0.33292853  1
  Mn  Mn131  1  0.16821040  0.49927258  0.66740667  1
  Mn  Mn132  1  0.49738338  0.00127293  -0.00004012  1
  Mn  Mn133  1  0.49759105  0.00075961  0.33656985  1
  Mn  Mn134  1  0.50053243  0.00103955  0.66934698  1
  Mn  Mn135  1  0.49993917  0.49891260  0.00249250  1
  Mn  Mn136  1  0.49891465  0.49958568  0.33414061  1
  Mn  Mn137  1  0.49910953  0.49822647  0.66746405  1
  Mn  Mn138  1  0.83196781  -0.00083952  -0.00127597  1
  Mn  Mn139  1  0.83396583  -0.00004676  0.33124994  1
  Mn  Mn140  1  0.83275947  0.00212341  0.66637901  1
  Mn  Mn141  1  0.83547202  0.50031961  -0.00508638  1
  Mn  Mn142  1  0.83621843  0.50125609  0.33258188  1
  Mn  Mn143  1  0.83837285  0.50008648  0.66326890  1
  O  O144  1  0.16391956  0.12598822  0.02551309  1
  O  O145  1  0.16272583  0.12731525  0.35838366  1
  O  O146  1  0.16412883  0.12792523  0.68976285  1
  O  O147  1  0.16658783  0.61948394  0.02358984  1
  O  O148  1  0.16417221  0.62078073  0.36087855  1
  O  O149  1  0.17042176  0.62042662  0.68987813  1
  O  O150  1  0.49430041  0.13326153  0.02404526  1
  O  O151  1  0.49221584  0.12905628  0.35844865  1
  O  O152  1  0.51258469  0.12581684  0.68883301  1
  O  O153  1  0.51019978  0.61945158  0.01652872  1
  O  O154  1  0.49272303  0.62051934  0.36111051  1
  O  O155  1  0.49434857  0.62361518  0.67645674  1
  O  O156  1  0.84152401  0.12424968  0.00990750  1
  O  O157  1  0.84334835  0.12846674  0.35216211  1
  O  O158  1  0.84251650  0.12867931  0.68958637  1
  O  O159  1  0.84016762  0.62547337  0.01062567  1
  O  O160  1  0.84248797  0.62257533  0.35372151  1
  O  O161  1  0.83659487  0.61991118  0.68539074  1
  O  O162  1  0.16574878  0.37581972  0.30814314  1
  O  O163  1  0.16728699  0.37421838  0.65374347  1
  O  O164  1  0.16585917  0.37526823  0.97264119  1
  O  O165  1  0.16318802  0.87723244  0.30841235  1
  O  O166  1  0.16780165  0.87771325  0.64328192  1
  O  O167  1  0.16110185  0.87931873  0.97234166  1
  O  O168  1  0.48658269  0.37445607  0.31104646  1
  O  O169  1  0.48988957  0.37141921  0.64405833  1
  O  O170  1  0.48675583  0.37636589  0.97765180  1
  O  O171  1  0.49880468  0.87511102  0.32955777  1
  O  O172  1  0.49854953  0.87905146  0.64332588  1
  O  O173  1  0.50092612  0.87161408  0.97868609  1
  O  O174  1  0.83638860  0.37579636  0.32435952  1
  O  O175  1  0.84468616  0.37285717  0.63855757  1
  O  O176  1  0.83787503  0.37605725  0.97122646  1
  O  O177  1  0.84387036  0.87381290  0.31218945  1
  O  O178  1  0.83104242  0.87916323  0.65731838  1
  O  O179  1  0.83720427  0.87437452  0.98612071  1
  O  O180  1  0.01110658  0.37630615  0.18828100  1
  O  O181  1  -0.00732479  0.37371621  0.52573379  1
  O  O182  1  -0.00683402  0.37383532  0.85921758  1
  O  O183  1  0.00965113  0.87498854  0.19372975  1
  O  O184  1  0.00634968  0.87592915  0.50938081  1
  O  O185  1  0.00895413  0.87380760  0.85591306  1
  O  O186  1  0.32405251  0.37559364  0.19652650  1
  O  O187  1  0.33696844  0.37238898  0.52754854  1
  O  O188  1  0.32553091  0.37440820  0.86297436  1
  O  O189  1  0.32220347  0.87059905  0.17987347  1
  O  O190  1  0.32563162  0.87643914  0.51370793  1
  O  O191  1  0.32727788  0.87592304  0.84820019  1
  O  O192  1  0.66033483  0.37476742  0.18975355  1
  O  O193  1  0.66980616  0.37331747  0.50785371  1
  O  O194  1  0.67731725  0.37469455  0.85215804  1
  O  O195  1  0.66831254  0.87363417  0.17718953  1
  O  O196  1  0.65937142  0.87804074  0.51397919  1
  O  O197  1  0.66134285  0.87454307  0.85472315  1
  O  O198  1  0.00822335  0.12280620  0.13914026  1
  O  O199  1  0.00668277  0.12744776  0.47161203  1
  O  O200  1  0.00943276  0.13066152  0.80628989  1
  O  O201  1  0.00863392  0.62616095  0.13683031  1
  O  O202  1  0.01028019  0.62369737  0.47452338  1
  O  O203  1  0.01096396  0.62062166  0.81524189  1
  O  O204  1  0.33043719  0.13226240  0.14438692  1
  O  O205  1  0.33429325  0.12679012  0.47877476  1
  O  O206  1  0.33341588  0.12857385  0.81253923  1
  O  O207  1  0.32537017  0.62057073  0.14461988  1
  O  O208  1  0.33846248  0.62189000  0.48072425  1
  O  O209  1  0.32809099  0.62207303  0.81109535  1
  O  O210  1  0.65755691  0.12861270  0.15638450  1
  O  O211  1  0.66404778  0.12732801  0.48768150  1
  O  O212  1  0.66732305  0.12831354  0.81154901  1
  O  O213  1  0.66352675  0.62252153  0.14371027  1
  O  O214  1  0.66377653  0.62185680  0.48876888  1
  O  O215  1  0.67114615  0.62223657  0.82327630  1
  O  O216  1  0.08819829  0.02295317  0.24457664  1
  O  O217  1  0.08222293  0.02225479  0.57812209  1
  O  O218  1  0.08328790  0.02580971  0.91757094  1
  O  O219  1  0.08471720  0.52528439  0.24988936  1
  O  O220  1  0.08180669  0.51452358  0.58363992  1
  O  O221  1  0.07544463  0.51412298  0.92520060  1
  O  O222  1  0.41168696  0.02168869  0.25572946  1
  O  O223  1  0.41531216  0.02641139  0.59205438  1
  O  O224  1  0.41133020  0.02100826  0.92266705  1
  O  O225  1  0.40382108  0.51680660  0.26538456  1
  O  O226  1  0.40644743  0.51628152  0.59354716  1
  O  O227  1  0.40230372  0.51594381  0.93336033  1
  O  O228  1  0.75446027  0.00145189  0.24603155  1
  O  O229  1  0.75022144  0.02305888  0.58212825  1
  O  O230  1  0.75181255  0.01421185  0.90805014  1
  O  O231  1  0.74781410  0.50372879  0.25181495  1
  O  O232  1  0.75556728  0.51039045  0.57711596  1
  O  O233  1  0.74995266  0.51975562  0.91874749  1
  O  O234  1  0.24482773  0.22780460  0.24592992  1
  O  O235  1  0.24763616  0.22616789  0.58040599  1
  O  O236  1  0.24369601  0.22639878  0.91344623  1
  O  O237  1  0.24919552  0.72406711  0.25589531  1
  O  O238  1  0.25112781  0.72499727  0.58619836  1
  O  O239  1  0.24807851  0.72887119  0.91937619  1
  O  O240  1  0.56455467  0.24016329  0.24032918  1
  O  O241  1  0.57541021  0.23680974  0.57490322  1
  O  O242  1  0.57593463  0.24890571  0.91212475  1
  O  O243  1  0.57956069  0.73884245  0.24632887  1
  O  O244  1  0.57371056  0.74036306  0.57644872  1
  O  O245  1  0.58891483  0.73873219  0.92035911  1
  O  O246  1  0.92504609  0.23974380  0.25399000  1
  O  O247  1  0.91406035  0.22102071  0.57635904  1
  O  O248  1  0.91355754  0.22679846  0.90325159  1
  O  O249  1  0.92826822  0.73423026  0.25511842  1
  O  O250  1  0.91679275  0.73049535  0.57693356  1
  O  O251  1  0.92251709  0.73411825  0.92090984  1
  O  O252  1  0.09372387  0.47553853  0.08589161  1
  O  O253  1  0.07879618  0.48067223  0.41042256  1
  O  O254  1  0.08965138  0.47723359  0.75906319  1
  O  O255  1  0.07704199  0.97462307  0.07842535  1
  O  O256  1  0.07983738  0.98184258  0.40927151  1
  O  O257  1  0.08830549  0.98456992  0.75421120  1
  O  O258  1  0.42101043  0.47904734  0.09718905  1
  O  O259  1  0.42493109  0.47798701  0.42911361  1
  O  O260  1  0.41864451  0.47523461  0.76138994  1
  O  O261  1  0.41202620  0.99937311  0.08638680  1
  O  O262  1  0.41980386  0.99062142  0.42759373  1
  O  O263  1  0.42374761  0.98848089  0.75957942  1
  O  O264  1  0.75080510  0.48481089  0.07391292  1
  O  O265  1  0.75417205  0.48507789  0.41738826  1
  O  O266  1  0.76498309  0.48619771  0.75724150  1
  O  O267  1  0.74657203  0.98131020  0.07820377  1
  O  O268  1  0.75025223  0.99543355  0.41512413  1
  O  O269  1  0.74461436  1.00127028  0.74272841  1
  O  O270  1  0.25731544  0.27313600  0.08181358  1
  O  O271  1  0.25828342  0.26200164  0.40726602  1
  O  O272  1  0.26027340  0.26738311  0.74760807  1
  O  O273  1  0.23500288  0.75914081  0.09143881  1
  O  O274  1  0.24134988  0.75740959  0.42692821  1
  O  O275  1  0.24551067  0.76014647  0.75817640  1
  O  O276  1  0.58594771  0.27805183  0.07536156  1
  O  O277  1  0.58696160  0.27379370  0.40438296  1
  O  O278  1  0.58604413  0.26788196  0.74802989  1
  O  O279  1  0.58475242  0.76296841  0.07700323  1
  O  O280  1  0.58141852  0.76169548  0.41793135  1
  O  O281  1  0.58050669  0.76939609  0.75163280  1
  O  O282  1  0.92931117  0.26298009  0.06978015  1
  O  O283  1  0.91990964  0.27274466  0.41732292  1
  O  O284  1  0.92855261  0.27208041  0.74014199  1
  O  O285  1  0.91357107  0.77317319  0.09011078  1
  O  O286  1  0.92049015  0.75892013  0.41341353  1
  O  O287  1  0.91704920  0.74915389  0.75547521  1
  O  O288  1  0.25562322  0.47776741  0.07845102  1
  O  O289  1  0.26069706  0.48669645  0.40928065  1
  O  O290  1  0.25894236  0.47869328  0.74685001  1
  O  O291  1  0.23581861  0.98960007  0.09289912  1
  O  O292  1  0.23804923  0.99198507  0.42407655  1
  O  O293  1  0.24701576  0.99352451  0.75988043  1
  O  O294  1  0.58734734  0.47359562  0.07760051  1
  O  O295  1  0.58774480  0.47471694  0.40611901  1
  O  O296  1  0.58410920  0.48273823  0.75051543  1
  O  O297  1  0.58233393  0.98608345  0.07649096  1
  O  O298  1  0.57872774  0.99071251  0.42121098  1
  O  O299  1  0.58367260  0.97843326  0.74837928  1
  O  O300  1  0.92953458  0.48681673  0.06828224  1
  O  O301  1  0.91969281  0.48113010  0.41717085  1
  O  O302  1  0.92746270  0.47694444  0.74260954  1
  O  O303  1  0.91503967  0.97744122  0.08886796  1
  O  O304  1  0.91933184  0.98976509  0.41335653  1
  O  O305  1  0.91858910  0.99864850  0.74969582  1
  O  O306  1  0.09254075  0.27364775  0.08558372  1
  O  O307  1  0.07896808  0.26852227  0.40992719  1
  O  O308  1  0.08860833  0.27392818  0.75722280  1
  O  O309  1  0.07569815  0.77558291  0.07839004  1
  O  O310  1  0.08011112  0.76911077  0.40909602  1
  O  O311  1  0.08829028  0.76344897  0.75579804  1
  O  O312  1  0.42124854  0.27452739  0.09591093  1
  O  O313  1  0.42440739  0.26967479  0.42761526  1
  O  O314  1  0.42114966  0.27122124  0.75973445  1
  O  O315  1  0.40998783  0.74759353  0.08395563  1
  O  O316  1  0.41942652  0.75976655  0.42879023  1
  O  O317  1  0.41994539  0.76493047  0.75866395  1
  O  O318  1  0.75156014  0.26654459  0.07542663  1
  O  O319  1  0.75951610  0.26326123  0.42348790  1
  O  O320  1  0.76589386  0.26243788  0.75438988  1
  O  O321  1  0.74502453  0.76660784  0.07644362  1
  O  O322  1  0.75008617  0.75598034  0.41250462  1
  O  O323  1  0.74716677  0.75551546  0.74884339  1
  O  O324  1  0.24960384  0.02571547  0.25565242  1
  O  O325  1  0.24902299  0.02591154  0.58668314  1
  O  O326  1  0.24854074  0.02429123  0.92253587  1
  O  O327  1  0.24399873  0.52235668  0.24627972  1
  O  O328  1  0.24826860  0.52208353  0.57871318  1
  O  O329  1  0.24095518  0.52293163  0.91065458  1
  O  O330  1  0.57367528  0.01236524  0.24661062  1
  O  O331  1  0.58100154  0.02016234  0.58342991  1
  O  O332  1  0.57671625  0.00796319  0.91054009  1
  O  O333  1  0.56851051  0.50865812  0.24310537  1
  O  O334  1  0.57281088  0.50554670  0.56855188  1
  O  O335  1  0.58700179  0.49997342  0.91800847  1
  O  O336  1  0.92754880  0.01465179  0.25457022  1
  O  O337  1  0.91569264  0.02369345  0.57874969  1
  O  O338  1  0.92110066  0.01683500  0.91755159  1
  O  O339  1  0.92490331  0.51173671  0.25421154  1
  O  O340  1  0.91457503  0.52336129  0.57447231  1
  O  O341  1  0.91179220  0.52245101  0.90304569  1
  O  O342  1  0.08520468  0.22662656  0.24841589  1
  O  O343  1  0.07774704  0.23000942  0.58350918  1
  O  O344  1  0.07471146  0.23310469  0.92126177  1
  O  O345  1  0.08781900  0.72780023  0.24293626  1
  O  O346  1  0.08845619  0.73502714  0.57581456  1
  O  O347  1  0.08449529  0.72600951  0.91744806  1
  O  O348  1  0.40515588  0.23063552  0.26120793  1
  O  O349  1  0.41214575  0.22369260  0.59522503  1
  O  O350  1  0.40553449  0.23508498  0.92981242  1
  O  O351  1  0.41113112  0.72987473  0.25801997  1
  O  O352  1  0.41124026  0.73088360  0.58855778  1
  O  O353  1  0.41048802  0.73025727  0.92316181  1
  O  O354  1  0.74771756  0.24813294  0.25610479  1
  O  O355  1  0.74950679  0.22541472  0.59062472  1
  O  O356  1  0.75271480  0.23557458  0.91213026  1
  O  O357  1  0.75471576  0.74708347  0.24332452  1
  O  O358  1  0.75202184  0.73654860  0.57636977  1
  O  O359  1  0.75262857  0.73227097  0.91388762  1
