# generated using pymatgen
data_Ba17Sr5La8Pr42Mn72O216
_symmetry_space_group_name_H-M   'P 1'
_cell_length_a   16.67615936
_cell_length_b   15.70641612
_cell_length_c   16.81982879
_cell_angle_alpha   90.01009131
_cell_angle_beta   90.01056045
_cell_angle_gamma   90.01345523
_symmetry_Int_Tables_number   1
_chemical_formula_structural   Ba17Sr5La8Pr42Mn72O216
_chemical_formula_sum   'Ba17 Sr5 La8 Pr42 Mn72 O216'
_cell_volume   4405.49467432
_cell_formula_units_Z   1
loop_
 _symmetry_equiv_pos_site_id
 _symmetry_equiv_pos_as_xyz
  1  'x, y, z'
loop_
 _atom_site_type_symbol
 _atom_site_label
 _atom_site_symmetry_multiplicity
 _atom_site_fract_x
 _atom_site_fract_y
 _atom_site_fract_z
 _atom_site_occupancy
  Ba  Ba0  1  0.00001523  0.37584136  0.66787689  1
  Ba  Ba1  1  0.16770923  0.62482543  0.17044312  1
  Ba  Ba2  1  -0.00023527  0.87470286  -0.00069822  1
  Ba  Ba3  1  0.50129983  0.62746737  0.49808132  1
  Ba  Ba4  1  0.66749180  0.12530960  0.33410631  1
  Ba  Ba5  1  0.49983419  0.12275968  0.49872579  1
  Ba  Ba6  1  0.66826663  0.37518002  0.33220893  1
  Ba  Ba7  1  0.83521421  0.87409411  0.49755826  1
  Ba  Ba8  1  0.16464792  0.12253546  0.50520262  1
  Ba  Ba9  1  0.83505784  0.37553096  0.49772578  1
  Ba  Ba10  1  0.66739698  0.62720143  0.99753001  1
  Ba  Ba11  1  0.83467942  0.37395472  0.82856999  1
  Ba  Ba12  1  0.66548706  0.37824890  0.66603583  1
  Ba  Ba13  1  0.49846111  0.37538784  0.82925677  1
  Ba  Ba14  1  0.66406592  0.87496222  -0.00061386  1
  Ba  Ba15  1  0.83133804  0.12413307  0.82986776  1
  Ba  Ba16  1  0.33270604  0.37675547  0.66839466  1
  Sr  Sr17  1  0.16204882  0.12211495  0.17400783  1
  Sr  Sr18  1  0.66720710  0.62562483  0.66586129  1
  Sr  Sr19  1  0.82956120  0.12704091  0.50046505  1
  Sr  Sr20  1  0.00164294  0.62537649  0.99769319  1
  Sr  Sr21  1  0.16628865  0.12643571  0.83752747  1
  La  La22  1  0.16904156  0.87327007  0.83723551  1
  La  La23  1  0.49949620  0.87555994  0.49832692  1
  La  La24  1  0.49929164  0.87169279  0.83328800  1
  La  La25  1  0.33239826  0.37603761  0.33733665  1
  La  La26  1  0.83362483  0.86642354  0.82771344  1
  La  La27  1  0.33034245  0.12831678  0.66624435  1
  La  La28  1  0.83108154  0.12202136  0.16530849  1
  La  La29  1  -0.00126514  0.62482865  0.33131817  1
  Pr  Pr30  1  0.83372363  0.37463356  0.16280494  1
  Pr  Pr31  1  0.66747365  0.13082021  0.65868036  1
  Pr  Pr32  1  0.16593178  0.37357071  0.16857418  1
  Pr  Pr33  1  0.50104561  0.37221247  0.16003601  1
  Pr  Pr34  1  -0.00794461  0.12391250  0.33499627  1
  Pr  Pr35  1  -0.00251412  0.12379999  0.99736031  1
  Pr  Pr36  1  0.83684483  0.62747799  0.16200431  1
  Pr  Pr37  1  0.33647938  0.62628883  0.99819602  1
  Pr  Pr38  1  0.67784350  0.62476020  0.32817700  1
  Pr  Pr39  1  0.33068878  0.12486178  0.33035908  1
  Pr  Pr40  1  0.00555785  0.87470833  0.33467581  1
  Pr  Pr41  1  0.16639263  0.62452955  0.50567941  1
  Pr  Pr42  1  0.16687467  0.37487003  0.83333329  1
  Pr  Pr43  1  0.83067260  0.87579757  0.15985091  1
  Pr  Pr44  1  0.34145910  0.62549768  0.32862199  1
  Pr  Pr45  1  0.32964753  0.87570819  0.33473235  1
  Pr  Pr46  1  0.66216632  0.87534540  0.33328151  1
  Pr  Pr47  1  0.33072913  0.37334437  0.00182053  1
  Pr  Pr48  1  0.50908433  0.62669440  0.16986138  1
  Pr  Pr49  1  0.16123671  0.87412808  0.16492388  1
  Pr  Pr50  1  -0.01119178  0.12682957  0.66443044  1
  Pr  Pr51  1  0.67204090  0.37638811  -0.00102556  1
  Pr  Pr52  1  -0.00627729  0.62514438  0.66767019  1
  Pr  Pr53  1  0.16858406  0.62070190  0.84353731  1
  Pr  Pr54  1  0.66221046  0.87592687  0.66500267  1
  Pr  Pr55  1  0.49971316  0.12720645  0.83000571  1
  Pr  Pr56  1  0.00147409  0.37168496  0.00117417  1
  Pr  Pr57  1  0.49317165  0.87642946  0.16076121  1
  Pr  Pr58  1  0.50259141  0.37425792  0.49743805  1
  Pr  Pr59  1  0.50541055  0.62099300  0.83158702  1
  Pr  Pr60  1  0.49943775  0.12193509  0.17150722  1
  Pr  Pr61  1  0.82813966  0.62216574  0.49984910  1
  Pr  Pr62  1  0.00332660  0.88053600  0.67418259  1
  Pr  Pr63  1  0.00636705  0.37501803  0.34044473  1
  Pr  Pr64  1  0.83225612  0.61884760  0.83215841  1
  Pr  Pr65  1  0.33431406  0.62493965  0.66668917  1
  Pr  Pr66  1  0.33201932  0.12503499  0.99913530  1
  Pr  Pr67  1  0.33374320  0.87810915  0.66782512  1
  Pr  Pr68  1  0.32794601  0.87739358  0.00432527  1
  Pr  Pr69  1  0.16886327  0.37079617  0.50233872  1
  Pr  Pr70  1  0.16764374  0.87629066  0.50354963  1
  Pr  Pr71  1  0.66312527  0.12463592  0.99543786  1
  Mn  Mn72  1  -0.00106791  0.00148026  0.16797066  1
  Mn  Mn73  1  -0.00114087  -0.00199768  0.50216182  1
  Mn  Mn74  1  0.00113313  0.00189931  0.83460370  1
  Mn  Mn75  1  0.00002738  0.49845425  0.16813699  1
  Mn  Mn76  1  0.00297088  0.50261994  0.49996212  1
  Mn  Mn77  1  0.00291955  0.50158562  0.83466157  1
  Mn  Mn78  1  0.33083271  0.00058210  0.16757463  1
  Mn  Mn79  1  0.33232243  -0.00110499  0.50129638  1
  Mn  Mn80  1  0.33358521  -0.00045801  0.83581581  1
  Mn  Mn81  1  0.33521787  0.49888181  0.16719401  1
  Mn  Mn82  1  0.33278989  0.50173311  0.49961316  1
  Mn  Mn83  1  0.33323962  0.50252243  0.83503746  1
  Mn  Mn84  1  0.66533239  -0.00038996  0.16504324  1
  Mn  Mn85  1  0.66719457  -0.00330509  0.49972765  1
  Mn  Mn86  1  0.66597489  -0.00206986  0.83036185  1
  Mn  Mn87  1  0.66787627  0.49973901  0.16500919  1
  Mn  Mn88  1  0.66481112  0.50147534  0.49729186  1
  Mn  Mn89  1  0.66606753  0.50137981  0.83252078  1
  Mn  Mn90  1  -0.00056878  0.25043855  0.16881203  1
  Mn  Mn91  1  0.00068779  0.24885213  0.50052664  1
  Mn  Mn92  1  0.00267102  0.24780405  0.83485738  1
  Mn  Mn93  1  -0.00066863  0.74838692  0.16764945  1
  Mn  Mn94  1  0.00256702  0.74941396  0.50126826  1
  Mn  Mn95  1  0.00207575  0.74874245  0.83257156  1
  Mn  Mn96  1  0.33180637  0.24977831  0.16792823  1
  Mn  Mn97  1  0.33387777  0.25057990  0.50000519  1
  Mn  Mn98  1  0.33154321  0.24725988  0.83521269  1
  Mn  Mn99  1  0.33494582  0.75010413  0.16642918  1
  Mn  Mn100  1  0.33128520  0.75018804  0.50005627  1
  Mn  Mn101  1  0.33330101  0.75062328  0.83404212  1
  Mn  Mn102  1  0.66633101  0.25121550  0.16221278  1
  Mn  Mn103  1  0.66646028  0.25074064  0.49811235  1
  Mn  Mn104  1  0.66452409  0.24701869  0.83130958  1
  Mn  Mn105  1  0.66795050  0.75016994  0.16725240  1
  Mn  Mn106  1  0.66657543  0.75134731  0.49709028  1
  Mn  Mn107  1  0.66611577  0.75169077  0.82936625  1
  Mn  Mn108  1  0.16693188  0.24862757  0.00443872  1
  Mn  Mn109  1  0.16644444  0.24772038  0.33466866  1
  Mn  Mn110  1  0.16557008  0.24913139  0.67104428  1
  Mn  Mn111  1  0.16754750  0.74974423  0.00287479  1
  Mn  Mn112  1  0.16862587  0.75076387  0.33742736  1
  Mn  Mn113  1  0.16614536  0.74900617  0.67071067  1
  Mn  Mn114  1  0.49843808  0.24973003  -0.00118662  1
  Mn  Mn115  1  0.49767608  0.25024085  0.33022280  1
  Mn  Mn116  1  0.49893065  0.24852642  0.66543606  1
  Mn  Mn117  1  0.49683596  0.74979801  -0.00127908  1
  Mn  Mn118  1  0.50086937  0.75171005  0.33052316  1
  Mn  Mn119  1  0.49775124  0.75120734  0.66561810  1
  Mn  Mn120  1  0.83343102  0.25056394  -0.00067946  1
  Mn  Mn121  1  0.83539128  0.24840796  0.33025358  1
  Mn  Mn122  1  0.83153202  0.25004511  0.66452913  1
  Mn  Mn123  1  0.83540200  0.74898318  -0.00371241  1
  Mn  Mn124  1  0.83644793  0.75186894  0.32932427  1
  Mn  Mn125  1  0.83416845  0.74940622  0.66212690  1
  Mn  Mn126  1  0.16674261  0.00268691  0.00465056  1
  Mn  Mn127  1  0.16580817  -0.00041169  0.33598774  1
  Mn  Mn128  1  0.16625930  -0.00065087  0.67256291  1
  Mn  Mn129  1  0.16749325  0.49818622  0.00388025  1
  Mn  Mn130  1  0.16898774  0.50067261  0.33786682  1
  Mn  Mn131  1  0.16612757  0.50377097  0.67149720  1
  Mn  Mn132  1  0.49674075  0.00245340  -0.00109901  1
  Mn  Mn133  1  0.49820786  -0.00128580  0.33086620  1
  Mn  Mn134  1  0.49814784  -0.00221757  0.66727842  1
  Mn  Mn135  1  0.49793289  0.49891181  -0.00005631  1
  Mn  Mn136  1  0.50042706  0.50033961  0.32995461  1
  Mn  Mn137  1  0.49956075  0.50318430  0.66411149  1
  Mn  Mn138  1  0.83192846  0.00018861  -0.00203303  1
  Mn  Mn139  1  0.83468555  -0.00180490  0.32967296  1
  Mn  Mn140  1  0.83319540  -0.00300402  0.66401834  1
  Mn  Mn141  1  0.83643925  0.49935395  -0.00188956  1
  Mn  Mn142  1  0.83703866  0.50088988  0.32979555  1
  Mn  Mn143  1  0.83192974  0.50304394  0.66532631  1
  O  O144  1  0.17418395  0.12649016  0.02668440  1
  O  O145  1  0.17180266  0.12288895  0.34881825  1
  O  O146  1  0.17671281  0.12018944  0.68808887  1
  O  O147  1  0.17239253  0.62362182  0.01388817  1
  O  O148  1  0.16959937  0.62946740  0.36000556  1
  O  O149  1  0.17240280  0.62916566  0.70040195  1
  O  O150  1  0.49907988  0.12693197  0.02857956  1
  O  O151  1  0.49264079  0.12236965  0.34188883  1
  O  O152  1  0.50390457  0.11683348  0.68535320  1
  O  O153  1  0.49139634  0.62065993  0.02769019  1
  O  O154  1  0.49417662  0.62784803  0.34216615  1
  O  O155  1  0.49350812  0.63221112  0.68747247  1
  O  O156  1  0.83530843  0.12766054  0.02149920  1
  O  O157  1  0.84056519  0.12118516  0.34929645  1
  O  O158  1  0.82544112  0.12043542  0.67027192  1
  O  O159  1  0.83789222  0.62211730  0.01924785  1
  O  O160  1  0.83415381  0.62989819  0.35502436  1
  O  O161  1  0.83265826  0.62863716  0.68480942  1
  O  O162  1  0.16614006  0.37198799  0.31194247  1
  O  O163  1  0.16576681  0.38196908  0.64566696  1
  O  O164  1  0.16768189  0.37257400  0.97754579  1
  O  O165  1  0.16689682  0.87502530  0.30803979  1
  O  O166  1  0.16435334  0.87094562  0.64523249  1
  O  O167  1  0.17329589  0.87696575  0.98292399  1
  O  O168  1  0.49201431  0.37668165  0.30514405  1
  O  O169  1  0.49697962  0.37703202  0.64525485  1
  O  O170  1  0.48996180  0.37360595  0.98346010  1
  O  O171  1  0.50037800  0.87433936  0.30346351  1
  O  O172  1  0.48904913  0.87438147  0.64310366  1
  O  O173  1  0.48851040  0.88049710  0.97644940  1
  O  O174  1  0.84454781  0.37558734  0.30772660  1
  O  O175  1  0.83395471  0.37979460  0.65754005  1
  O  O176  1  0.83241134  0.37494692  0.98462881  1
  O  O177  1  0.84381207  0.87316660  0.30210019  1
  O  O178  1  0.85184329  0.87191752  0.65512096  1
  O  O179  1  0.83353069  0.87627982  0.97549277  1
  O  O180  1  -0.00274600  0.37376910  0.19674665  1
  O  O181  1  0.00619345  0.37559737  0.51082356  1
  O  O182  1  0.00592151  0.37390942  0.85621234  1
  O  O183  1  -0.00151400  0.87268164  0.19039612  1
  O  O184  1  0.00582969  0.86941391  0.52939541  1
  O  O185  1  -0.01240428  0.87517846  0.84042946  1
  O  O186  1  0.33729775  0.37549738  0.19325249  1
  O  O187  1  0.33798163  0.37611184  0.51165866  1
  O  O188  1  0.32965820  0.37488616  0.85769096  1
  O  O189  1  0.34094851  0.87675090  0.19097468  1
  O  O190  1  0.33446658  0.87325117  0.52370233  1
  O  O191  1  0.33838012  0.87485997  0.86274006  1
  O  O192  1  0.66722126  0.37617288  0.17617284  1
  O  O193  1  0.65850099  0.37512153  0.50600580  1
  O  O194  1  0.66515600  0.37448771  0.85316998  1
  O  O195  1  0.67366312  0.87121093  0.18898495  1
  O  O196  1  0.66216926  0.87270230  0.51821901  1
  O  O197  1  0.66598326  0.87489080  0.84438121  1
  O  O198  1  0.00072737  0.12963788  0.13988901  1
  O  O199  1  0.00051485  0.12513612  0.47918977  1
  O  O200  1  0.00918832  0.12440446  0.81273473  1
  O  O201  1  -0.00265638  0.62311862  0.14677924  1
  O  O202  1  0.01185141  0.62789390  0.47310152  1
  O  O203  1  0.01653904  0.62714859  0.81323786  1
  O  O204  1  0.33411394  0.12397157  0.14238697  1
  O  O205  1  0.33176786  0.12331665  0.47501025  1
  O  O206  1  0.33027029  0.11916251  0.81041982  1
  O  O207  1  0.33653925  0.62307895  0.14226842  1
  O  O208  1  0.32328241  0.62803375  0.47133743  1
  O  O209  1  0.32083106  0.63087033  0.81030335  1
  O  O210  1  0.66259142  0.12894493  0.14065968  1
  O  O211  1  0.66991359  0.12019003  0.49586047  1
  O  O212  1  0.65860863  0.11667925  0.80634003  1
  O  O213  1  0.66300696  0.62461332  0.15367840  1
  O  O214  1  0.67108554  0.63033118  0.47289386  1
  O  O215  1  0.66248842  0.63103449  0.81818383  1
  O  O216  1  0.07657949  0.01353203  0.26229413  1
  O  O217  1  0.07356267  0.01143031  0.60224369  1
  O  O218  1  0.08370004  0.01730409  0.92682455  1
  O  O219  1  0.08039086  0.51149998  0.26003687  1
  O  O220  1  0.08322921  0.52797686  0.59187585  1
  O  O221  1  0.08824603  0.51257741  0.91940867  1
  O  O222  1  0.41388070  0.01987854  0.24684388  1
  O  O223  1  0.40894348  0.01402212  0.59314530  1
  O  O224  1  0.41634641  0.02875118  0.91684525  1
  O  O225  1  0.42278188  0.52227580  0.24080072  1
  O  O226  1  0.41098707  0.51996009  0.58334976  1
  O  O227  1  0.41694598  0.52635504  0.91506132  1
  O  O228  1  0.75480736  0.01234157  0.24354115  1
  O  O229  1  0.74201556  0.00010116  0.59238841  1
  O  O230  1  0.74394054  0.01827702  0.92297849  1
  O  O231  1  0.75569724  0.52026450  0.24626290  1
  O  O232  1  0.75171906  0.51858278  0.57826928  1
  O  O233  1  0.75418499  0.51427173  0.91306232  1
  O  O234  1  0.24989480  0.23333136  0.25185340  1
  O  O235  1  0.24921738  0.24129017  0.58544691  1
  O  O236  1  0.25504398  0.23293333  0.92523167  1
  O  O237  1  0.26276236  0.73767647  0.26115673  1
  O  O238  1  0.24507970  0.72888941  0.58681945  1
  O  O239  1  0.25573504  0.73454183  0.92112005  1
  O  O240  1  0.57342345  0.23979486  0.23508237  1
  O  O241  1  0.58331865  0.23861961  0.58480296  1
  O  O242  1  0.57904235  0.22414184  0.91449181  1
  O  O243  1  0.59407355  0.73356420  0.25972548  1
  O  O244  1  0.58353543  0.74587007  0.58928417  1
  O  O245  1  0.57537478  0.74058961  0.91442915  1
  O  O246  1  0.91439563  0.22408976  0.24401807  1
  O  O247  1  0.91540105  0.23373981  0.57963822  1
  O  O248  1  0.92215816  0.23596644  0.92305392  1
  O  O249  1  0.91747871  0.72450837  0.24841048  1
  O  O250  1  0.91735213  0.72149903  0.57756243  1
  O  O251  1  0.91964917  0.72856324  0.91040340  1
  O  O252  1  0.08313648  0.47319705  0.08813206  1
  O  O253  1  0.09049493  0.48041996  0.42393332  1
  O  O254  1  0.08945173  0.48509817  0.75860509  1
  O  O255  1  0.08744052  0.98560234  0.09465204  1
  O  O256  1  0.08695503  0.97557415  0.42526306  1
  O  O257  1  0.09106398  0.97666279  0.76025254  1
  O  O258  1  0.41111069  0.47538688  0.08026312  1
  O  O259  1  0.41231864  0.48645100  0.40604723  1
  O  O260  1  0.41302411  0.50328384  0.75051904  1
  O  O261  1  0.41040666  0.98176248  0.08062626  1
  O  O262  1  0.41685137  0.97562789  0.41301371  1
  O  O263  1  0.41862896  0.97872441  0.75366712  1
  O  O264  1  0.75168440  0.48188461  0.08118300  1
  O  O265  1  0.75329443  0.49820053  0.41144533  1
  O  O266  1  0.75108771  0.50179622  0.75148639  1
  O  O267  1  0.75212787  0.98845790  0.08443619  1
  O  O268  1  0.74814255  0.98008999  0.40588547  1
  O  O269  1  0.75710477  0.97365350  0.74967298  1
  O  O270  1  0.25032299  0.27650392  0.08717927  1
  O  O271  1  0.25218780  0.26992255  0.41615682  1
  O  O272  1  0.24658717  0.26494759  0.75891704  1
  O  O273  1  0.24859974  0.77341284  0.09093382  1
  O  O274  1  0.24766752  0.77904075  0.42064051  1
  O  O275  1  0.25081358  0.77816899  0.75304869  1
  O  O276  1  0.58651704  0.27395326  0.07283420  1
  O  O277  1  0.57740818  0.26242835  0.41643786  1
  O  O278  1  0.58053081  0.25203761  0.74914593  1
  O  O279  1  0.57242755  0.76396822  0.09668975  1
  O  O280  1  0.57719834  0.77486679  0.41664381  1
  O  O281  1  0.57794862  0.77121827  0.74925474  1
  O  O282  1  0.91923746  0.27368564  0.08501347  1
  O  O283  1  0.92895668  0.26083152  0.40420940  1
  O  O284  1  0.91921459  0.24857898  0.74426194  1
  O  O285  1  0.91087017  0.76351594  0.09022082  1
  O  O286  1  0.92510747  0.76470103  0.40746234  1
  O  O287  1  0.91995454  0.75410043  0.74681237  1
  O  O288  1  0.24838047  0.47423114  0.09001709  1
  O  O289  1  0.24664832  0.47698750  0.42386499  1
  O  O290  1  0.24375992  0.48614827  0.76207493  1
  O  O291  1  0.24783162  0.97556973  0.09006548  1
  O  O292  1  0.24965161  0.97590686  0.41662927  1
  O  O293  1  0.25314604  0.97270705  0.75355326  1
  O  O294  1  0.57886387  0.47900941  0.08300296  1
  O  O295  1  0.57402245  0.48603238  0.41814791  1
  O  O296  1  0.57975792  0.50075212  0.75118463  1
  O  O297  1  0.57300151  0.98566134  0.08705673  1
  O  O298  1  0.58162453  0.97781266  0.41398030  1
  O  O299  1  0.57954545  0.97248434  0.74668149  1
  O  O300  1  0.91821626  0.47571445  0.08181810  1
  O  O301  1  0.92700768  0.49191347  0.40399336  1
  O  O302  1  0.92008801  0.50574791  0.74878574  1
  O  O303  1  0.91047545  0.98761145  0.08631652  1
  O  O304  1  0.92587740  0.98340374  0.40373425  1
  O  O305  1  0.92409120  0.99584240  0.73909443  1
  O  O306  1  0.08421279  0.27627569  0.09015749  1
  O  O307  1  0.09035095  0.26943849  0.42193369  1
  O  O308  1  0.09001733  0.26593383  0.76157304  1
  O  O309  1  0.08578735  0.76514778  0.09121529  1
  O  O310  1  0.08777987  0.77526279  0.42313643  1
  O  O311  1  0.08413803  0.77549410  0.75098978  1
  O  O312  1  0.41579528  0.26931815  0.08470115  1
  O  O313  1  0.41668457  0.27026299  0.41524243  1
  O  O314  1  0.41438355  0.24716665  0.75085808  1
  O  O315  1  0.40936789  0.77148569  0.07540709  1
  O  O316  1  0.41314363  0.77016681  0.40685362  1
  O  O317  1  0.41339229  0.77171054  0.75038090  1
  O  O318  1  0.75185653  0.27082193  0.08243288  1
  O  O319  1  0.75541488  0.25556698  0.41332078  1
  O  O320  1  0.74584850  0.25116815  0.74709294  1
  O  O321  1  0.75097094  0.76222802  0.08506287  1
  O  O322  1  0.74405598  0.76778563  0.39921041  1
  O  O323  1  0.74793874  0.77078076  0.73888095  1
  O  O324  1  0.25360055  0.01444485  0.25457849  1
  O  O325  1  0.24796815  0.00497937  0.59065546  1
  O  O326  1  0.25531117  0.01438724  0.92525249  1
  O  O327  1  0.26110151  0.51409166  0.26145171  1
  O  O328  1  0.24717734  0.52588724  0.58909648  1
  O  O329  1  0.25707555  0.51679788  0.92498138  1
  O  O330  1  0.57800048  0.01115314  0.24549542  1
  O  O331  1  0.58012229  0.00265869  0.58819952  1
  O  O332  1  0.57772487  0.02215522  0.91762965  1
  O  O333  1  0.58697028  0.51968248  0.25265567  1
  O  O334  1  0.58236267  0.51239533  0.58353250  1
  O  O335  1  0.57990935  0.51343190  0.91618851  1
  O  O336  1  0.91604960  0.02353766  0.24527641  1
  O  O337  1  0.91320194  0.01741964  0.57818952  1
  O  O338  1  0.92009363  0.01839740  0.92025751  1
  O  O339  1  0.91433296  0.52403455  0.24374172  1
  O  O340  1  0.91622824  0.52467560  0.57734786  1
  O  O341  1  0.91866761  0.51928737  0.91322072  1
  O  O342  1  0.07618596  0.23261829  0.25855729  1
  O  O343  1  0.07703898  0.23350283  0.59413140  1
  O  O344  1  0.08102742  0.23173609  0.92978742  1
  O  O345  1  0.07991085  0.73818898  0.25996610  1
  O  O346  1  0.08357132  0.72423722  0.58982372  1
  O  O347  1  0.09105127  0.74097445  0.91197538  1
  O  O348  1  0.41135127  0.22632942  0.24927460  1
  O  O349  1  0.41231582  0.23254408  0.58594063  1
  O  O350  1  0.41497554  0.22434024  0.91822930  1
  O  O351  1  0.42698949  0.73270496  0.23821845  1
  O  O352  1  0.40894150  0.73424672  0.58755836  1
  O  O353  1  0.41640198  0.72269983  0.90988590  1
  O  O354  1  0.75426669  0.23836575  0.24093519  1
  O  O355  1  0.74659009  0.24039831  0.58400251  1
  O  O356  1  0.73909023  0.23536714  0.92366292  1
  O  O357  1  0.75728618  0.72757095  0.24343972  1
  O  O358  1  0.75518184  0.73434366  0.57465755  1
  O  O359  1  0.75984991  0.73869322  0.90177715  1
