# generated using pymatgen
data_Ba17Sr5La8Pr42Mn72O216
_symmetry_space_group_name_H-M   'P 1'
_cell_length_a   16.67773436
_cell_length_b   15.70428690
_cell_length_c   16.82257933
_cell_angle_alpha   90.00818791
_cell_angle_beta   90.00906894
_cell_angle_gamma   90.00286483
_symmetry_Int_Tables_number   1
_chemical_formula_structural   Ba17Sr5La8Pr42Mn72O216
_chemical_formula_sum   'Ba17 Sr5 La8 Pr42 Mn72 O216'
_cell_volume   4406.03403183
_cell_formula_units_Z   1
loop_
 _symmetry_equiv_pos_site_id
 _symmetry_equiv_pos_as_xyz
  1  'x, y, z'
loop_
 _atom_site_type_symbol
 _atom_site_label
 _atom_site_symmetry_multiplicity
 _atom_site_fract_x
 _atom_site_fract_y
 _atom_site_fract_z
 _atom_site_occupancy
  Ba  Ba0  1  0.50116511  0.62519317  0.83598606  1
  Ba  Ba1  1  0.16855134  0.87762233  0.82964417  1
  Ba  Ba2  1  -0.00317724  0.37537801  0.33247132  1
  Ba  Ba3  1  0.50195091  0.62460296  0.16963147  1
  Ba  Ba4  1  0.50194803  0.12605125  0.16728495  1
  Ba  Ba5  1  0.00215516  0.62286337  0.33303464  1
  Ba  Ba6  1  0.33550620  0.62565281  0.66597690  1
  Ba  Ba7  1  0.16406766  0.87645492  0.16493139  1
  Ba  Ba8  1  0.16691138  0.62749509  0.16556132  1
  Ba  Ba9  1  0.00131584  0.12529645  0.66648107  1
  Ba  Ba10  1  0.00115161  0.62482289  0.66745582  1
  Ba  Ba11  1  0.83574079  0.12461435  0.16591936  1
  Ba  Ba12  1  0.83254490  0.87442229  0.83106633  1
  Ba  Ba13  1  0.33011065  0.37294244  0.00070601  1
  Ba  Ba14  1  0.00017842  0.87541178  0.66664509  1
  Ba  Ba15  1  0.33391709  0.62390836  1.00013589  1
  Ba  Ba16  1  0.66827424  0.12687341  0.66846058  1
  Sr  Sr17  1  0.84039972  0.62515054  0.83189205  1
  Sr  Sr18  1  0.83936542  0.12403513  0.83378539  1
  Sr  Sr19  1  0.65918884  0.37379400  0.67059032  1
  Sr  Sr20  1  0.33110268  0.87477713  0.67001108  1
  Sr  Sr21  1  0.33739012  0.12203652  0.99790397  1
  La  La22  1  0.49162274  0.37627575  0.16688569  1
  La  La23  1  0.00496990  0.12397517  0.99403832  1
  La  La24  1  0.17177171  0.12791868  0.50035561  1
  La  La25  1  0.49297717  0.87716920  0.50342710  1
  La  La26  1  -0.00447461  0.87415628  -0.00152251  1
  La  La27  1  0.67318907  0.62471499  0.99633953  1
  La  La28  1  0.82917972  0.87348467  0.16281800  1
  La  La29  1  0.33548600  0.62748406  0.32812764  1
  Pr  Pr30  1  0.83884299  0.62458768  0.16680605  1
  Pr  Pr31  1  0.00941237  0.12620019  0.32934379  1
  Pr  Pr32  1  0.16211446  0.37695688  0.49726510  1
  Pr  Pr33  1  0.32940684  0.37424232  0.67219836  1
  Pr  Pr34  1  0.82418969  0.37569465  0.82873407  1
  Pr  Pr35  1  0.84279262  0.62246194  0.50362110  1
  Pr  Pr36  1  0.49184273  0.37319701  0.50450622  1
  Pr  Pr37  1  -0.00272196  0.87431041  0.33538455  1
  Pr  Pr38  1  0.67343589  0.62404731  0.66682919  1
  Pr  Pr39  1  0.33630196  0.12299819  0.66720659  1
  Pr  Pr40  1  0.66214602  0.87535056  0.00132430  1
  Pr  Pr41  1  -0.00974802  0.37423289  0.00243755  1
  Pr  Pr42  1  0.66256305  0.87559996  0.67302739  1
  Pr  Pr43  1  0.65849926  0.37376943  0.33617026  1
  Pr  Pr44  1  0.67548538  0.12411394  0.99443792  1
  Pr  Pr45  1  0.84024362  0.12780266  0.50489007  1
  Pr  Pr46  1  0.32966506  0.87628430  0.33300142  1
  Pr  Pr47  1  0.00844491  0.62546618  0.99455645  1
  Pr  Pr48  1  0.33804341  0.12245121  0.32811919  1
  Pr  Pr49  1  0.67419346  0.12521051  0.33222646  1
  Pr  Pr50  1  -0.00986018  0.37461740  0.66638200  1
  Pr  Pr51  1  0.49512970  0.87525002  0.16588497  1
  Pr  Pr52  1  0.67494620  0.62440444  0.33111393  1
  Pr  Pr53  1  0.82644132  0.87525785  0.50163879  1
  Pr  Pr54  1  0.32928548  0.37363293  0.33180293  1
  Pr  Pr55  1  0.16563665  0.87119308  0.50068411  1
  Pr  Pr56  1  0.82332703  0.37553456  0.50121208  1
  Pr  Pr57  1  0.65942916  0.87640845  0.33454742  1
  Pr  Pr58  1  0.48954375  0.37531686  0.83361520  1
  Pr  Pr59  1  0.65930707  0.37482619  0.00237539  1
  Pr  Pr60  1  0.16858369  0.62390654  0.50051389  1
  Pr  Pr61  1  0.15734459  0.37701346  0.15989337  1
  Pr  Pr62  1  0.17347483  0.12646625  0.16497674  1
  Pr  Pr63  1  0.17054808  0.63131551  0.83398479  1
  Pr  Pr64  1  0.50333321  0.12530753  0.50466140  1
  Pr  Pr65  1  0.82462804  0.37606208  0.16558326  1
  Pr  Pr66  1  0.50578433  0.62459023  0.50819874  1
  Pr  Pr67  1  0.33148348  0.87229998  0.00077206  1
  Pr  Pr68  1  0.16295577  0.37675952  0.83038142  1
  Pr  Pr69  1  0.49498591  0.87528527  0.83260665  1
  Pr  Pr70  1  0.50671285  0.12686417  0.84119718  1
  Pr  Pr71  1  0.17082979  0.12152516  0.83157667  1
  Mn  Mn72  1  -0.00066176  0.00163142  0.16627652  1
  Mn  Mn73  1  -0.00083565  -0.00004963  0.49556500  1
  Mn  Mn74  1  0.00095915  0.00174068  0.83215451  1
  Mn  Mn75  1  -0.00278748  0.49804550  0.16380181  1
  Mn  Mn76  1  0.00015179  0.49854011  0.50081836  1
  Mn  Mn77  1  0.00085934  0.49746166  0.83423888  1
  Mn  Mn78  1  0.33413842  0.00047734  0.16490147  1
  Mn  Mn79  1  0.33243937  0.00093392  0.49967183  1
  Mn  Mn80  1  0.33658162  0.00247630  0.83236264  1
  Mn  Mn81  1  0.33174596  0.49963559  0.16858151  1
  Mn  Mn82  1  0.33397229  0.49792146  0.49785261  1
  Mn  Mn83  1  0.33166724  0.49877326  0.83336235  1
  Mn  Mn84  1  0.66690147  0.00010745  0.16823584  1
  Mn  Mn85  1  0.66570683  -0.00071832  0.50029007  1
  Mn  Mn86  1  0.66743162  -0.00050078  0.83479815  1
  Mn  Mn87  1  0.66633482  0.50009823  0.16834078  1
  Mn  Mn88  1  0.66445857  0.49952360  0.49986383  1
  Mn  Mn89  1  0.66713614  0.49930434  0.83458117  1
  Mn  Mn90  1  -0.00124181  0.24839698  0.16438517  1
  Mn  Mn91  1  -0.00049905  0.25120209  0.49806855  1
  Mn  Mn92  1  0.00124688  0.25232340  0.83397535  1
  Mn  Mn93  1  -0.00215284  0.75110396  0.16682053  1
  Mn  Mn94  1  0.00037821  0.75173276  0.49898492  1
  Mn  Mn95  1  0.00051914  0.74864378  0.83235328  1
  Mn  Mn96  1  0.33161653  0.24882140  0.16680987  1
  Mn  Mn97  1  0.33362651  0.24971314  0.50046032  1
  Mn  Mn98  1  0.33308030  0.24862019  0.83370900  1
  Mn  Mn99  1  0.33473633  0.75172744  0.16766511  1
  Mn  Mn100  1  0.33415129  0.75178648  0.49767381  1
  Mn  Mn101  1  0.33425063  0.75147124  0.83287453  1
  Mn  Mn102  1  0.66627846  0.25021159  0.16848072  1
  Mn  Mn103  1  0.66418870  0.25132070  0.49965609  1
  Mn  Mn104  1  0.66725946  0.25113987  0.83603538  1
  Mn  Mn105  1  0.66683118  0.74936504  0.16770678  1
  Mn  Mn106  1  0.66597596  0.74988582  0.50066518  1
  Mn  Mn107  1  0.66759510  0.74895984  0.83419534  1
  Mn  Mn108  1  0.16509293  0.24892166  -0.00268462  1
  Mn  Mn109  1  0.16868462  0.24915004  0.33123424  1
  Mn  Mn110  1  0.16735584  0.25149109  0.66430767  1
  Mn  Mn111  1  0.16639483  0.75188634  -0.00220605  1
  Mn  Mn112  1  0.16701142  0.75221984  0.33396218  1
  Mn  Mn113  1  0.16887234  0.74872130  0.66539872  1
  Mn  Mn114  1  0.50191428  0.24974713  0.00246500  1
  Mn  Mn115  1  0.49954900  0.25062841  0.33697967  1
  Mn  Mn116  1  0.49847516  0.24923648  0.66943619  1
  Mn  Mn117  1  0.50225042  0.75127086  0.00102550  1
  Mn  Mn118  1  0.50047005  0.75143346  0.33761117  1
  Mn  Mn119  1  0.50188777  0.75011314  0.66769429  1
  Mn  Mn120  1  0.83312727  0.25133271  -0.00130577  1
  Mn  Mn121  1  0.83151040  0.25028296  0.33500157  1
  Mn  Mn122  1  0.83135925  0.25103786  0.66691308  1
  Mn  Mn123  1  0.83326226  0.74913251  -0.00028173  1
  Mn  Mn124  1  0.83200438  0.75130344  0.33261766  1
  Mn  Mn125  1  0.83104958  0.74897286  0.66445501  1
  Mn  Mn126  1  0.16738205  0.00100743  -0.00182743  1
  Mn  Mn127  1  0.16586942  0.00107491  0.33261130  1
  Mn  Mn128  1  0.16945692  0.00353872  0.66337634  1
  Mn  Mn129  1  0.16424565  0.49826568  -0.00404756  1
  Mn  Mn130  1  0.16893237  0.49847827  0.33171181  1
  Mn  Mn131  1  0.16670443  0.49773521  0.66448464  1
  Mn  Mn132  1  0.50229821  -0.00026019  0.00069893  1
  Mn  Mn133  1  0.50051280  0.00024247  0.33583453  1
  Mn  Mn134  1  0.49956221  0.00067694  0.66889621  1
  Mn  Mn135  1  0.50148291  0.49951241  0.00162456  1
  Mn  Mn136  1  0.49929760  0.49881108  0.33900738  1
  Mn  Mn137  1  0.50149500  0.49928343  0.66821027  1
  Mn  Mn138  1  0.83379393  -0.00095597  -0.00012211  1
  Mn  Mn139  1  0.83291428  -0.00167862  0.33480337  1
  Mn  Mn140  1  0.83207934  0.00138059  0.66556426  1
  Mn  Mn141  1  0.83303239  0.49874735  -0.00165817  1
  Mn  Mn142  1  0.83043031  0.49866443  0.33318247  1
  Mn  Mn143  1  0.83034283  0.49847890  0.66663514  1
  O  O144  1  0.16058397  0.12508215  0.02179798  1
  O  O145  1  0.17179458  0.12451280  0.35618544  1
  O  O146  1  0.17215394  0.13051373  0.68638694  1
  O  O147  1  0.16066695  0.62417636  0.00730951  1
  O  O148  1  0.17893880  0.62816304  0.35537317  1
  O  O149  1  0.16792796  0.61636178  0.68845442  1
  O  O150  1  0.50565924  0.12537555  0.01051123  1
  O  O151  1  0.49300832  0.12529214  0.36172558  1
  O  O152  1  0.49334345  0.12595547  0.69447291  1
  O  O153  1  0.50713144  0.62661655  0.01173864  1
  O  O154  1  0.49125384  0.62354437  0.36394172  1
  O  O155  1  0.50681711  0.62562154  0.67812934  1
  O  O156  1  0.83258387  0.12508720  0.01005323  1
  O  O157  1  0.82447519  0.12389646  0.36228464  1
  O  O158  1  0.83448327  0.12995499  0.67876317  1
  O  O159  1  0.82967178  0.62275507  0.02455919  1
  O  O160  1  0.82485118  0.62819188  0.36070779  1
  O  O161  1  0.82784760  0.62196177  0.67916928  1
  O  O162  1  0.17443559  0.36831647  0.30508964  1
  O  O163  1  0.17681026  0.37308458  0.63854215  1
  O  O164  1  0.15856522  0.37161685  0.97566566  1
  O  O165  1  0.16001513  0.87936503  0.32393491  1
  O  O166  1  0.17238663  0.88102113  0.64408696  1
  O  O167  1  0.16783151  0.87814354  0.98772860  1
  O  O168  1  0.50733392  0.37304180  0.31036627  1
  O  O169  1  0.49478900  0.37297961  0.64786338  1
  O  O170  1  0.50806416  0.37276645  0.97993340  1
  O  O171  1  0.50680419  0.87840549  0.30995590  1
  O  O172  1  0.50651537  0.87421603  0.64585341  1
  O  O173  1  0.50805962  0.87673558  0.97773101  1
  O  O174  1  0.82367998  0.37327588  0.31004950  1
  O  O175  1  0.82977248  0.37462376  0.64701656  1
  O  O176  1  0.83466972  0.37619260  0.97173077  1
  O  O177  1  0.83363426  0.87329865  0.30666630  1
  O  O178  1  0.82017921  0.87318207  0.64638177  1
  O  O179  1  0.83367996  0.87381645  0.98833472  1
  O  O180  1  0.00675778  0.37204890  0.17592115  1
  O  O181  1  0.01158714  0.37534742  0.51838305  1
  O  O182  1  0.01077083  0.37486009  0.85983647  1
  O  O183  1  -0.00628323  0.88023577  0.19052333  1
  O  O184  1  0.01455224  0.87717554  0.50699938  1
  O  O185  1  0.00159494  0.87389761  0.85200676  1
  O  O186  1  0.33096393  0.37190966  0.18662379  1
  O  O187  1  0.33805578  0.37107454  0.52960674  1
  O  O188  1  0.33314956  0.37142309  0.84373564  1
  O  O189  1  0.33994380  0.87754149  0.18690930  1
  O  O190  1  0.33457305  0.88101214  0.52266859  1
  O  O191  1  0.33899891  0.88109512  0.85508197  1
  O  O192  1  0.67424327  0.37438282  0.19340884  1
  O  O193  1  0.67372446  0.37626339  0.52123070  1
  O  O194  1  0.67522285  0.37540179  0.85824252  1
  O  O195  1  0.67063187  0.87184577  0.19190023  1
  O  O196  1  0.67397038  0.86992981  0.52941525  1
  O  O197  1  0.66390481  0.87449769  0.85563308  1
  O  O198  1  0.00134706  0.12601398  0.14106172  1
  O  O199  1  -0.01247814  0.12538670  0.47555430  1
  O  O200  1  -0.00110687  0.13036075  0.82433579  1
  O  O201  1  -0.01016990  0.62006910  0.14177638  1
  O  O202  1  -0.00741963  0.62417319  0.49089701  1
  O  O203  1  0.00024413  0.62067071  0.82454499  1
  O  O204  1  0.32831640  0.12406334  0.14945806  1
  O  O205  1  0.33204450  0.12608957  0.46988758  1
  O  O206  1  0.34029037  0.12707152  0.81153493  1
  O  O207  1  0.33451131  0.62755479  0.16249220  1
  O  O208  1  0.33222304  0.62270784  0.47237544  1
  O  O209  1  0.32625383  0.62180112  0.82482396  1
  O  O210  1  0.66585225  0.12849609  0.14099656  1
  O  O211  1  0.65483123  0.12840971  0.47457156  1
  O  O212  1  0.65699785  0.12527846  0.82609510  1
  O  O213  1  0.66938435  0.62575991  0.14151780  1
  O  O214  1  0.65350724  0.62573854  0.47239142  1
  O  O215  1  0.66590357  0.62325044  0.81214968  1
  O  O216  1  0.08902762  0.02642018  0.24084972  1
  O  O217  1  0.09320509  0.01650499  0.56565366  1
  O  O218  1  0.08872465  0.02146540  0.91200807  1
  O  O219  1  0.08762684  0.50443405  0.24130680  1
  O  O220  1  0.09199018  0.51304559  0.57564205  1
  O  O221  1  0.09092841  0.51836718  0.90542791  1
  O  O222  1  0.41650508  0.01266838  0.25419343  1
  O  O223  1  0.41719350  0.02394892  0.57925587  1
  O  O224  1  0.42633176  0.01582943  0.91001196  1
  O  O225  1  0.42045563  0.50613065  0.25755130  1
  O  O226  1  0.42646126  0.51300889  0.57041880  1
  O  O227  1  0.42136549  0.50003078  0.91209169  1
  O  O228  1  0.75165474  0.01375417  0.25235097  1
  O  O229  1  0.75566790  0.01754586  0.56981941  1
  O  O230  1  0.75212275  0.01577007  0.91524568  1
  O  O231  1  0.75456531  0.52339014  0.24276410  1
  O  O232  1  0.75371843  0.52142087  0.56969417  1
  O  O233  1  0.75982689  0.51708415  0.90942220  1
  O  O234  1  0.25504339  0.22492568  0.25593185  1
  O  O235  1  0.25837657  0.22749252  0.58779499  1
  O  O236  1  0.25358674  0.22787024  0.91774219  1
  O  O237  1  0.25718152  0.74637000  0.25879939  1
  O  O238  1  0.24787197  0.73513847  0.57317980  1
  O  O239  1  0.24780953  0.74218063  0.91349452  1
  O  O240  1  0.59079608  0.23333815  0.26484808  1
  O  O241  1  0.57950963  0.23848283  0.58318385  1
  O  O242  1  0.59579076  0.23659691  0.93065494  1
  O  O243  1  0.59298924  0.73461390  0.26670270  1
  O  O244  1  0.59250599  0.73025439  0.59048152  1
  O  O245  1  0.59568055  0.73928117  0.92941814  1
  O  O246  1  0.92316478  0.23269911  0.26230659  1
  O  O247  1  0.92013323  0.24740779  0.58624405  1
  O  O248  1  0.92751784  0.24105384  0.92909529  1
  O  O249  1  0.91262855  0.73340753  0.24884966  1
  O  O250  1  0.91026503  0.74595840  0.57680685  1
  O  O251  1  0.92517801  0.73574883  0.92780495  1
  O  O252  1  0.07224237  0.48410837  0.07050982  1
  O  O253  1  0.08926350  0.48997011  0.41666691  1
  O  O254  1  0.07998593  0.47192340  0.74161327  1
  O  O255  1  0.07150609  0.98690935  0.07384826  1
  O  O256  1  0.06845870  0.99493964  0.40012981  1
  O  O257  1  0.08791609  0.99878921  0.74634397  1
  O  O258  1  0.41573492  0.48601483  0.08938609  1
  O  O259  1  0.41142241  0.46946281  0.41378314  1
  O  O260  1  0.41125790  0.48113745  0.74563380  1
  O  O261  1  0.41704922  0.97770660  0.07830709  1
  O  O262  1  0.41255329  0.97864958  0.41475892  1
  O  O263  1  0.41859253  0.97992719  0.74918267  1
  O  O264  1  0.74551623  0.47769948  0.07474244  1
  O  O265  1  0.73738701  0.48290174  0.40832265  1
  O  O266  1  0.74310545  0.48362569  0.74485577  1
  O  O267  1  0.74465734  0.98209902  0.07856432  1
  O  O268  1  0.74382871  0.97647346  0.41079696  1
  O  O269  1  0.74038744  0.98712542  0.74357360  1
  O  O270  1  0.23400770  0.26235839  0.09191864  1
  O  O271  1  0.24705035  0.27298628  0.42206337  1
  O  O272  1  0.24307383  0.26862990  0.75258623  1
  O  O273  1  0.25380363  0.76425610  0.07823209  1
  O  O274  1  0.24989169  0.77558178  0.41713575  1
  O  O275  1  0.25222254  0.75799351  0.74618171  1
  O  O276  1  0.57953073  0.27573891  0.09364833  1
  O  O277  1  0.57555714  0.27446328  0.42446269  1
  O  O278  1  0.57397161  0.26591194  0.76564328  1
  O  O279  1  0.57986160  0.77439459  0.09183631  1
  O  O280  1  0.57636035  0.77598879  0.42819922  1
  O  O281  1  0.57949806  0.77233287  0.75542890  1
  O  O282  1  0.90563940  0.27398845  0.08809269  1
  O  O283  1  0.90072153  0.26854451  0.42720900  1
  O  O284  1  0.91438262  0.27570732  0.75731845  1
  O  O285  1  0.90813957  0.76727758  0.08919997  1
  O  O286  1  0.91273937  0.77262807  0.41575762  1
  O  O287  1  0.91291781  0.75453577  0.75132826  1
  O  O288  1  0.23599152  0.48343756  0.08785629  1
  O  O289  1  0.25037603  0.47211506  0.41904759  1
  O  O290  1  0.24610349  0.47654084  0.74859791  1
  O  O291  1  0.25353449  0.98894638  0.07741208  1
  O  O292  1  0.24553970  0.97961258  0.42184845  1
  O  O293  1  0.25764745  0.99867568  0.74598235  1
  O  O294  1  0.57997790  0.47624358  0.09479555  1
  O  O295  1  0.57263866  0.47603439  0.43003928  1
  O  O296  1  0.57723264  0.47725538  0.76282485  1
  O  O297  1  0.58016840  0.97607047  0.08976294  1
  O  O298  1  0.57885639  0.97701733  0.42332773  1
  O  O299  1  0.57995032  0.98044941  0.75787694  1
  O  O300  1  0.90577893  0.47530594  0.08850274  1
  O  O301  1  0.90450379  0.48566371  0.42556573  1
  O  O302  1  0.91352552  0.47581368  0.75832546  1
  O  O303  1  0.91060227  0.98015870  0.09080080  1
  O  O304  1  0.90776288  0.97300969  0.42100886  1
  O  O305  1  0.91455060  0.99463997  0.75248161  1
  O  O306  1  0.07460952  0.26572087  0.07011773  1
  O  O307  1  0.08270527  0.25716939  0.41066877  1
  O  O308  1  0.08029855  0.27502145  0.74009475  1
  O  O309  1  0.07325499  0.76105727  0.07431786  1
  O  O310  1  0.08467138  0.76136002  0.41608878  1
  O  O311  1  0.08575120  0.75275121  0.75092200  1
  O  O312  1  0.41704895  0.26202132  0.08548777  1
  O  O313  1  0.41273900  0.27429904  0.41679134  1
  O  O314  1  0.40903321  0.26905447  0.74378785  1
  O  O315  1  0.41761984  0.77360425  0.08176600  1
  O  O316  1  0.41189511  0.77665920  0.41172760  1
  O  O317  1  0.41905814  0.76780520  0.74958555  1
  O  O318  1  0.74460866  0.27196051  0.07697963  1
  O  O319  1  0.73889558  0.26866483  0.40936252  1
  O  O320  1  0.74633044  0.26730874  0.75002265  1
  O  O321  1  0.74378728  0.76854233  0.07763904  1
  O  O322  1  0.74258262  0.77313400  0.41107808  1
  O  O323  1  0.73790595  0.75927752  0.73635727  1
  O  O324  1  0.25306520  0.01615534  0.25409862  1
  O  O325  1  0.25416134  0.02804418  0.58208165  1
  O  O326  1  0.25296212  0.02098549  0.91201544  1
  O  O327  1  0.25885571  0.51186877  0.25990441  1
  O  O328  1  0.24984001  0.51480175  0.57616401  1
  O  O329  1  0.24562376  0.50627338  0.91135684  1
  O  O330  1  0.59129710  0.01675406  0.26281827  1
  O  O331  1  0.57874975  0.01382492  0.58387762  1
  O  O332  1  0.59135591  0.01533424  0.92588994  1
  O  O333  1  0.59281606  0.51530381  0.26905651  1
  O  O334  1  0.59250168  0.51701684  0.59060233  1
  O  O335  1  0.59947119  0.50982450  0.92949562  1
  O  O336  1  0.92740925  0.01748606  0.26443674  1
  O  O337  1  0.91581589  0.00736769  0.57719074  1
  O  O338  1  0.92580074  0.00905653  0.92754207  1
  O  O339  1  0.91272280  0.51051390  0.24668418  1
  O  O340  1  0.91753239  0.50077888  0.58644245  1
  O  O341  1  0.92726481  0.51218577  0.93078225  1
  O  O342  1  0.09219703  0.22688395  0.24276957  1
  O  O343  1  0.09576394  0.23672710  0.57220165  1
  O  O344  1  0.09389282  0.22883420  0.90646637  1
  O  O345  1  0.08191031  0.74454531  0.25128191  1
  O  O346  1  0.09114753  0.73670323  0.57626047  1
  O  O347  1  0.08548182  0.73319042  0.91390322  1
  O  O348  1  0.41568179  0.23897817  0.25812880  1
  O  O349  1  0.41862533  0.22537676  0.57797789  1
  O  O350  1  0.42979343  0.23879394  0.90833089  1
  O  O351  1  0.42051945  0.74376942  0.25310891  1
  O  O352  1  0.42751938  0.73867492  0.57269865  1
  O  O353  1  0.41942855  0.75072044  0.91783182  1
  O  O354  1  0.75000502  0.23198072  0.25025413  1
  O  O355  1  0.75636127  0.23584579  0.56859721  1
  O  O356  1  0.75600543  0.23302321  0.91264088  1
  O  O357  1  0.75429654  0.72670809  0.24462364  1
  O  O358  1  0.75237329  0.72172797  0.57264399  1
  O  O359  1  0.75563505  0.73002662  0.91403181  1
