# generated using pymatgen
data_Ba17Sr5La8Pr42Mn72O216
_symmetry_space_group_name_H-M   'P 1'
_cell_length_a   16.67284544
_cell_length_b   15.70025182
_cell_length_c   16.81587187
_cell_angle_alpha   89.98862410
_cell_angle_beta   90.02436031
_cell_angle_gamma   90.00053002
_symmetry_Int_Tables_number   1
_chemical_formula_structural   Ba17Sr5La8Pr42Mn72O216
_chemical_formula_sum   'Ba17 Sr5 La8 Pr42 Mn72 O216'
_cell_volume   4401.85450814
_cell_formula_units_Z   1
loop_
 _symmetry_equiv_pos_site_id
 _symmetry_equiv_pos_as_xyz
  1  'x, y, z'
loop_
 _atom_site_type_symbol
 _atom_site_label
 _atom_site_symmetry_multiplicity
 _atom_site_fract_x
 _atom_site_fract_y
 _atom_site_fract_z
 _atom_site_occupancy
  Ba  Ba0  1  0.66617614  0.37431129  0.67010190  1
  Ba  Ba1  1  0.16805810  0.62243874  0.83420127  1
  Ba  Ba2  1  0.33380991  0.12567505  0.66659568  1
  Ba  Ba3  1  0.16517369  0.12436221  0.50061004  1
  Ba  Ba4  1  0.16878472  0.12668693  0.83422925  1
  Ba  Ba5  1  0.83573525  0.62615145  0.49907213  1
  Ba  Ba6  1  -0.00041219  0.87508211  -0.00085812  1
  Ba  Ba7  1  -0.00091063  0.12631607  0.33088663  1
  Ba  Ba8  1  0.16415116  0.87564832  0.49991546  1
  Ba  Ba9  1  0.66597723  0.37459508  0.33612529  1
  Ba  Ba10  1  0.00057570  0.12471129  0.99720265  1
  Ba  Ba11  1  0.33355771  0.62502456  0.33277751  1
  Ba  Ba12  1  0.49918660  0.12481134  0.16720279  1
  Ba  Ba13  1  0.49847148  0.37446737  0.16793109  1
  Ba  Ba14  1  0.66570504  0.87622418  0.67118083  1
  Ba  Ba15  1  0.83267353  0.37594356  0.83211609  1
  Ba  Ba16  1  0.66470891  0.87341867  0.00374832  1
  Sr  Sr17  1  0.33447263  0.37494270  0.33410156  1
  Sr  Sr18  1  0.50735602  0.62571979  0.83402138  1
  Sr  Sr19  1  0.66749892  0.12412898  0.66887841  1
  Sr  Sr20  1  0.66766398  0.62700317  1.00202351  1
  Sr  Sr21  1  0.83236802  0.87623267  0.16276728  1
  La  La22  1  -0.00104025  0.87380016  0.66691190  1
  La  La23  1  0.00094831  0.37622454  0.66413261  1
  La  La24  1  0.83057622  0.11959866  0.16538500  1
  La  La25  1  -0.00284376  0.62704303  0.99643579  1
  La  La26  1  0.34111196  0.62214868  0.99634037  1
  La  La27  1  0.00298915  0.62193921  0.66436250  1
  La  La28  1  0.32563386  0.87611535  0.66782391  1
  La  La29  1  0.65976967  0.87634622  0.33670090  1
  Pr  Pr30  1  0.49045394  0.87234325  0.16237973  1
  Pr  Pr31  1  0.32998749  0.12397610  0.32996380  1
  Pr  Pr32  1  0.49030346  0.87108911  0.83104015  1
  Pr  Pr33  1  0.32737112  0.87367911  -0.00166700  1
  Pr  Pr34  1  0.32949103  0.37645622  0.00155871  1
  Pr  Pr35  1  0.01104614  0.37700657  0.00039379  1
  Pr  Pr36  1  0.49729722  0.37674997  0.83309268  1
  Pr  Pr37  1  0.16391652  0.37268298  0.83232293  1
  Pr  Pr38  1  0.49319050  0.87517820  0.50041917  1
  Pr  Pr39  1  0.83727627  0.37397653  0.15904756  1
  Pr  Pr40  1  0.67578717  0.62546958  0.66883303  1
  Pr  Pr41  1  0.50692673  0.12286702  0.83645892  1
  Pr  Pr42  1  0.16447522  0.62449804  0.16846753  1
  Pr  Pr43  1  0.17170840  0.37549914  0.16982129  1
  Pr  Pr44  1  0.66631199  0.38036864  0.00621317  1
  Pr  Pr45  1  0.66823672  0.12648348  0.33231657  1
  Pr  Pr46  1  0.82937181  0.12507836  0.83251081  1
  Pr  Pr47  1  0.17250718  0.37157617  0.49653398  1
  Pr  Pr48  1  0.82871752  0.63187610  0.16804924  1
  Pr  Pr49  1  0.16220192  0.87421670  0.16705122  1
  Pr  Pr50  1  0.67096078  0.12567033  1.00197355  1
  Pr  Pr51  1  0.82872242  0.62609330  0.83447149  1
  Pr  Pr52  1  0.15834729  0.87650754  0.82873357  1
  Pr  Pr53  1  0.66908500  0.62474682  0.33256073  1
  Pr  Pr54  1  0.33965660  0.12872301  0.99263026  1
  Pr  Pr55  1  0.17289013  0.62118137  0.50575342  1
  Pr  Pr56  1  0.33051051  0.37354445  0.66563050  1
  Pr  Pr57  1  0.00374911  0.37522920  0.33392798  1
  Pr  Pr58  1  0.49656115  0.37223855  0.49413695  1
  Pr  Pr59  1  0.16428872  0.12394071  0.16893023  1
  Pr  Pr60  1  0.32685026  0.87616006  0.33416118  1
  Pr  Pr61  1  0.83129088  0.87736224  0.83331004  1
  Pr  Pr62  1  0.51067365  0.62183482  0.50411506  1
  Pr  Pr63  1  0.82911470  0.12504215  0.50082913  1
  Pr  Pr64  1  -0.00921742  0.87765725  0.33436118  1
  Pr  Pr65  1  0.50900829  0.62517312  0.16903107  1
  Pr  Pr66  1  0.50410029  0.12673723  0.50341986  1
  Pr  Pr67  1  0.83552935  0.37419942  0.49451318  1
  Pr  Pr68  1  0.82733428  0.87625764  0.49701320  1
  Pr  Pr69  1  0.34160523  0.62644324  0.66051132  1
  Pr  Pr70  1  -0.00139459  0.62743135  0.33074008  1
  Pr  Pr71  1  -0.00371100  0.12698587  0.66147596  1
  Mn  Mn72  1  -0.00048327  0.00004018  0.16609448  1
  Mn  Mn73  1  -0.00449503  -0.00063417  0.50001075  1
  Mn  Mn74  1  -0.00108557  0.00015291  0.82998837  1
  Mn  Mn75  1  -0.00082037  0.50032383  0.16575894  1
  Mn  Mn76  1  0.00299121  0.49984689  0.49741575  1
  Mn  Mn77  1  -0.00110339  0.50053755  0.83286284  1
  Mn  Mn78  1  0.33029238  -0.00035063  0.16426300  1
  Mn  Mn79  1  0.33488983  -0.00051761  0.49849153  1
  Mn  Mn80  1  0.33413738  -0.00113225  0.83436892  1
  Mn  Mn81  1  0.33369124  0.50123524  0.16537700  1
  Mn  Mn82  1  0.33628667  0.50044757  0.50046585  1
  Mn  Mn83  1  0.33632872  0.49965854  0.83148887  1
  Mn  Mn84  1  0.66413821  -0.00052088  0.16928093  1
  Mn  Mn85  1  0.66405607  -0.00099471  0.50174163  1
  Mn  Mn86  1  0.66576090  -0.00027388  0.83666267  1
  Mn  Mn87  1  0.66887142  0.50095138  0.16842147  1
  Mn  Mn88  1  0.66892152  0.49949942  0.50306539  1
  Mn  Mn89  1  0.66554827  0.50154791  0.83701736  1
  Mn  Mn90  1  -0.00000159  0.25276328  0.16497950  1
  Mn  Mn91  1  -0.00252379  0.25096379  0.49826637  1
  Mn  Mn92  1  -0.00101142  0.25125699  0.83088310  1
  Mn  Mn93  1  0.00009314  0.74851971  0.16579232  1
  Mn  Mn94  1  0.00095059  0.74975849  0.49882021  1
  Mn  Mn95  1  -0.00177811  0.74845077  0.83187306  1
  Mn  Mn96  1  0.33162922  0.25007535  0.16510048  1
  Mn  Mn97  1  0.33527002  0.24917371  0.49833413  1
  Mn  Mn98  1  0.33682537  0.25277445  0.83290541  1
  Mn  Mn99  1  0.33140691  0.74893769  0.16451692  1
  Mn  Mn100  1  0.33460033  0.75024327  0.49862065  1
  Mn  Mn101  1  0.33265608  0.74667767  0.83232613  1
  Mn  Mn102  1  0.66875111  0.25009435  0.16780650  1
  Mn  Mn103  1  0.66730924  0.24904934  0.50337477  1
  Mn  Mn104  1  0.66569542  0.24869651  0.83646079  1
  Mn  Mn105  1  0.66542386  0.75152947  0.16964648  1
  Mn  Mn106  1  0.66541166  0.75121836  0.50163704  1
  Mn  Mn107  1  0.66590217  0.75075167  0.83618162  1
  Mn  Mn108  1  0.16946743  0.25144349  0.00175352  1
  Mn  Mn109  1  0.16728966  0.25102327  0.33244811  1
  Mn  Mn110  1  0.16482942  0.25141267  0.66577260  1
  Mn  Mn111  1  0.16845158  0.74899947  0.00046457  1
  Mn  Mn112  1  0.16358968  0.74859887  0.33351857  1
  Mn  Mn113  1  0.16778335  0.74763953  0.66755709  1
  Mn  Mn114  1  0.50220731  0.25031061  -0.00191487  1
  Mn  Mn115  1  0.49769944  0.24855703  0.33544456  1
  Mn  Mn116  1  0.50041692  0.25046043  0.66725274  1
  Mn  Mn117  1  0.49879514  0.74973078  -0.00101215  1
  Mn  Mn118  1  0.49934711  0.75085856  0.33306334  1
  Mn  Mn119  1  0.49999712  0.74923974  0.66691866  1
  Mn  Mn120  1  0.83435334  0.25170881  -0.00160634  1
  Mn  Mn121  1  0.83372995  0.25061835  0.33038664  1
  Mn  Mn122  1  0.83277116  0.24928893  0.66421379  1
  Mn  Mn123  1  0.83247263  0.74903674  0.00119864  1
  Mn  Mn124  1  0.83150668  0.75161533  0.33255584  1
  Mn  Mn125  1  0.83562902  0.75077647  0.66759822  1
  Mn  Mn126  1  0.16892140  -0.00132963  0.00049188  1
  Mn  Mn127  1  0.16460370  -0.00029955  0.33144858  1
  Mn  Mn128  1  0.16411373  0.00050476  0.66651566  1
  Mn  Mn129  1  0.16890616  0.50174079  0.00231750  1
  Mn  Mn130  1  0.16537184  0.50088187  0.33539231  1
  Mn  Mn131  1  0.16993047  0.49809776  0.66759310  1
  Mn  Mn132  1  0.49885140  -0.00125175  0.00044431  1
  Mn  Mn133  1  0.49758126  -0.00114819  0.33400261  1
  Mn  Mn134  1  0.49908048  -0.00006159  0.66782989  1
  Mn  Mn135  1  0.50228647  0.50070800  -0.00151843  1
  Mn  Mn136  1  0.49951305  0.50148191  0.33556796  1
  Mn  Mn137  1  0.50074141  0.50039215  0.66774334  1
  Mn  Mn138  1  0.83241032  0.00038203  -0.00006050  1
  Mn  Mn139  1  0.83019361  -0.00101181  0.33249784  1
  Mn  Mn140  1  0.83409701  0.00001053  0.66565059  1
  Mn  Mn141  1  0.83400916  0.50137186  -0.00005335  1
  Mn  Mn142  1  0.83499261  0.50081590  0.32966561  1
  Mn  Mn143  1  0.83522115  0.49996939  0.66516556  1
  O  O144  1  0.17617070  0.12844730  0.02363329  1
  O  O145  1  0.16985091  0.12596569  0.34291291  1
  O  O146  1  0.15831224  0.12820035  0.67577463  1
  O  O147  1  0.16781087  0.62416910  0.02523309  1
  O  O148  1  0.15619571  0.62390230  0.36181528  1
  O  O149  1  0.17263358  0.62156292  0.67706568  1
  O  O150  1  0.48923916  0.12380090  0.01137514  1
  O  O151  1  0.49092178  0.12127012  0.35840994  1
  O  O152  1  0.49942510  0.12437955  0.69198022  1
  O  O153  1  0.49385291  0.62722997  0.02419120  1
  O  O154  1  0.50503313  0.62855612  0.35893775  1
  O  O155  1  0.49016183  0.62509415  0.68664008  1
  O  O156  1  0.83155375  0.12767835  0.01997078  1
  O  O157  1  0.82741409  0.12105574  0.35684242  1
  O  O158  1  0.84372586  0.12388892  0.68756346  1
  O  O159  1  0.84200193  0.62297496  0.02412032  1
  O  O160  1  0.83514776  0.62691867  0.34512226  1
  O  O161  1  0.83767586  0.62715621  0.68794086  1
  O  O162  1  0.16701750  0.37734249  0.31318875  1
  O  O163  1  0.16545790  0.37636615  0.64207025  1
  O  O164  1  0.16960400  0.37872643  0.97663669  1
  O  O165  1  0.17190519  0.87304948  0.31102863  1
  O  O166  1  0.16310525  0.87198278  0.65946496  1
  O  O167  1  0.17412097  0.86998137  0.97254527  1
  O  O168  1  0.49864477  0.37528527  0.32685049  1
  O  O169  1  0.49726370  0.37800210  0.63921061  1
  O  O170  1  0.50959304  0.37387344  0.97764439  1
  O  O171  1  0.50545293  0.87440006  0.30483959  1
  O  O172  1  0.49644934  0.87327140  0.64438437  1
  O  O173  1  0.49344514  0.87405691  0.97648002  1
  O  O174  1  0.83969294  0.37994171  0.30474738  1
  O  O175  1  0.83545536  0.37415866  0.63980191  1
  O  O176  1  0.81980950  0.37686112  0.98813644  1
  O  O177  1  0.83374470  0.87455865  0.31203060  1
  O  O178  1  0.83857460  0.87494377  0.64090230  1
  O  O179  1  0.83153457  0.87423681  0.97940820  1
  O  O180  1  -0.00868465  0.37868196  0.19152453  1
  O  O181  1  -0.00810484  0.37611516  0.51946257  1
  O  O182  1  0.00482436  0.37926044  0.85570327  1
  O  O183  1  0.00563181  0.86974813  0.18986671  1
  O  O184  1  -0.01080810  0.87595386  0.52165668  1
  O  O185  1  0.00713472  0.87200653  0.84174177  1
  O  O186  1  0.32789706  0.37411848  0.18543195  1
  O  O187  1  0.33960497  0.37701829  0.52024027  1
  O  O188  1  0.34246613  0.37720255  0.85856417  1
  O  O189  1  0.33689746  0.87200440  0.19186545  1
  O  O190  1  0.34065979  0.87420616  0.52133147  1
  O  O191  1  0.33822557  0.87186674  0.85462619  1
  O  O192  1  0.67718936  0.37518044  0.17701468  1
  O  O193  1  0.67144108  0.37268578  0.51349280  1
  O  O194  1  0.66180853  0.37256726  0.85996670  1
  O  O195  1  0.66374731  0.87370858  0.19148832  1
  O  O196  1  0.66717415  0.87441478  0.51528723  1
  O  O197  1  0.67884167  0.87570295  0.84717797  1
  O  O198  1  0.00814764  0.13068843  0.15451372  1
  O  O199  1  -0.00729835  0.12534060  0.48677590  1
  O  O200  1  -0.00777944  0.12352217  0.80818066  1
  O  O201  1  0.00714134  0.62177282  0.13973461  1
  O  O202  1  0.00967035  0.62220437  0.47412205  1
  O  O203  1  -0.00830590  0.62423336  0.80971415  1
  O  O204  1  0.32341411  0.12462137  0.13766262  1
  O  O205  1  0.33956008  0.12305666  0.47547740  1
  O  O206  1  0.34011510  0.12672474  0.82450338  1
  O  O207  1  0.32387122  0.62793914  0.14009222  1
  O  O208  1  0.32522279  0.62532951  0.49106590  1
  O  O209  1  0.33374478  0.62161013  0.80440125  1
  O  O210  1  0.67001953  0.12572049  0.14774974  1
  O  O211  1  0.66642829  0.12161537  0.47581835  1
  O  O212  1  0.66231159  0.12356821  0.81727751  1
  O  O213  1  0.66303280  0.62675961  0.15277538  1
  O  O214  1  0.66172675  0.62889244  0.47668696  1
  O  O215  1  0.66593549  0.62835158  0.81299923  1
  O  O216  1  0.08862109  0.00846276  0.24463814  1
  O  O217  1  0.07286405  0.00871985  0.58659006  1
  O  O218  1  0.08863827  0.00607878  0.91340128  1
  O  O219  1  0.07449795  0.51900126  0.25542219  1
  O  O220  1  0.09015384  0.51590044  0.57886833  1
  O  O221  1  0.07841038  0.51413864  0.92863987  1
  O  O222  1  0.40930835  0.01307955  0.25254563  1
  O  O223  1  0.42460432  0.01415027  0.57234618  1
  O  O224  1  0.42588641  0.01293994  0.90769980  1
  O  O225  1  0.42127532  0.51919022  0.23899531  1
  O  O226  1  0.42395250  0.52170500  0.57834533  1
  O  O227  1  0.42403905  0.51590705  0.90771960  1
  O  O228  1  0.74923576  0.02078221  0.25192295  1
  O  O229  1  0.75446741  0.01502163  0.57729969  1
  O  O230  1  0.75027831  0.02346568  0.91696653  1
  O  O231  1  0.74918820  0.52414934  0.25154238  1
  O  O232  1  0.74926826  0.51804226  0.58755821  1
  O  O233  1  0.75271167  0.52158072  0.91884711  1
  O  O234  1  0.24661995  0.22961091  0.24517836  1
  O  O235  1  0.25125302  0.24847089  0.58072309  1
  O  O236  1  0.26250664  0.24231219  0.92544980  1
  O  O237  1  0.24339159  0.73427684  0.24546429  1
  O  O238  1  0.25963093  0.73831100  0.59444039  1
  O  O239  1  0.25988109  0.73114727  0.92671533  1
  O  O240  1  0.58513588  0.23393997  0.25875598  1
  O  O241  1  0.58396294  0.23018185  0.58736195  1
  O  O242  1  0.58645004  0.22435440  0.92129746  1
  O  O243  1  0.58854900  0.72827383  0.26028668  1
  O  O244  1  0.58774657  0.72593117  0.59045880  1
  O  O245  1  0.58559434  0.73835674  0.92276604  1
  O  O246  1  0.90658234  0.23614148  0.23485948  1
  O  O247  1  0.90677395  0.23419009  0.57082942  1
  O  O248  1  0.90998452  0.23586256  0.90572885  1
  O  O249  1  0.91943404  0.73096963  0.25060398  1
  O  O250  1  0.93108360  0.73336620  0.59343706  1
  O  O251  1  0.91527227  0.73106226  0.91452549  1
  O  O252  1  0.08754473  0.47558264  0.09250095  1
  O  O253  1  0.08490339  0.47146243  0.41837357  1
  O  O254  1  0.08546620  0.48168645  0.74994497  1
  O  O255  1  0.08868686  0.98693243  0.08640808  1
  O  O256  1  0.07273506  0.98297513  0.40991025  1
  O  O257  1  0.08074722  0.98510853  0.74888086  1
  O  O258  1  0.41226093  0.48579989  0.06880729  1
  O  O259  1  0.41547375  0.48690551  0.41796386  1
  O  O260  1  0.41113358  0.47593504  0.74155136  1
  O  O261  1  0.40917785  0.97796005  0.07808446  1
  O  O262  1  0.41460310  0.97134947  0.41124951  1
  O  O263  1  0.40942207  0.97628219  0.74583650  1
  O  O264  1  0.75693858  0.49005279  0.08835333  1
  O  O265  1  0.75879270  0.48660358  0.41894068  1
  O  O266  1  0.74736527  0.49902688  0.75303559  1
  O  O267  1  0.74846842  0.99422414  0.08483539  1
  O  O268  1  0.74414757  0.97864111  0.41347065  1
  O  O269  1  0.75852621  0.99165177  0.75451758  1
  O  O270  1  0.24768501  0.27619314  0.08518880  1
  O  O271  1  0.25086208  0.26734084  0.41603293  1
  O  O272  1  0.25064328  0.27325349  0.75508624  1
  O  O273  1  0.24806809  0.77551207  0.08593400  1
  O  O274  1  0.24825570  0.76250029  0.41528043  1
  O  O275  1  0.24335840  0.76998349  0.75858900  1
  O  O276  1  0.59253517  0.26183636  0.07728599  1
  O  O277  1  0.57822241  0.25699017  0.42763277  1
  O  O278  1  0.57416899  0.26449194  0.76196534  1
  O  O279  1  0.57090866  0.76259184  0.09813102  1
  O  O280  1  0.57482214  0.77259390  0.42186323  1
  O  O281  1  0.57316779  0.76554489  0.75879751  1
  O  O282  1  0.92316766  0.27503307  0.07364737  1
  O  O283  1  0.92032230  0.27363465  0.40801329  1
  O  O284  1  0.92544155  0.26552865  0.73273443  1
  O  O285  1  0.91536278  0.75743939  0.08718611  1
  O  O286  1  0.90925449  0.77142067  0.41736228  1
  O  O287  1  0.91239577  0.77396602  0.75356951  1
  O  O288  1  0.24946295  0.47885360  0.08454827  1
  O  O289  1  0.24562162  0.48511105  0.42653106  1
  O  O290  1  0.24913827  0.47077504  0.75511211  1
  O  O291  1  0.24605994  0.97113495  0.08745292  1
  O  O292  1  0.25409198  0.98787086  0.40883076  1
  O  O293  1  0.24612701  0.98101050  0.75930045  1
  O  O294  1  0.58799407  0.48879283  0.08469572  1
  O  O295  1  0.57790488  0.48845719  0.43184259  1
  O  O296  1  0.57331139  0.48549895  0.75916593  1
  O  O297  1  0.57149076  0.98316803  0.09352157  1
  O  O298  1  0.57584998  0.97976388  0.42381328  1
  O  O299  1  0.57255258  0.98408754  0.76617498  1
  O  O300  1  0.92343679  0.47705382  0.07596766  1
  O  O301  1  0.92240514  0.48204216  0.40822113  1
  O  O302  1  0.92160855  0.48485209  0.74013256  1
  O  O303  1  0.91333677  0.99342376  0.08640977  1
  O  O304  1  0.90820126  0.97831709  0.41966494  1
  O  O305  1  0.91822090  0.97622974  0.74469743  1
  O  O306  1  0.08626620  0.27623974  0.08668489  1
  O  O307  1  0.08505532  0.27251964  0.42015547  1
  O  O308  1  0.08561538  0.27297017  0.75306187  1
  O  O309  1  0.08946729  0.76375485  0.08922421  1
  O  O310  1  0.07037259  0.76934493  0.40435902  1
  O  O311  1  0.07728044  0.75779360  0.74309884  1
  O  O312  1  0.41026174  0.26462408  0.07174930  1
  O  O313  1  0.41608006  0.26672236  0.41760288  1
  O  O314  1  0.41345041  0.27557383  0.74414557  1
  O  O315  1  0.40911121  0.77047875  0.07566378  1
  O  O316  1  0.41250483  0.77458058  0.40634491  1
  O  O317  1  0.40768374  0.76866270  0.73976109  1
  O  O318  1  0.75874684  0.26195912  0.08884895  1
  O  O319  1  0.75879858  0.26110696  0.42436011  1
  O  O320  1  0.75279122  0.25153862  0.75404001  1
  O  O321  1  0.75035850  0.75605403  0.08869992  1
  O  O322  1  0.74449385  0.76958008  0.41387056  1
  O  O323  1  0.75369827  0.75806768  0.75446981  1
  O  O324  1  0.24950674  0.01937436  0.24593689  1
  O  O325  1  0.25286175  0.00307990  0.58672111  1
  O  O326  1  0.26405919  0.01206577  0.92856510  1
  O  O327  1  0.23817054  0.51647609  0.24684447  1
  O  O328  1  0.26036772  0.51176901  0.59093754  1
  O  O329  1  0.26115788  0.51331482  0.92297040  1
  O  O330  1  0.58928833  0.01715071  0.26477939  1
  O  O331  1  0.58504534  0.01912832  0.58519994  1
  O  O332  1  0.58789608  0.02022169  0.92872865  1
  O  O333  1  0.58613937  0.52036842  0.25574932  1
  O  O334  1  0.58820435  0.52564998  0.59490525  1
  O  O335  1  0.58980154  0.51425925  0.92449995  1
  O  O336  1  0.91383312  0.01002821  0.24894732  1
  O  O337  1  0.91375734  0.02198829  0.58228117  1
  O  O338  1  0.90917712  0.00882064  0.90477057  1
  O  O339  1  0.91304514  0.52704023  0.24063327  1
  O  O340  1  0.92680908  0.51517706  0.58256819  1
  O  O341  1  0.91348937  0.52071308  0.91476318  1
  O  O342  1  0.08442528  0.24776008  0.24802580  1
  O  O343  1  0.06878862  0.24241002  0.58882364  1
  O  O344  1  0.08685634  0.24694321  0.92016488  1
  O  O345  1  0.08303751  0.72398261  0.24855668  1
  O  O346  1  0.09401901  0.72915530  0.57760477  1
  O  O347  1  0.08057101  0.73357025  0.91917382  1
  O  O348  1  0.40712285  0.23304505  0.25260161  1
  O  O349  1  0.42413917  0.23559818  0.57550899  1
  O  O350  1  0.42690177  0.23736780  0.90679946  1
  O  O351  1  0.42654805  0.73303254  0.23702722  1
  O  O352  1  0.42676974  0.73170701  0.57349265  1
  O  O353  1  0.41973150  0.73158205  0.90881440  1
  O  O354  1  0.74766302  0.22784687  0.25470148  1
  O  O355  1  0.74969530  0.22568601  0.58427323  1
  O  O356  1  0.74780253  0.22781155  0.92050384  1
  O  O357  1  0.74967071  0.73066968  0.25146477  1
  O  O358  1  0.75153393  0.73571770  0.58815854  1
  O  O359  1  0.75390998  0.73001270  0.91561792  1
