# generated using pymatgen
data_Ba17Sr5La8Pr42Mn72O216
_symmetry_space_group_name_H-M   'P 1'
_cell_length_a   16.67133017
_cell_length_b   15.70253232
_cell_length_c   16.81750268
_cell_angle_alpha   89.99987698
_cell_angle_beta   90.01093088
_cell_angle_gamma   89.99835895
_symmetry_Int_Tables_number   1
_chemical_formula_structural   Ba17Sr5La8Pr42Mn72O216
_chemical_formula_sum   'Ba17 Sr5 La8 Pr42 Mn72 O216'
_cell_volume   4402.52110136
_cell_formula_units_Z   1
loop_
 _symmetry_equiv_pos_site_id
 _symmetry_equiv_pos_as_xyz
  1  'x, y, z'
loop_
 _atom_site_type_symbol
 _atom_site_label
 _atom_site_symmetry_multiplicity
 _atom_site_fract_x
 _atom_site_fract_y
 _atom_site_fract_z
 _atom_site_occupancy
  Ba  Ba0  1  0.33642089  0.37388393  0.33426514  1
  Ba  Ba1  1  0.83481773  0.37488666  0.16322600  1
  Ba  Ba2  1  0.66733281  0.37566838  0.00366859  1
  Ba  Ba3  1  0.16845936  0.87489677  0.83306508  1
  Ba  Ba4  1  0.16294584  0.12617710  0.49925707  1
  Ba  Ba5  1  0.33315459  0.87491707  -0.00051980  1
  Ba  Ba6  1  0.83182799  0.12538725  0.16661022  1
  Ba  Ba7  1  0.50198345  0.87360433  0.50097451  1
  Ba  Ba8  1  0.50043187  0.62643602  0.50033609  1
  Ba  Ba9  1  0.33281144  0.62488711  1.00142340  1
  Ba  Ba10  1  0.16690472  0.87236936  0.16434528  1
  Ba  Ba11  1  -0.00299676  0.12525440  0.66444777  1
  Ba  Ba12  1  0.33301237  0.12535452  0.33632001  1
  Ba  Ba13  1  0.16228162  0.12650521  0.83192392  1
  Ba  Ba14  1  0.16571916  0.62271268  0.49933926  1
  Ba  Ba15  1  0.50028183  0.37328383  0.16720791  1
  Ba  Ba16  1  -0.00236934  0.12527010  0.33206320  1
  Sr  Sr17  1  0.83686101  0.87217956  0.50084152  1
  Sr  Sr18  1  0.83730134  0.87251221  0.82928147  1
  Sr  Sr19  1  0.16739211  0.62578754  0.17046333  1
  Sr  Sr20  1  0.33722504  0.37548018  0.66507599  1
  Sr  Sr21  1  0.83053035  0.62750058  0.49974168  1
  La  La22  1  0.33135673  0.87405537  0.33431494  1
  La  La23  1  0.00391384  0.87409072  0.66487470  1
  La  La24  1  0.49451628  0.12563176  0.83348895  1
  La  La25  1  0.33386769  0.87224751  0.66805923  1
  La  La26  1  0.00291554  0.37590405  0.33086134  1
  La  La27  1  0.16544561  0.12253008  0.17095691  1
  La  La28  1  0.83895606  0.37783858  0.49714318  1
  La  La29  1  0.49786759  0.62374769  0.16947085  1
  Pr  Pr30  1  0.67328977  0.87596955  0.33913365  1
  Pr  Pr31  1  0.67099088  0.87617225  0.00360520  1
  Pr  Pr32  1  0.50172557  0.87753005  0.16539780  1
  Pr  Pr33  1  0.49147109  0.12411781  0.50594375  1
  Pr  Pr34  1  -0.00199927  0.62694378  0.99805581  1
  Pr  Pr35  1  0.84122751  0.87610643  0.16422619  1
  Pr  Pr36  1  0.82786434  0.12205426  0.83807411  1
  Pr  Pr37  1  0.66461272  0.62705487  0.66536296  1
  Pr  Pr38  1  0.84049703  0.37721058  0.83091148  1
  Pr  Pr39  1  -0.00394439  0.12121255  0.99665265  1
  Pr  Pr40  1  0.82826843  0.12323692  0.50420243  1
  Pr  Pr41  1  0.00523245  0.37525861  0.00149493  1
  Pr  Pr42  1  0.16705960  0.37160972  0.49725339  1
  Pr  Pr43  1  -0.00431780  0.62877301  0.66069529  1
  Pr  Pr44  1  0.82756193  0.62775202  0.83496917  1
  Pr  Pr45  1  0.49841765  0.12507696  0.16703615  1
  Pr  Pr46  1  0.00413235  0.87562319  0.33322945  1
  Pr  Pr47  1  0.66394215  0.12242487  0.33382902  1
  Pr  Pr48  1  0.33307058  0.37241067  0.00601077  1
  Pr  Pr49  1  0.66231059  0.12371403  0.66485430  1
  Pr  Pr50  1  0.82614405  0.62369618  0.16842129  1
  Pr  Pr51  1  0.65889021  0.13028653  0.99999682  1
  Pr  Pr52  1  0.16973640  0.37314427  0.16665049  1
  Pr  Pr53  1  0.16420473  0.87774262  0.49725925  1
  Pr  Pr54  1  0.67120155  0.86918163  0.67058949  1
  Pr  Pr55  1  0.66151264  0.62900738  0.33440274  1
  Pr  Pr56  1  0.49954715  0.62406923  0.83596022  1
  Pr  Pr57  1  0.33346492  0.62626892  0.32757376  1
  Pr  Pr58  1  0.00537574  0.87553306  -0.00144227  1
  Pr  Pr59  1  0.01057533  0.37763735  0.66669265  1
  Pr  Pr60  1  0.32589379  0.12505403  1.00046342  1
  Pr  Pr61  1  0.50347178  0.37710661  0.83340429  1
  Pr  Pr62  1  0.66240439  0.62002305  1.00185180  1
  Pr  Pr63  1  0.32416211  0.12333451  0.66085822  1
  Pr  Pr64  1  0.33219316  0.62522179  0.66544621  1
  Pr  Pr65  1  0.67198011  0.37493212  0.33578072  1
  Pr  Pr66  1  0.17575372  0.37593643  0.83148498  1
  Pr  Pr67  1  0.67068044  0.38150944  0.67121102  1
  Pr  Pr68  1  0.49936999  0.87222318  0.82893444  1
  Pr  Pr69  1  0.16392664  0.62288136  0.83721872  1
  Pr  Pr70  1  -0.00922315  0.62680856  0.32761717  1
  Pr  Pr71  1  0.50510405  0.37467973  0.49371770  1
  Mn  Mn72  1  -0.00079011  -0.00086830  0.16444625  1
  Mn  Mn73  1  -0.00432149  -0.00212406  0.49902229  1
  Mn  Mn74  1  -0.00346618  -0.00212735  0.83047652  1
  Mn  Mn75  1  0.00062886  0.50243302  0.16475985  1
  Mn  Mn76  1  -0.00102741  0.50219028  0.49906925  1
  Mn  Mn77  1  -0.00026938  0.50110863  0.83150215  1
  Mn  Mn78  1  0.33500701  0.00032026  0.16724218  1
  Mn  Mn79  1  0.33246519  -0.00278705  0.50137349  1
  Mn  Mn80  1  0.33469533  0.00232733  0.83231892  1
  Mn  Mn81  1  0.33268639  0.49924891  0.16678245  1
  Mn  Mn82  1  0.33518147  0.49987803  0.50138824  1
  Mn  Mn83  1  0.33569123  0.49805519  0.83265180  1
  Mn  Mn84  1  0.66687312  -0.00165141  0.16843936  1
  Mn  Mn85  1  0.66812755  -0.00058997  0.50120869  1
  Mn  Mn86  1  0.66606137  -0.00082842  0.83436918  1
  Mn  Mn87  1  0.66607597  0.50222177  0.16877193  1
  Mn  Mn88  1  0.66904866  0.50110876  0.50343804  1
  Mn  Mn89  1  0.66792106  0.50040360  0.83424989  1
  Mn  Mn90  1  0.00112409  0.25212140  0.16382660  1
  Mn  Mn91  1  -0.00373900  0.25251633  0.49990781  1
  Mn  Mn92  1  -0.00353285  0.25228623  0.83256675  1
  Mn  Mn93  1  -0.00218728  0.74773659  0.16407738  1
  Mn  Mn94  1  -0.00148759  0.74859583  0.49715948  1
  Mn  Mn95  1  -0.00065499  0.74780505  0.82991710  1
  Mn  Mn96  1  0.33281338  0.24903830  0.16615875  1
  Mn  Mn97  1  0.33558297  0.25200072  0.50390802  1
  Mn  Mn98  1  0.33519226  0.25074833  0.83329236  1
  Mn  Mn99  1  0.33533131  0.75025946  0.16740248  1
  Mn  Mn100  1  0.33165703  0.74871721  0.49992485  1
  Mn  Mn101  1  0.33432022  0.74833009  0.83182451  1
  Mn  Mn102  1  0.66591894  0.24733168  0.16817382  1
  Mn  Mn103  1  0.66777229  0.25027596  0.50321838  1
  Mn  Mn104  1  0.66777415  0.25116427  0.83134849  1
  Mn  Mn105  1  0.66648596  0.75290103  0.16791407  1
  Mn  Mn106  1  0.66968470  0.75038310  0.50139503  1
  Mn  Mn107  1  0.66605936  0.74923891  0.83731703  1
  Mn  Mn108  1  0.16360711  0.25102883  0.00027250  1
  Mn  Mn109  1  0.16594806  0.25071930  0.33186522  1
  Mn  Mn110  1  0.16818197  0.25389050  0.66650810  1
  Mn  Mn111  1  0.16526117  0.74633836  0.00010096  1
  Mn  Mn112  1  0.16595632  0.74901968  0.33416662  1
  Mn  Mn113  1  0.16688977  0.74738837  0.66624008  1
  Mn  Mn114  1  0.49731222  0.24743846  -0.00134382  1
  Mn  Mn115  1  0.50419969  0.24748236  0.33547729  1
  Mn  Mn116  1  0.50247774  0.25212234  0.66712016  1
  Mn  Mn117  1  0.50296077  0.75178650  0.00041739  1
  Mn  Mn118  1  0.50055527  0.75165187  0.33169913  1
  Mn  Mn119  1  0.49998003  0.74902492  0.66909977  1
  Mn  Mn120  1  0.83287518  0.24915987  -0.00345570  1
  Mn  Mn121  1  0.83254997  0.25170174  0.33568085  1
  Mn  Mn122  1  0.83188209  0.25247735  0.66677372  1
  Mn  Mn123  1  0.83262073  0.75096469  -0.00066081  1
  Mn  Mn124  1  0.83205841  0.75005838  0.33182556  1
  Mn  Mn125  1  0.83323043  0.74958246  0.66654476  1
  Mn  Mn126  1  0.16446066  0.00099651  0.00018403  1
  Mn  Mn127  1  0.16596175  -0.00119492  0.33168698  1
  Mn  Mn128  1  0.16616657  -0.00175825  0.66448717  1
  Mn  Mn129  1  0.16541773  0.50043481  0.00002787  1
  Mn  Mn130  1  0.16651329  0.50081038  0.33378294  1
  Mn  Mn131  1  0.16868481  0.50062438  0.66854943  1
  Mn  Mn132  1  0.50088391  -0.00041294  -0.00154114  1
  Mn  Mn133  1  0.50144770  -0.00008711  0.33344742  1
  Mn  Mn134  1  0.50190990  -0.00015812  0.66908385  1
  Mn  Mn135  1  0.49890492  0.50055096  0.00054209  1
  Mn  Mn136  1  0.50264396  0.49983188  0.33521074  1
  Mn  Mn137  1  0.50034026  0.49809555  0.66686018  1
  Mn  Mn138  1  0.83165780  -0.00295752  -0.00231255  1
  Mn  Mn139  1  0.83284350  -0.00187809  0.33493917  1
  Mn  Mn140  1  0.83076527  -0.00188357  0.66839271  1
  Mn  Mn141  1  0.83530498  0.50366418  -0.00129156  1
  Mn  Mn142  1  0.83200930  0.50143190  0.33351609  1
  Mn  Mn143  1  0.83495166  0.50146423  0.66524959  1
  O  O144  1  0.16155891  0.13031641  0.02245547  1
  O  O145  1  0.16586647  0.12358920  0.33987752  1
  O  O146  1  0.17287955  0.12917985  0.67415688  1
  O  O147  1  0.15855584  0.62141332  0.01788650  1
  O  O148  1  0.17589643  0.62510991  0.34426236  1
  O  O149  1  0.16749678  0.62226524  0.69346214  1
  O  O150  1  0.50597732  0.12124166  0.02193006  1
  O  O151  1  0.51015367  0.12265503  0.36159581  1
  O  O152  1  0.51130385  0.12651265  0.69150934  1
  O  O153  1  0.50693894  0.63100331  0.02412192  1
  O  O154  1  0.50337565  0.62631588  0.34456810  1
  O  O155  1  0.50333336  0.62311973  0.69252970  1
  O  O156  1  0.84623373  0.12083273  0.00807612  1
  O  O157  1  0.82821033  0.12669530  0.35966582  1
  O  O158  1  0.82849370  0.12407977  0.69327106  1
  O  O159  1  0.84104727  0.62917426  0.02499158  1
  O  O160  1  0.83758091  0.62566075  0.35130320  1
  O  O161  1  0.84060600  0.62382546  0.69242493  1
  O  O162  1  0.15924914  0.37832566  0.31124489  1
  O  O163  1  0.16293316  0.37931819  0.64393055  1
  O  O164  1  0.16318206  0.37579527  0.97368404  1
  O  O165  1  0.15975840  0.87297517  0.32038992  1
  O  O166  1  0.16944201  0.86926906  0.64506699  1
  O  O167  1  0.15857822  0.87131894  0.99012189  1
  O  O168  1  0.51072381  0.37350650  0.32470058  1
  O  O169  1  0.50666934  0.37384852  0.63841115  1
  O  O170  1  0.49108448  0.36995108  0.97786143  1
  O  O171  1  0.50182428  0.87635565  0.31002454  1
  O  O172  1  0.49527301  0.87559277  0.65804770  1
  O  O173  1  0.50783085  0.87661452  0.97285179  1
  O  O174  1  0.82524803  0.37873555  0.32050397  1
  O  O175  1  0.82315059  0.38034768  0.64051025  1
  O  O176  1  0.83626891  0.38082186  0.97609059  1
  O  O177  1  0.82478627  0.86986118  0.30665020  1
  O  O178  1  0.82125343  0.87295750  0.64993931  1
  O  O179  1  0.82162649  0.87268920  0.97672483  1
  O  O180  1  0.00450656  0.37983680  0.18563084  1
  O  O181  1  -0.00684480  0.37961797  0.52238454  1
  O  O182  1  -0.00789661  0.37932376  0.85889486  1
  O  O183  1  -0.00548962  0.86844032  0.18742530  1
  O  O184  1  0.00021221  0.87036654  0.51887688  1
  O  O185  1  -0.00282036  0.86857102  0.85489539  1
  O  O186  1  0.32849462  0.37357977  0.17468657  1
  O  O187  1  0.34560664  0.37443672  0.51652177  1
  O  O188  1  0.33495786  0.37384279  0.86127222  1
  O  O189  1  0.34390369  0.87507818  0.18716993  1
  O  O190  1  0.32871100  0.87174641  0.52309409  1
  O  O191  1  0.34245945  0.87634545  0.84146837  1
  O  O192  1  0.66692193  0.37636513  0.18909610  1
  O  O193  1  0.66211678  0.37261874  0.52905746  1
  O  O194  1  0.66551651  0.37556597  0.84857315  1
  O  O195  1  0.66104171  0.87349665  0.19641535  1
  O  O196  1  0.67018626  0.87324259  0.52555393  1
  O  O197  1  0.66020061  0.86971204  0.86156500  1
  O  O198  1  0.00649461  0.12932855  0.14217247  1
  O  O199  1  -0.01043972  0.12665128  0.48970072  1
  O  O200  1  -0.01209219  0.12710732  0.82253172  1
  O  O201  1  -0.00704358  0.62512992  0.14219626  1
  O  O202  1  -0.00263641  0.62484191  0.47229493  1
  O  O203  1  0.00483751  0.62220479  0.80247230  1
  O  O204  1  0.33420063  0.12538011  0.14624582  1
  O  O205  1  0.33826980  0.12510810  0.49511997  1
  O  O206  1  0.33866514  0.12915121  0.80548829  1
  O  O207  1  0.33919620  0.62486455  0.16075775  1
  O  O208  1  0.33293549  0.62575071  0.47393977  1
  O  O209  1  0.33879289  0.62096654  0.80951599  1
  O  O210  1  0.66260201  0.11851579  0.14417776  1
  O  O211  1  0.67531186  0.12756731  0.47705504  1
  O  O212  1  0.67000571  0.12985808  0.80694812  1
  O  O213  1  0.66808712  0.63367132  0.14418789  1
  O  O214  1  0.66959909  0.62726103  0.47852048  1
  O  O215  1  0.66538962  0.62391169  0.80878586  1
  O  O216  1  0.08556133  0.01087987  0.24527844  1
  O  O217  1  0.07931236  -0.00144365  0.58263072  1
  O  O218  1  0.07265244  0.01083010  0.92189513  1
  O  O219  1  0.07380341  0.51999693  0.25637928  1
  O  O220  1  0.07460292  0.51471853  0.59532266  1
  O  O221  1  0.07561775  0.52059355  0.92013262  1
  O  O222  1  0.42206689  0.01655003  0.24789162  1
  O  O223  1  0.41535503  0.01817153  0.59404024  1
  O  O224  1  0.41152731  0.02436500  0.92178398  1
  O  O225  1  0.41835856  0.51509667  0.25391193  1
  O  O226  1  0.41370352  0.51804667  0.59195441  1
  O  O227  1  0.42288894  0.51500027  0.90918982  1
  O  O228  1  0.74019815  0.01330273  0.26200458  1
  O  O229  1  0.74352622  0.02199919  0.59118795  1
  O  O230  1  0.74094673  0.02185927  0.92621020  1
  O  O231  1  0.74476265  0.52442231  0.25591422  1
  O  O232  1  0.74654116  0.52238685  0.59129757  1
  O  O233  1  0.74909775  0.52599027  0.91958300  1
  O  O234  1  0.24595618  0.23935723  0.24162586  1
  O  O235  1  0.25405762  0.24530599  0.58678984  1
  O  O236  1  0.24989643  0.23625361  0.92283351  1
  O  O237  1  0.25733170  0.74186028  0.25846962  1
  O  O238  1  0.25254391  0.73035714  0.58782914  1
  O  O239  1  0.24613576  0.73235086  0.90794758  1
  O  O240  1  0.58174513  0.22393482  0.25039406  1
  O  O241  1  0.57763762  0.22485014  0.57479008  1
  O  O242  1  0.57801640  0.23172397  0.91025031  1
  O  O243  1  0.58141447  0.73014356  0.24286455  1
  O  O244  1  0.58812432  0.73856883  0.59471856  1
  O  O245  1  0.58466653  0.72290155  0.91785286  1
  O  O246  1  0.91843258  0.24637120  0.24552319  1
  O  O247  1  0.90056732  0.23995760  0.57256965  1
  O  O248  1  0.90093746  0.24092555  0.89961961  1
  O  O249  1  0.90802599  0.72959437  0.24100575  1
  O  O250  1  0.91643182  0.73430185  0.57981165  1
  O  O251  1  0.91585979  0.72598383  0.90967690  1
  O  O252  1  0.08836395  0.47853238  0.08619446  1
  O  O253  1  0.08510916  0.47742261  0.42195745  1
  O  O254  1  0.08963194  0.47564413  0.75879633  1
  O  O255  1  0.07714445  0.98919010  0.07840446  1
  O  O256  1  0.08196465  0.98099199  0.41698351  1
  O  O257  1  0.08126783  0.98606396  0.74698632  1
  O  O258  1  0.41297562  0.48689280  0.07737656  1
  O  O259  1  0.42682869  0.48620834  0.42233378  1
  O  O260  1  0.42342529  0.47694233  0.75283142  1
  O  O261  1  0.42718343  0.98707678  0.08891936  1
  O  O262  1  0.41554195  0.98582151  0.41618412  1
  O  O263  1  0.42906901  0.98965979  0.75989210  1
  O  O264  1  0.75246282  0.50146181  0.08754967  1
  O  O265  1  0.75168802  0.48139137  0.42334803  1
  O  O266  1  0.75632698  0.48449404  0.75443464  1
  O  O267  1  0.75374421  0.97643841  0.09050526  1
  O  O268  1  0.75472564  0.98096623  0.42392685  1
  O  O269  1  0.75141245  0.98109063  0.75663007  1
  O  O270  1  0.24757853  0.26814620  0.08071928  1
  O  O271  1  0.24780438  0.26548412  0.42260686  1
  O  O272  1  0.25333501  0.27126838  0.75349571  1
  O  O273  1  0.25327837  0.75342195  0.08748476  1
  O  O274  1  0.24733656  0.77276044  0.42013130  1
  O  O275  1  0.25777795  0.75960193  0.74351273  1
  O  O276  1  0.58081631  0.25297569  0.08098117  1
  O  O277  1  0.59620158  0.27057504  0.41499112  1
  O  O278  1  0.59216092  0.27323566  0.74159084  1
  O  O279  1  0.59082129  0.77650147  0.08333587  1
  O  O280  1  0.59013008  0.76362068  0.40670150  1
  O  O281  1  0.58334061  0.76860812  0.75560017  1
  O  O282  1  0.92752247  0.26319440  0.06750184  1
  O  O283  1  0.92002916  0.27429021  0.41226471  1
  O  O284  1  0.92162965  0.27834802  0.73968784  1
  O  O285  1  0.91650216  0.77585768  0.07695001  1
  O  O286  1  0.92331111  0.76701367  0.40223503  1
  O  O287  1  0.92003082  0.76588676  0.74358945  1
  O  O288  1  0.24887366  0.47933728  0.07870252  1
  O  O289  1  0.24730968  0.48038965  0.42355398  1
  O  O290  1  0.25328773  0.48024380  0.75208296  1
  O  O291  1  0.25074923  0.99950359  0.08192801  1
  O  O292  1  0.24764312  0.97817648  0.41507416  1
  O  O293  1  0.26093589  0.98963846  0.74107771  1
  O  O294  1  0.58380777  0.49768975  0.08575408  1
  O  O295  1  0.59052370  0.48200748  0.41747129  1
  O  O296  1  0.58457010  0.47945120  0.75023526  1
  O  O297  1  0.58931359  0.97727908  0.07958620  1
  O  O298  1  0.59436255  0.98443907  0.40820020  1
  O  O299  1  0.59043611  0.97720863  0.74464290  1
  O  O300  1  0.92788045  0.48778154  0.06909916  1
  O  O301  1  0.92124949  0.48281399  0.40751575  1
  O  O302  1  0.92222468  0.47657197  0.74244038  1
  O  O303  1  0.91830994  0.97636948  0.07390645  1
  O  O304  1  0.92021104  0.97689837  0.40843312  1
  O  O305  1  0.91973825  0.97727264  0.74062851  1
  O  O306  1  0.08763879  0.27755980  0.08545686  1
  O  O307  1  0.08187239  0.27200461  0.41840597  1
  O  O308  1  0.08618129  0.27409433  0.75701148  1
  O  O309  1  0.07312550  0.75838998  0.07546796  1
  O  O310  1  0.08370357  0.76956380  0.41865040  1
  O  O311  1  0.08024646  0.76395792  0.74552300  1
  O  O312  1  0.40839914  0.25717988  0.07548550  1
  O  O313  1  0.43023857  0.25752268  0.42893168  1
  O  O314  1  0.43062499  0.27059884  0.75854379  1
  O  O315  1  0.42809705  0.76593783  0.08963839  1
  O  O316  1  0.41004280  0.76472119  0.40933535  1
  O  O317  1  0.41927133  0.76309123  0.75085034  1
  O  O318  1  0.75121424  0.25176650  0.08156570  1
  O  O319  1  0.75573052  0.27309798  0.43167978  1
  O  O320  1  0.75829374  0.27476257  0.75617635  1
  O  O321  1  0.75121114  0.77279054  0.09294952  1
  O  O322  1  0.75324948  0.76683672  0.41445292  1
  O  O323  1  0.74681025  0.76182632  0.75383846  1
  O  O324  1  0.25038342  0.00735923  0.24816903  1
  O  O325  1  0.25014448  0.00799454  0.58292680  1
  O  O326  1  0.24929029  0.01674433  0.91849190  1
  O  O327  1  0.25015348  0.51290396  0.25084823  1
  O  O328  1  0.25353862  0.51512062  0.59063919  1
  O  O329  1  0.24141336  0.51296754  0.90951422  1
  O  O330  1  0.57931964  0.02134020  0.24486737  1
  O  O331  1  0.57982629  0.02159816  0.57910405  1
  O  O332  1  0.57904913  0.02425353  0.91160533  1
  O  O333  1  0.58529957  0.52220856  0.25218992  1
  O  O334  1  0.58911792  0.51644174  0.59052423  1
  O  O335  1  0.58262190  0.51917519  0.91672508  1
  O  O336  1  0.91280888  0.00233457  0.24427917  1
  O  O337  1  0.90389493  0.00928892  0.57487278  1
  O  O338  1  0.90776864  0.00955153  0.90765197  1
  O  O339  1  0.91143849  0.52107304  0.24268971  1
  O  O340  1  0.91384115  0.52110229  0.57959290  1
  O  O341  1  0.91170617  0.52638609  0.90478426  1
  O  O342  1  0.08585560  0.24106145  0.24263515  1
  O  O343  1  0.07693195  0.25170700  0.58384929  1
  O  O344  1  0.06791772  0.23766605  0.92756787  1
  O  O345  1  0.07562880  0.73094752  0.25375932  1
  O  O346  1  0.07765611  0.73418706  0.58816811  1
  O  O347  1  0.07925781  0.72533003  0.91137148  1
  O  O348  1  0.42047218  0.23443968  0.24553768  1
  O  O349  1  0.41569215  0.22761745  0.59464182  1
  O  O350  1  0.41334629  0.22288862  0.91862121  1
  O  O351  1  0.41841839  0.73281707  0.25124403  1
  O  O352  1  0.41153324  0.73517043  0.58990430  1
  O  O353  1  0.42350272  0.73671894  0.90950296  1
  O  O354  1  0.74076905  0.23705632  0.26508204  1
  O  O355  1  0.74075386  0.22798708  0.59337274  1
  O  O356  1  0.74316371  0.22665288  0.91949749  1
  O  O357  1  0.74309064  0.72675931  0.25303457  1
  O  O358  1  0.74850232  0.72877827  0.59155014  1
  O  O359  1  0.74631380  0.72356520  0.92198612  1
