# generated using pymatgen
data_Ba17Sr5La8Pr42Mn72O216
_symmetry_space_group_name_H-M   'P 1'
_cell_length_a   16.67514261
_cell_length_b   15.70241720
_cell_length_c   16.82169016
_cell_angle_alpha   89.99603029
_cell_angle_beta   90.03687194
_cell_angle_gamma   89.98957444
_symmetry_Int_Tables_number   1
_chemical_formula_structural   Ba17Sr5La8Pr42Mn72O216
_chemical_formula_sum   'Ba17 Sr5 La8 Pr42 Mn72 O216'
_cell_volume   4404.59113367
_cell_formula_units_Z   1
loop_
 _symmetry_equiv_pos_site_id
 _symmetry_equiv_pos_as_xyz
  1  'x, y, z'
loop_
 _atom_site_type_symbol
 _atom_site_label
 _atom_site_symmetry_multiplicity
 _atom_site_fract_x
 _atom_site_fract_y
 _atom_site_fract_z
 _atom_site_occupancy
  Ba  Ba0  1  0.83192079  0.12593665  0.49753941  1
  Ba  Ba1  1  0.66582846  0.12540164  0.32914058  1
  Ba  Ba2  1  0.33365164  0.37477387  0.33765812  1
  Ba  Ba3  1  0.00339078  0.62560626  0.99707399  1
  Ba  Ba4  1  0.83358148  0.37611967  0.49890059  1
  Ba  Ba5  1  -0.00119208  0.37474035  0.33412432  1
  Ba  Ba6  1  0.66381875  0.12511033  0.99776341  1
  Ba  Ba7  1  -0.00206256  0.12493259  0.66555632  1
  Ba  Ba8  1  0.83255600  0.87426889  0.16204252  1
  Ba  Ba9  1  0.50079676  0.62505338  0.83446154  1
  Ba  Ba10  1  0.00339011  0.62586408  0.66576391  1
  Ba  Ba11  1  0.00016490  0.87374343  0.00092156  1
  Ba  Ba12  1  -0.00045527  0.37537995  0.00125467  1
  Ba  Ba13  1  0.33484856  0.62423248  0.66946810  1
  Ba  Ba14  1  0.33225898  0.62437476  0.33637058  1
  Ba  Ba15  1  -0.00032847  0.12586644  0.33568617  1
  Ba  Ba16  1  0.50159160  0.87513787  0.49969429  1
  Sr  Sr17  1  0.83358415  0.87364109  0.83209774  1
  Sr  Sr18  1  0.16842779  0.62397665  0.83476220  1
  Sr  Sr19  1  0.17114928  0.62167647  0.50524865  1
  Sr  Sr20  1  0.66765605  0.62690152  0.33198278  1
  Sr  Sr21  1  -0.00253026  0.37372655  0.66822472  1
  La  La22  1  0.33717867  0.87334127  0.00065971  1
  La  La23  1  0.50033723  0.62386399  0.16874484  1
  La  La24  1  0.33500988  0.37566819  0.00425648  1
  La  La25  1  0.33256745  0.62416279  0.99541469  1
  La  La26  1  0.66288607  0.37741202  -0.00171200  1
  La  La27  1  0.33476356  0.87400005  0.33833369  1
  La  La28  1  0.00110531  0.62263907  0.33425360  1
  La  La29  1  0.33453697  0.87093547  0.66953504  1
  Pr  Pr30  1  0.66619135  0.87267105  -0.00061303  1
  Pr  Pr31  1  0.83880940  0.87490177  0.49494062  1
  Pr  Pr32  1  0.66557744  0.37823271  0.33602446  1
  Pr  Pr33  1  0.83923755  0.62323521  0.49978609  1
  Pr  Pr34  1  0.67104478  0.62688262  0.99489223  1
  Pr  Pr35  1  0.16007966  0.37816846  0.50235572  1
  Pr  Pr36  1  0.83232415  0.37594922  0.82656262  1
  Pr  Pr37  1  0.49951696  0.37725414  0.49828965  1
  Pr  Pr38  1  0.83795349  0.62346694  0.83450849  1
  Pr  Pr39  1  0.00273944  0.87753942  0.67116786  1
  Pr  Pr40  1  0.50045322  0.37183311  0.83098274  1
  Pr  Pr41  1  0.83214492  0.12556325  0.83196039  1
  Pr  Pr42  1  0.32952149  0.12334819  0.66719810  1
  Pr  Pr43  1  0.49718336  0.12653077  0.17072443  1
  Pr  Pr44  1  0.66383645  0.12488155  0.65874054  1
  Pr  Pr45  1  0.83902874  0.12369574  0.17132624  1
  Pr  Pr46  1  0.16285800  0.62414010  0.16861726  1
  Pr  Pr47  1  0.49682182  0.12589169  0.50132674  1
  Pr  Pr48  1  0.66902783  0.37590947  0.66568036  1
  Pr  Pr49  1  0.67330495  0.87434301  0.33574442  1
  Pr  Pr50  1  0.50471502  0.87833755  0.82797737  1
  Pr  Pr51  1  0.00198930  0.87563503  0.33277043  1
  Pr  Pr52  1  0.15774473  0.12635283  0.83894373  1
  Pr  Pr53  1  0.84133002  0.62579863  0.16481609  1
  Pr  Pr54  1  0.16606079  0.87241049  0.50185548  1
  Pr  Pr55  1  0.49278747  0.12427894  0.83706451  1
  Pr  Pr56  1  0.82740512  0.37216420  0.16452722  1
  Pr  Pr57  1  0.16732744  0.37630107  0.16773452  1
  Pr  Pr58  1  -0.00911489  0.12219439  0.99921279  1
  Pr  Pr59  1  0.17030331  0.87390279  0.16395743  1
  Pr  Pr60  1  0.33156978  0.37694006  0.67019693  1
  Pr  Pr61  1  0.33219969  0.12267990  0.33340552  1
  Pr  Pr62  1  0.16163280  0.12607781  0.17200601  1
  Pr  Pr63  1  0.16487459  0.87109904  0.83201440  1
  Pr  Pr64  1  0.66843872  0.62615818  0.66130657  1
  Pr  Pr65  1  0.50018830  0.62335754  0.50528189  1
  Pr  Pr66  1  0.16496559  0.13085789  0.50377313  1
  Pr  Pr67  1  0.50389000  0.87434165  0.16867637  1
  Pr  Pr68  1  0.16205278  0.37848570  0.83211457  1
  Pr  Pr69  1  0.67146604  0.87477302  0.66465728  1
  Pr  Pr70  1  0.32910001  0.12510642  0.99982395  1
  Pr  Pr71  1  0.49930193  0.37494782  0.16926596  1
  Mn  Mn72  1  0.00225176  -0.00060029  0.16598057  1
  Mn  Mn73  1  0.00170712  -0.00184044  0.50115884  1
  Mn  Mn74  1  -0.00128835  -0.00020220  0.83389695  1
  Mn  Mn75  1  0.00001932  0.49976720  0.16773233  1
  Mn  Mn76  1  0.00149503  0.50096915  0.50035577  1
  Mn  Mn77  1  -0.00013267  0.49934444  0.83307043  1
  Mn  Mn78  1  0.33374947  0.00009982  0.16811502  1
  Mn  Mn79  1  0.33193679  0.00136995  0.50142256  1
  Mn  Mn80  1  0.33217842  0.00136922  0.83513744  1
  Mn  Mn81  1  0.33303418  0.49944413  0.16605126  1
  Mn  Mn82  1  0.33441167  0.49882415  0.50385680  1
  Mn  Mn83  1  0.33365312  0.49737565  0.83692370  1
  Mn  Mn84  1  0.66426317  -0.00060436  0.16363554  1
  Mn  Mn85  1  0.66630242  -0.00075007  0.49821478  1
  Mn  Mn86  1  0.66706717  0.00035113  0.82903595  1
  Mn  Mn87  1  0.66613119  0.50140240  0.16575024  1
  Mn  Mn88  1  0.66623258  0.50196537  0.49832031  1
  Mn  Mn89  1  0.66607958  0.50036370  0.83193348  1
  Mn  Mn90  1  0.00071120  0.25236390  0.16592678  1
  Mn  Mn91  1  -0.00032856  0.25047316  0.50209271  1
  Mn  Mn92  1  -0.00204746  0.24912367  0.83546481  1
  Mn  Mn93  1  0.00189364  0.74863448  0.16770854  1
  Mn  Mn94  1  0.00274711  0.75204037  0.49930413  1
  Mn  Mn95  1  0.00011516  0.75135558  0.83161578  1
  Mn  Mn96  1  0.33292213  0.24954328  0.16839883  1
  Mn  Mn97  1  0.33363788  0.24870860  0.50422714  1
  Mn  Mn98  1  0.33158801  0.24938673  0.83533491  1
  Mn  Mn99  1  0.33409719  0.75050171  0.16678095  1
  Mn  Mn100  1  0.33429018  0.75070471  0.50189614  1
  Mn  Mn101  1  0.33403278  0.75081764  0.83646931  1
  Mn  Mn102  1  0.66453811  0.25132546  0.16401953  1
  Mn  Mn103  1  0.66373124  0.25087336  0.49851058  1
  Mn  Mn104  1  0.66544188  0.24933827  0.82910264  1
  Mn  Mn105  1  0.66533795  0.74766038  0.16490762  1
  Mn  Mn106  1  0.66872977  0.74901275  0.49783718  1
  Mn  Mn107  1  0.66770074  0.75027543  0.83096297  1
  Mn  Mn108  1  0.16726209  0.24802927  0.00244150  1
  Mn  Mn109  1  0.16811619  0.25002958  0.33647149  1
  Mn  Mn110  1  0.16797869  0.25014691  0.67045666  1
  Mn  Mn111  1  0.17037185  0.75140169  0.00004605  1
  Mn  Mn112  1  0.16632086  0.75028142  0.33340334  1
  Mn  Mn113  1  0.16841049  0.75042327  0.66641642  1
  Mn  Mn114  1  0.49831540  0.24904980  0.00076399  1
  Mn  Mn115  1  0.49947803  0.25061091  0.33488658  1
  Mn  Mn116  1  0.49943630  0.24936391  0.66710334  1
  Mn  Mn117  1  0.50070194  0.75199179  0.00133048  1
  Mn  Mn118  1  0.50124632  0.74884369  0.33298807  1
  Mn  Mn119  1  0.50202601  0.75115426  0.66686628  1
  Mn  Mn120  1  0.82993626  0.25050963  -0.00177704  1
  Mn  Mn121  1  0.83181553  0.25067388  0.33012113  1
  Mn  Mn122  1  0.83094478  0.25100960  0.66687974  1
  Mn  Mn123  1  0.83188005  0.74944035  -0.00307843  1
  Mn  Mn124  1  0.83443386  0.74891953  0.33147953  1
  Mn  Mn125  1  0.83292985  0.75041016  0.66354816  1
  Mn  Mn126  1  0.16822049  0.00155072  0.00184488  1
  Mn  Mn127  1  0.16741845  -0.00192221  0.33424837  1
  Mn  Mn128  1  0.16897325  0.00076532  0.66812759  1
  Mn  Mn129  1  0.16913062  0.49772602  0.00061979  1
  Mn  Mn130  1  0.16669392  0.50112919  0.33555064  1
  Mn  Mn131  1  0.16728993  0.49837440  0.66818398  1
  Mn  Mn132  1  0.49846473  -0.00057488  0.00012566  1
  Mn  Mn133  1  0.49944695  -0.00047366  0.33251276  1
  Mn  Mn134  1  0.49998250  0.00181051  0.66778760  1
  Mn  Mn135  1  0.50034518  0.49896913  0.00209867  1
  Mn  Mn136  1  0.50136265  0.50237356  0.33449796  1
  Mn  Mn137  1  0.50200025  0.49745467  0.66714443  1
  Mn  Mn138  1  0.82958018  0.00107298  -0.00186860  1
  Mn  Mn139  1  0.83404666  -0.00141982  0.33004795  1
  Mn  Mn140  1  0.83067045  -0.00240936  0.66511484  1
  Mn  Mn141  1  0.83102211  0.49825133  -0.00183872  1
  Mn  Mn142  1  0.83152795  0.50348092  0.33061847  1
  Mn  Mn143  1  0.83315512  0.50205042  0.66610362  1
  O  O144  1  0.17686130  0.12431885  0.02972062  1
  O  O145  1  0.17526758  0.12077012  0.36015498  1
  O  O146  1  0.17568097  0.12482674  0.69587788  1
  O  O147  1  0.17901615  0.62644835  0.02244381  1
  O  O148  1  0.16135264  0.62805637  0.35490160  1
  O  O149  1  0.16987400  0.62497529  0.68254505  1
  O  O150  1  0.49497643  0.12538506  0.02671573  1
  O  O151  1  0.49798284  0.12502447  0.35577941  1
  O  O152  1  0.50953866  0.12653256  0.69561347  1
  O  O153  1  0.50094613  0.62858422  0.02483686  1
  O  O154  1  0.50397537  0.62573214  0.35891448  1
  O  O155  1  0.51117946  0.62411746  0.67771412  1
  O  O156  1  0.83365278  0.12843950  0.02405481  1
  O  O157  1  0.83249283  0.12247151  0.33594110  1
  O  O158  1  0.82194331  0.12372895  0.68756231  1
  O  O159  1  0.82345180  0.62212389  0.01959261  1
  O  O160  1  0.83512932  0.62829708  0.35542854  1
  O  O161  1  0.82726176  0.62686434  0.69087898  1
  O  O162  1  0.16842998  0.37567805  0.31272700  1
  O  O163  1  0.17276490  0.37081387  0.64821056  1
  O  O164  1  0.17291967  0.36796560  0.97629181  1
  O  O165  1  0.16690058  0.87492174  0.30583350  1
  O  O166  1  0.16710464  0.87887930  0.64752906  1
  O  O167  1  0.17388608  0.88035618  0.97633384  1
  O  O168  1  0.50328244  0.37662613  0.31339071  1
  O  O169  1  0.49542989  0.37056168  0.64150945  1
  O  O170  1  0.49770298  0.36961786  0.97468524  1
  O  O171  1  0.49304285  0.87454071  0.31217351  1
  O  O172  1  0.49047805  0.87932616  0.65646376  1
  O  O173  1  0.49836409  0.87600815  0.97166116  1
  O  O174  1  0.82350723  0.37917565  0.30886231  1
  O  O175  1  0.82702633  0.37828953  0.65665900  1
  O  O176  1  0.82514852  0.37413375  0.97214681  1
  O  O177  1  0.82993755  0.87225057  0.31844013  1
  O  O178  1  0.82268762  0.87101775  0.63799209  1
  O  O179  1  0.82311785  0.87404893  0.98304515  1
  O  O180  1  0.00496540  0.37733653  0.17707319  1
  O  O181  1  0.00715699  0.37561270  0.51512703  1
  O  O182  1  -0.00295703  0.37117768  0.84414893  1
  O  O183  1  0.00856446  0.87173119  0.18675056  1
  O  O184  1  0.00170970  0.87457545  0.52561074  1
  O  O185  1  0.00607185  0.87818239  0.84455533  1
  O  O186  1  0.33200585  0.37372361  0.18271911  1
  O  O187  1  0.34341383  0.36926632  0.52611550  1
  O  O188  1  0.33810840  0.37108073  0.86010692  1
  O  O189  1  0.32914810  0.88026902  0.19632522  1
  O  O190  1  0.33041545  0.88088032  0.52455477  1
  O  O191  1  0.33495963  0.88110514  0.85740033  1
  O  O192  1  0.67073486  0.37809517  0.19175170  1
  O  O193  1  0.66120904  0.37670992  0.52143685  1
  O  O194  1  0.66775393  0.37599085  0.85548405  1
  O  O195  1  0.66056937  0.87180897  0.19078410  1
  O  O196  1  0.67702464  0.87260746  0.51989788  1
  O  O197  1  0.66172797  0.87652846  0.85647672  1
  O  O198  1  0.00116868  0.12809905  0.14605579  1
  O  O199  1  0.00916733  0.12121115  0.49220646  1
  O  O200  1  0.00123421  0.12408763  0.82164857  1
  O  O201  1  0.00241825  0.62372629  0.15411865  1
  O  O202  1  -0.00152187  0.62992214  0.48015443  1
  O  O203  1  -0.00453165  0.62662246  0.82287839  1
  O  O204  1  0.33711470  0.12395785  0.14152738  1
  O  O205  1  0.33045902  0.12455282  0.47744468  1
  O  O206  1  0.33616544  0.12544927  0.80904302  1
  O  O207  1  0.33301439  0.62158345  0.14048961  1
  O  O208  1  0.33481253  0.62473096  0.49435886  1
  O  O209  1  0.33013490  0.62038863  0.82705912  1
  O  O210  1  0.65452133  0.12597214  0.15329932  1
  O  O211  1  0.65705151  0.12565663  0.48733638  1
  O  O212  1  0.66790368  0.12518945  0.80247045  1
  O  O213  1  0.65568304  0.62369030  0.13712924  1
  O  O214  1  0.65406080  0.62511618  0.48171809  1
  O  O215  1  0.66815916  0.62322160  0.80618646  1
  O  O216  1  0.08826159  0.01535573  0.24948863  1
  O  O217  1  0.09072696  0.01065043  0.58102423  1
  O  O218  1  0.08222242  0.02385096  0.92610145  1
  O  O219  1  0.08291126  0.51916914  0.25221126  1
  O  O220  1  0.09068426  0.50572251  0.58000820  1
  O  O221  1  0.09089365  0.50481199  0.91277905  1
  O  O222  1  0.41239177  0.02467422  0.25210312  1
  O  O223  1  0.41534511  0.02620829  0.59099578  1
  O  O224  1  0.40876807  0.02333531  0.92386872  1
  O  O225  1  0.42272174  0.51348219  0.24322659  1
  O  O226  1  0.42757151  0.51135269  0.57929565  1
  O  O227  1  0.41563664  0.51063797  0.92218540  1
  O  O228  1  0.74950020  0.01073561  0.24162286  1
  O  O229  1  0.73905240  0.01342047  0.59035506  1
  O  O230  1  0.75060708  0.01861358  0.90693341  1
  O  O231  1  0.75557834  0.52285108  0.23634375  1
  O  O232  1  0.75157138  0.52397123  0.57879098  1
  O  O233  1  0.75111315  0.52206929  0.90940544  1
  O  O234  1  0.25035649  0.22605149  0.25064642  1
  O  O235  1  0.25254668  0.22778629  0.58898407  1
  O  O236  1  0.24438494  0.22412446  0.91612485  1
  O  O237  1  0.24158882  0.73472367  0.24309555  1
  O  O238  1  0.25348670  0.74918266  0.58708481  1
  O  O239  1  0.25525560  0.73900083  0.92133329  1
  O  O240  1  0.57358564  0.24266165  0.24154353  1
  O  O241  1  0.57442491  0.23054428  0.57969668  1
  O  O242  1  0.57516024  0.23582639  0.90206243  1
  O  O243  1  0.57995594  0.73206606  0.24409466  1
  O  O244  1  0.59009579  0.73849003  0.58494265  1
  O  O245  1  0.59141317  0.73653903  0.92498351  1
  O  O246  1  0.91238654  0.24184570  0.24251451  1
  O  O247  1  0.91432248  0.24515712  0.58742952  1
  O  O248  1  0.91450585  0.22709594  0.91934087  1
  O  O249  1  0.91809765  0.72999821  0.25078465  1
  O  O250  1  0.90942242  0.73773565  0.57314317  1
  O  O251  1  0.91054507  0.73895125  0.91009802  1
  O  O252  1  0.09246273  0.48925224  0.09008248  1
  O  O253  1  0.08585002  0.48848211  0.41930615  1
  O  O254  1  0.08469166  0.48173199  0.74982885  1
  O  O255  1  0.09439770  0.98734997  0.09113842  1
  O  O256  1  0.08500830  0.97394546  0.41593310  1
  O  O257  1  0.09089904  0.98323557  0.75374537  1
  O  O258  1  0.41628972  0.47895629  0.08417448  1
  O  O259  1  0.42108497  0.48839499  0.42317139  1
  O  O260  1  0.41506999  0.47649956  0.75038968  1
  O  O261  1  0.41866183  0.97580469  0.09191439  1
  O  O262  1  0.41332404  0.99024429  0.41373696  1
  O  O263  1  0.42291375  0.98848949  0.76046732  1
  O  O264  1  0.74223689  0.47904794  0.07552431  1
  O  O265  1  0.74137009  0.49019451  0.40694364  1
  O  O266  1  0.74378474  0.48138950  0.74687174  1
  O  O267  1  0.74259170  0.98663729  0.07578909  1
  O  O268  1  0.75481911  0.98082452  0.41674474  1
  O  O269  1  0.74944503  0.97620111  0.74826503  1
  O  O270  1  0.25334346  0.26905834  0.08158786  1
  O  O271  1  0.24729714  0.26450933  0.42750604  1
  O  O272  1  0.25386951  0.27380391  0.75133026  1
  O  O273  1  0.25522479  0.77491094  0.08182126  1
  O  O274  1  0.24838183  0.77251261  0.41679087  1
  O  O275  1  0.24851093  0.77236371  0.75415500  1
  O  O276  1  0.58373771  0.27512137  0.08176699  1
  O  O277  1  0.58353795  0.27420841  0.41437172  1
  O  O278  1  0.58592126  0.27683861  0.74293731  1
  O  O279  1  0.58016481  0.77617630  0.08387229  1
  O  O280  1  0.59287711  0.76960591  0.40857138  1
  O  O281  1  0.58287922  0.77325324  0.75158041  1
  O  O282  1  0.90822878  0.26440230  0.08524850  1
  O  O283  1  0.91263211  0.25616886  0.41383081  1
  O  O284  1  0.90730656  0.25995332  0.75599380  1
  O  O285  1  0.91372213  0.75173755  0.08365141  1
  O  O286  1  0.92271481  0.77245860  0.41368610  1
  O  O287  1  0.91783299  0.77129922  0.73947108  1
  O  O288  1  0.25160156  0.47571700  0.08325827  1
  O  O289  1  0.24677574  0.48474574  0.42722851  1
  O  O290  1  0.24901149  0.47524698  0.75665762  1
  O  O291  1  0.25626100  0.97843087  0.08085306  1
  O  O292  1  0.24813353  0.97504586  0.41446597  1
  O  O293  1  0.25677441  0.97724321  0.74777718  1
  O  O294  1  0.57829020  0.47493960  0.08950576  1
  O  O295  1  0.58136111  0.47859717  0.42042738  1
  O  O296  1  0.58053005  0.47341492  0.75241342  1
  O  O297  1  0.58378135  0.97453388  0.07732204  1
  O  O298  1  0.59173625  0.98078678  0.40636678  1
  O  O299  1  0.58870962  0.97686964  0.74207679  1
  O  O300  1  0.90544153  0.48804954  0.09166274  1
  O  O301  1  0.91538402  0.49896105  0.41713139  1
  O  O302  1  0.90914454  0.48803615  0.75422476  1
  O  O303  1  0.91984048  0.99794233  0.07940865  1
  O  O304  1  0.92145845  0.97764952  0.41354122  1
  O  O305  1  0.91694735  0.98204745  0.74261039  1
  O  O306  1  0.09308986  0.26293907  0.09057674  1
  O  O307  1  0.08994921  0.26060242  0.42312644  1
  O  O308  1  0.09054361  0.26311791  0.75911073  1
  O  O309  1  0.09484609  0.76110932  0.09118178  1
  O  O310  1  0.08412661  0.77745720  0.41427159  1
  O  O311  1  0.08442866  0.77118092  0.74650655  1
  O  O312  1  0.41905952  0.26987784  0.09172894  1
  O  O313  1  0.42485187  0.25989729  0.42893115  1
  O  O314  1  0.42154797  0.26865349  0.75396322  1
  O  O315  1  0.41933949  0.77406035  0.08489080  1
  O  O316  1  0.41217660  0.76371736  0.41330539  1
  O  O317  1  0.41538476  0.76837156  0.75409252  1
  O  O318  1  0.74541396  0.27394774  0.07725734  1
  O  O319  1  0.74343933  0.26553240  0.40690035  1
  O  O320  1  0.74712884  0.27304657  0.75005460  1
  O  O321  1  0.73881968  0.75957365  0.07127083  1
  O  O322  1  0.75412930  0.76624751  0.41766419  1
  O  O323  1  0.74524925  0.76809377  0.74206764  1
  O  O324  1  0.25000383  0.02429046  0.24837606  1
  O  O325  1  0.24881522  0.02484374  0.58521721  1
  O  O326  1  0.24544935  0.02582271  0.91276925  1
  O  O327  1  0.24352405  0.51481006  0.24284175  1
  O  O328  1  0.25696971  0.49877507  0.59083963  1
  O  O329  1  0.25513115  0.50941932  0.92287547  1
  O  O330  1  0.57108056  0.00928780  0.23791719  1
  O  O331  1  0.57680635  0.01780471  0.58040987  1
  O  O332  1  0.57351032  0.01609977  0.90086490  1
  O  O333  1  0.58637935  0.51637855  0.25128695  1
  O  O334  1  0.58958102  0.51358501  0.58749423  1
  O  O335  1  0.59156593  0.51221953  0.92490301  1
  O  O336  1  0.91612482  0.00972158  0.24423226  1
  O  O337  1  0.91125132  0.00178474  0.57960352  1
  O  O338  1  0.91166126  0.02070017  0.91456392  1
  O  O339  1  0.91730197  0.52130035  0.25159717  1
  O  O340  1  0.91472474  0.51637434  0.58040104  1
  O  O341  1  0.91163604  0.51149998  0.91482504  1
  O  O342  1  0.08976384  0.23661741  0.24872345  1
  O  O343  1  0.09221124  0.23852038  0.58460491  1
  O  O344  1  0.08149237  0.22612203  0.92633844  1
  O  O345  1  0.08133597  0.72936089  0.25520529  1
  O  O346  1  0.08945073  0.74396420  0.57822086  1
  O  O347  1  0.09320425  0.74388482  0.91394485  1
  O  O348  1  0.41311915  0.22776260  0.25535471  1
  O  O349  1  0.41391091  0.22027355  0.59076954  1
  O  O350  1  0.40986196  0.22541912  0.92134080  1
  O  O351  1  0.41912074  0.73463986  0.24399904  1
  O  O352  1  0.42523910  0.73683632  0.57986139  1
  O  O353  1  0.41470132  0.73752736  0.92531794  1
  O  O354  1  0.75505613  0.23707595  0.23538962  1
  O  O355  1  0.73860495  0.24000799  0.58998703  1
  O  O356  1  0.75353871  0.23249063  0.90676679  1
  O  O357  1  0.75117858  0.72906844  0.24086629  1
  O  O358  1  0.75051160  0.72204949  0.57933420  1
  O  O359  1  0.75190172  0.72703666  0.90896521  1
