# generated using pymatgen
data_Ba17Sr5La8Pr42Mn72O216
_symmetry_space_group_name_H-M   'P 1'
_cell_length_a   16.66790286
_cell_length_b   15.70937754
_cell_length_c   16.82096979
_cell_angle_alpha   90.00124886
_cell_angle_beta   90.05200018
_cell_angle_gamma   89.96964032
_symmetry_Int_Tables_number   1
_chemical_formula_structural   Ba17Sr5La8Pr42Mn72O216
_chemical_formula_sum   'Ba17 Sr5 La8 Pr42 Mn72 O216'
_cell_volume   4404.44031151
_cell_formula_units_Z   1
loop_
 _symmetry_equiv_pos_site_id
 _symmetry_equiv_pos_as_xyz
  1  'x, y, z'
loop_
 _atom_site_type_symbol
 _atom_site_label
 _atom_site_symmetry_multiplicity
 _atom_site_fract_x
 _atom_site_fract_y
 _atom_site_fract_z
 _atom_site_occupancy
  Ba  Ba0  1  0.66561575  0.37572789  0.33252114  1
  Ba  Ba1  1  0.83376468  0.37462544  0.16614267  1
  Ba  Ba2  1  0.16570370  0.87392529  0.50097162  1
  Ba  Ba3  1  0.33591999  0.87502705  0.00029162  1
  Ba  Ba4  1  0.33507392  0.12468785  0.99757715  1
  Ba  Ba5  1  0.16945954  0.62410614  0.16926006  1
  Ba  Ba6  1  0.83133280  0.12483047  0.50278544  1
  Ba  Ba7  1  0.33419013  0.87174718  0.66668486  1
  Ba  Ba8  1  0.16525381  0.12669136  0.83404927  1
  Ba  Ba9  1  0.50159249  0.87462862  0.16729166  1
  Ba  Ba10  1  0.66674736  0.87421607  0.33440682  1
  Ba  Ba11  1  0.33392069  0.12692118  0.33369050  1
  Ba  Ba12  1  0.00209028  0.62493474  0.33081907  1
  Ba  Ba13  1  0.83594761  0.62442737  0.16599654  1
  Ba  Ba14  1  0.49958135  0.12665048  0.50165345  1
  Ba  Ba15  1  0.83616344  0.12457286  0.16748736  1
  Ba  Ba16  1  0.50194584  0.12806346  0.83271418  1
  Sr  Sr17  1  -0.00077385  0.62596436  0.66121619  1
  Sr  Sr18  1  0.66244354  0.12719395  0.66401601  1
  Sr  Sr19  1  -0.00450384  0.37647515  0.33179203  1
  Sr  Sr20  1  0.16405572  0.62514633  0.50094623  1
  Sr  Sr21  1  0.49735333  0.37511134  0.83241551  1
  La  La22  1  0.33158486  0.62636787  0.33280225  1
  La  La23  1  0.17134101  0.87779182  0.82747336  1
  La  La24  1  0.50197339  0.62441768  0.50113778  1
  La  La25  1  0.83371015  0.62373614  0.49809232  1
  La  La26  1  0.83786149  0.87302111  0.16500016  1
  La  La27  1  0.83427181  0.62634170  0.83472597  1
  La  La28  1  0.00562789  0.87648573  -0.00043803  1
  La  La29  1  0.33056950  0.37532472  0.66889117  1
  Pr  Pr30  1  0.33787067  0.62495228  1.00021152  1
  Pr  Pr31  1  0.66522401  0.12546044  0.33226432  1
  Pr  Pr32  1  0.66884514  0.62516997  0.99885034  1
  Pr  Pr33  1  0.32708438  0.37644988  0.33728634  1
  Pr  Pr34  1  0.83055593  0.12361136  0.83507981  1
  Pr  Pr35  1  0.50069349  0.87768971  0.83261242  1
  Pr  Pr36  1  0.16722465  0.12691054  0.50641090  1
  Pr  Pr37  1  0.50352942  0.12150484  0.16827395  1
  Pr  Pr38  1  -0.00116515  0.87277634  0.33188794  1
  Pr  Pr39  1  0.00188486  0.87324486  0.66834454  1
  Pr  Pr40  1  0.83011047  0.37777146  0.83262388  1
  Pr  Pr41  1  0.16347660  0.37477621  0.16893613  1
  Pr  Pr42  1  0.49433623  0.37301193  0.49762202  1
  Pr  Pr43  1  0.83540276  0.87255648  0.82964685  1
  Pr  Pr44  1  0.15566934  0.37761677  0.49641084  1
  Pr  Pr45  1  0.66730066  0.88042972  0.66692846  1
  Pr  Pr46  1  0.16868248  0.62599731  0.83732331  1
  Pr  Pr47  1  0.33182630  0.62254551  0.66435591  1
  Pr  Pr48  1  0.49939478  0.62403363  0.83612638  1
  Pr  Pr49  1  0.66124685  0.37295675  0.00661813  1
  Pr  Pr50  1  0.66958225  0.62452887  0.32904447  1
  Pr  Pr51  1  0.83388353  0.87295311  0.49876441  1
  Pr  Pr52  1  0.50087217  0.62673744  0.16975575  1
  Pr  Pr53  1  0.17075007  0.12501945  0.16567354  1
  Pr  Pr54  1  0.00310869  0.12354299  0.33165102  1
  Pr  Pr55  1  0.66454758  0.36997394  0.66640588  1
  Pr  Pr56  1  0.66675788  0.62123587  0.66558867  1
  Pr  Pr57  1  0.49549235  0.37315157  0.16405278  1
  Pr  Pr58  1  0.00000467  0.62034160  0.99696035  1
  Pr  Pr59  1  0.33662767  0.12465270  0.66283534  1
  Pr  Pr60  1  -0.00661297  0.37659237  0.66556648  1
  Pr  Pr61  1  0.66654067  0.12488373  0.99848432  1
  Pr  Pr62  1  -0.00288959  0.12756949  0.99503982  1
  Pr  Pr63  1  0.00099999  0.37238736  0.00386204  1
  Pr  Pr64  1  0.17133004  0.87464083  0.16741044  1
  Pr  Pr65  1  0.49834223  0.87801896  0.49476895  1
  Pr  Pr66  1  0.00023605  0.12394202  0.66191923  1
  Pr  Pr67  1  0.82971040  0.37585693  0.49243340  1
  Pr  Pr68  1  0.16427361  0.37404507  0.83102363  1
  Pr  Pr69  1  0.33299756  0.87321018  0.33853440  1
  Pr  Pr70  1  0.66913140  0.87686356  0.00537838  1
  Pr  Pr71  1  0.32893298  0.37170750  -0.00066941  1
  Mn  Mn72  1  0.00477597  0.00072620  0.16537604  1
  Mn  Mn73  1  -0.00088216  -0.00128002  0.49887252  1
  Mn  Mn74  1  -0.00189438  -0.00034958  0.83237479  1
  Mn  Mn75  1  0.00144309  0.49801675  0.16531209  1
  Mn  Mn76  1  -0.00184133  0.50169625  0.50082077  1
  Mn  Mn77  1  -0.00075527  0.49981955  0.83076538  1
  Mn  Mn78  1  0.33433747  0.00197785  0.16781231  1
  Mn  Mn79  1  0.33206033  0.00032673  0.50027597  1
  Mn  Mn80  1  0.33449458  -0.00015352  0.83204762  1
  Mn  Mn81  1  0.33500051  0.49728368  0.16722965  1
  Mn  Mn82  1  0.33126691  0.50062802  0.50136664  1
  Mn  Mn83  1  0.33232944  0.50024352  0.83330509  1
  Mn  Mn84  1  0.66986917  -0.00016635  0.16668840  1
  Mn  Mn85  1  0.66658977  -0.00076004  0.50253817  1
  Mn  Mn86  1  0.66796989  -0.00095271  0.83461205  1
  Mn  Mn87  1  0.66481185  0.50035588  0.16620927  1
  Mn  Mn88  1  0.66552373  0.50108184  0.50018209  1
  Mn  Mn89  1  0.66624944  0.49899444  0.83287923  1
  Mn  Mn90  1  0.00280327  0.24835988  0.16649533  1
  Mn  Mn91  1  -0.00183650  0.25037984  0.49940250  1
  Mn  Mn92  1  -0.00389692  0.25290347  0.83150592  1
  Mn  Mn93  1  0.00343787  0.75283662  0.16423178  1
  Mn  Mn94  1  -0.00130012  0.75022216  0.50037216  1
  Mn  Mn95  1  0.00063683  0.74743167  0.83224629  1
  Mn  Mn96  1  0.33395470  0.25183790  0.16665592  1
  Mn  Mn97  1  0.32973631  0.25257299  0.50227689  1
  Mn  Mn98  1  0.33282009  0.25310519  0.83251763  1
  Mn  Mn99  1  0.33491900  0.74922720  0.16744105  1
  Mn  Mn100  1  0.33323178  0.74671954  0.50115638  1
  Mn  Mn101  1  0.33447128  0.74706614  0.83369487  1
  Mn  Mn102  1  0.66609512  0.24952089  0.16658715  1
  Mn  Mn103  1  0.66554083  0.25160216  0.50095653  1
  Mn  Mn104  1  0.66789277  0.25201646  0.83438248  1
  Mn  Mn105  1  0.66892463  0.74946993  0.16563484  1
  Mn  Mn106  1  0.66589969  0.74743112  0.50256692  1
  Mn  Mn107  1  0.66644787  0.74982551  0.83282222  1
  Mn  Mn108  1  0.16553079  0.25173804  -0.00015014  1
  Mn  Mn109  1  0.16467809  0.24976684  0.33494682  1
  Mn  Mn110  1  0.16394451  0.25269758  0.66617190  1
  Mn  Mn111  1  0.16703270  0.74793185  -0.00052676  1
  Mn  Mn112  1  0.16748563  0.75122422  0.33346202  1
  Mn  Mn113  1  0.16419905  0.74702211  0.66852877  1
  Mn  Mn114  1  0.50046080  0.25292760  -0.00039444  1
  Mn  Mn115  1  0.49970341  0.25156729  0.33165301  1
  Mn  Mn116  1  0.49845379  0.25339178  0.66698019  1
  Mn  Mn117  1  0.50324198  0.74704587  -0.00051523  1
  Mn  Mn118  1  0.49918487  0.74768104  0.33589542  1
  Mn  Mn119  1  0.50274726  0.74782151  0.66797340  1
  Mn  Mn120  1  0.83278544  0.24921623  -0.00313778  1
  Mn  Mn121  1  0.83471588  0.24893125  0.33471269  1
  Mn  Mn122  1  0.83230571  0.25208090  0.66766518  1
  Mn  Mn123  1  0.83578802  0.75052394  -0.00236122  1
  Mn  Mn124  1  0.83346650  0.75153935  0.33297545  1
  Mn  Mn125  1  0.83158390  0.74843831  0.66606540  1
  Mn  Mn126  1  0.16677872  -0.00147493  -0.00090055  1
  Mn  Mn127  1  0.16694145  0.00191629  0.33306686  1
  Mn  Mn128  1  0.16552684  0.00121655  0.66688910  1
  Mn  Mn129  1  0.16675203  0.50010381  -0.00021264  1
  Mn  Mn130  1  0.16604257  0.49868982  0.33467302  1
  Mn  Mn131  1  0.16362914  0.49955938  0.66673644  1
  Mn  Mn132  1  0.50296317  0.00024493  -0.00052455  1
  Mn  Mn133  1  0.49999345  0.00076381  0.33376897  1
  Mn  Mn134  1  0.50018184  -0.00176594  0.66625934  1
  Mn  Mn135  1  0.50065407  0.49945848  0.00019902  1
  Mn  Mn136  1  0.49773921  0.49960710  0.33378913  1
  Mn  Mn137  1  0.50025107  0.50030258  0.66780315  1
  Mn  Mn138  1  0.83529861  -0.00087681  -0.00185632  1
  Mn  Mn139  1  0.83449769  0.00036672  0.33452379  1
  Mn  Mn140  1  0.83317958  -0.00122380  0.66839460  1
  Mn  Mn141  1  0.83297011  0.50083564  -0.00373545  1
  Mn  Mn142  1  0.83375940  0.49949079  0.33324428  1
  Mn  Mn143  1  0.83194385  0.50027306  0.66543037  1
  O  O144  1  0.15913425  0.12961385  0.02069696  1
  O  O145  1  0.16113639  0.12678920  0.36217962  1
  O  O146  1  0.15728092  0.12838129  0.67864460  1
  O  O147  1  0.16245247  0.62319270  0.01494027  1
  O  O148  1  0.17380091  0.62223609  0.34849506  1
  O  O149  1  0.16510722  0.62055852  0.69289897  1
  O  O150  1  0.50833522  0.13047960  0.02035528  1
  O  O151  1  0.50911384  0.12681211  0.34494191  1
  O  O152  1  0.49468135  0.12831933  0.67625315  1
  O  O153  1  0.49974193  0.62099713  0.02482257  1
  O  O154  1  0.49742686  0.62242382  0.35835954  1
  O  O155  1  0.50697640  0.62282928  0.69440066  1
  O  O156  1  0.83727575  0.12187814  0.01128642  1
  O  O157  1  0.84201199  0.12267221  0.34624807  1
  O  O158  1  0.84038994  0.12374739  0.69262446  1
  O  O159  1  0.83627601  0.62618729  0.01043917  1
  O  O160  1  0.82979282  0.62700626  0.35161303  1
  O  O161  1  0.82868408  0.62442486  0.69363290  1
  O  O162  1  0.17019068  0.37273114  0.31383272  1
  O  O163  1  0.16759954  0.37577551  0.63983380  1
  O  O164  1  0.16452081  0.37821679  0.97419797  1
  O  O165  1  0.16877639  0.87942426  0.31172362  1
  O  O166  1  0.16038934  0.87490658  0.65924674  1
  O  O167  1  0.16113433  0.86765826  0.97086520  1
  O  O168  1  0.49224886  0.37731819  0.30811559  1
  O  O169  1  0.49794352  0.38079510  0.64261539  1
  O  O170  1  0.51081247  0.37887230  0.97973423  1
  O  O171  1  0.49035074  0.87311935  0.32468997  1
  O  O172  1  0.50520186  0.86705585  0.64020719  1
  O  O173  1  0.51108721  0.86857486  0.97744721  1
  O  O174  1  0.83426650  0.37361660  0.32628471  1
  O  O175  1  0.83343862  0.38002009  0.63784448  1
  O  O176  1  0.83371187  0.37630377  0.97645034  1
  O  O177  1  0.83618598  0.87713338  0.31054309  1
  O  O178  1  0.82835145  0.87125455  0.64292488  1
  O  O179  1  0.83248547  0.87473276  0.97203571  1
  O  O180  1  0.00756130  0.36967312  0.18032082  1
  O  O181  1  -0.00021762  0.37556564  0.52242460  1
  O  O182  1  -0.00249387  0.37727910  0.86080835  1
  O  O183  1  0.00553353  0.87962780  0.18706639  1
  O  O184  1  -0.00674060  0.87427821  0.52480476  1
  O  O185  1  -0.00266051  0.86953937  0.85663978  1
  O  O186  1  0.34179550  0.37529658  0.19367302  1
  O  O187  1  0.33853888  0.37900544  0.52518283  1
  O  O188  1  0.32699639  0.38026600  0.85487721  1
  O  O189  1  0.32993155  0.87825808  0.19029312  1
  O  O190  1  0.34193950  0.87221922  0.50985941  1
  O  O191  1  0.33237943  0.86761941  0.84243826  1
  O  O192  1  0.66273234  0.37506295  0.17454304  1
  O  O193  1  0.67494715  0.37936501  0.52168073  1
  O  O194  1  0.67527055  0.37761530  0.86262833  1
  O  O195  1  0.67464869  0.87417638  0.17567199  1
  O  O196  1  0.66778132  0.86805740  0.52423932  1
  O  O197  1  0.66679382  0.87103149  0.86191052  1
  O  O198  1  0.00919680  0.12309816  0.13782707  1
  O  O199  1  0.00398665  0.12430495  0.47742510  1
  O  O200  1  -0.00890015  0.13053169  0.80482832  1
  O  O201  1  0.00283575  0.62849179  0.14184812  1
  O  O202  1  -0.00630330  0.62780071  0.48805553  1
  O  O203  1  -0.00084216  0.62316931  0.80901433  1
  O  O204  1  0.32782190  0.12948361  0.15367052  1
  O  O205  1  0.32350292  0.12811978  0.49119042  1
  O  O206  1  0.33420193  0.13119512  0.81031396  1
  O  O207  1  0.33737186  0.61777377  0.14310761  1
  O  O208  1  0.33379415  0.62109458  0.47656170  1
  O  O209  1  0.33399637  0.62253269  0.80906208  1
  O  O210  1  0.66015670  0.12555037  0.14391415  1
  O  O211  1  0.66383830  0.12817938  0.48011849  1
  O  O212  1  0.67484321  0.12499025  0.81251619  1
  O  O213  1  0.65995747  0.62446357  0.14452790  1
  O  O214  1  0.66099635  0.62420148  0.47341707  1
  O  O215  1  0.66576374  0.62572392  0.80653217  1
  O  O216  1  0.08819197  0.02637478  0.24757726  1
  O  O217  1  0.08326482  0.01928111  0.57972873  1
  O  O218  1  0.07298186  0.01409071  0.92336422  1
  O  O219  1  0.09047491  0.50181747  0.24588834  1
  O  O220  1  0.08517575  0.51113499  0.58137052  1
  O  O221  1  0.08379316  0.52026144  0.91074496  1
  O  O222  1  0.42156063  0.01626536  0.24694936  1
  O  O223  1  0.40985993  0.01170366  0.58780058  1
  O  O224  1  0.42211701  0.00208299  0.91402942  1
  O  O225  1  0.42260317  0.52251328  0.24484216  1
  O  O226  1  0.41949664  0.52379739  0.58114377  1
  O  O227  1  0.41993245  0.52154762  0.91610044  1
  O  O228  1  0.74644258  0.01731690  0.25665818  1
  O  O229  1  0.74644829  0.00961164  0.59387564  1
  O  O230  1  0.74945498  0.01930325  0.91865699  1
  O  O231  1  0.74509808  0.51500487  0.25224068  1
  O  O232  1  0.75095242  0.52558411  0.58356992  1
  O  O233  1  0.75381425  0.52346477  0.90873078  1
  O  O234  1  0.24637691  0.24134653  0.24727101  1
  O  O235  1  0.24848287  0.23259883  0.58864098  1
  O  O236  1  0.24761561  0.24765695  0.91698930  1
  O  O237  1  0.25760539  0.74045017  0.25667096  1
  O  O238  1  0.25118399  0.72857570  0.58794820  1
  O  O239  1  0.25214313  0.72419234  0.92011480  1
  O  O240  1  0.58786561  0.23069873  0.25097430  1
  O  O241  1  0.58374247  0.25099471  0.58591570  1
  O  O242  1  0.59453681  0.23859624  0.92700140  1
  O  O243  1  0.58124151  0.72863345  0.25308202  1
  O  O244  1  0.58415523  0.72185522  0.58614684  1
  O  O245  1  0.58157425  0.72236535  0.91133439  1
  O  O246  1  0.92687978  0.23579628  0.25412493  1
  O  O247  1  0.92550578  0.23694423  0.59361018  1
  O  O248  1  0.91338258  0.22991057  0.91026563  1
  O  O249  1  0.91824427  0.74976799  0.24450895  1
  O  O250  1  0.90603856  0.73514807  0.57877374  1
  O  O251  1  0.91748482  0.72871705  0.91280203  1
  O  O252  1  0.08236597  0.47876840  0.07767416  1
  O  O253  1  0.08145427  0.48400642  0.41764690  1
  O  O254  1  0.07844609  0.47217116  0.74841490  1
  O  O255  1  0.08864750  0.97548306  0.08529564  1
  O  O256  1  0.07502469  0.98414573  0.40574863  1
  O  O257  1  0.07871304  0.98277066  0.74934861  1
  O  O258  1  0.41308196  0.47494314  0.07712420  1
  O  O259  1  0.40927315  0.47868076  0.41112193  1
  O  O260  1  0.40922158  0.48551952  0.74423635  1
  O  O261  1  0.42274855  0.99773744  0.08617966  1
  O  O262  1  0.41633435  0.98566660  0.41741519  1
  O  O263  1  0.42373474  0.98387909  0.75224458  1
  O  O264  1  0.74193313  0.49100199  0.06898682  1
  O  O265  1  0.75031359  0.49210822  0.42174738  1
  O  O266  1  0.74758651  0.47663535  0.74510370  1
  O  O267  1  0.75726803  0.98070565  0.08247551  1
  O  O268  1  0.75301441  0.98442816  0.42610534  1
  O  O269  1  0.75316523  0.97508128  0.75623788  1
  O  O270  1  0.25021448  0.27509655  0.08531269  1
  O  O271  1  0.24482840  0.27399418  0.42348942  1
  O  O272  1  0.24556690  0.27406449  0.75021958  1
  O  O273  1  0.24725097  0.76424490  0.08790749  1
  O  O274  1  0.25408004  0.76237636  0.41232283  1
  O  O275  1  0.24335213  0.75542272  0.75820560  1
  O  O276  1  0.57605129  0.26951544  0.08921149  1
  O  O277  1  0.57559964  0.27066128  0.42264937  1
  O  O278  1  0.58567326  0.27074195  0.75190316  1
  O  O279  1  0.59492428  0.75955660  0.07194439  1
  O  O280  1  0.57674982  0.76355120  0.42638526  1
  O  O281  1  0.58794779  0.77572611  0.74876891  1
  O  O282  1  0.92387899  0.26088779  0.07360209  1
  O  O283  1  0.91346133  0.26748917  0.42461640  1
  O  O284  1  0.91316743  0.28063840  0.75169683  1
  O  O285  1  0.92245538  0.77393180  0.07896135  1
  O  O286  1  0.91665184  0.77306894  0.41506103  1
  O  O287  1  0.91699150  0.77058742  0.74743615  1
  O  O288  1  0.24909855  0.47340070  0.08860353  1
  O  O289  1  0.24422821  0.47613974  0.42377321  1
  O  O290  1  0.24168130  0.48006764  0.75439165  1
  O  O291  1  0.24665441  0.98786480  0.08832255  1
  O  O292  1  0.25339508  0.98424001  0.41159643  1
  O  O293  1  0.24785715  0.99179597  0.74984473  1
  O  O294  1  0.57653923  0.48215074  0.08803636  1
  O  O295  1  0.56988226  0.48306996  0.42675596  1
  O  O296  1  0.58425850  0.47854248  0.75148760  1
  O  O297  1  0.59331658  0.98811163  0.07689511  1
  O  O298  1  0.57974585  0.98470246  0.42086526  1
  O  O299  1  0.58611860  0.97627548  0.75206009  1
  O  O300  1  0.92194885  0.48719015  0.07238986  1
  O  O301  1  0.91087613  0.48738845  0.42466931  1
  O  O302  1  0.91231538  0.47686152  0.75093132  1
  O  O303  1  0.92142825  0.97913212  0.07846584  1
  O  O304  1  0.91503855  0.97540121  0.41915890  1
  O  O305  1  0.91565245  0.97214527  0.74960355  1
  O  O306  1  0.08828691  0.27252815  0.08490809  1
  O  O307  1  0.08020522  0.26976248  0.41682263  1
  O  O308  1  0.07874013  0.27623910  0.74780834  1
  O  O309  1  0.08505137  0.77372803  0.08074232  1
  O  O310  1  0.07992071  0.76509880  0.41116007  1
  O  O311  1  0.08169136  0.76961141  0.75406257  1
  O  O312  1  0.41377403  0.27501371  0.07807700  1
  O  O313  1  0.41096755  0.27150537  0.41485699  1
  O  O314  1  0.41149163  0.27217412  0.74623762  1
  O  O315  1  0.42091625  0.75285003  0.08473417  1
  O  O316  1  0.41654198  0.76211389  0.41732795  1
  O  O317  1  0.42863786  0.75931201  0.75880310  1
  O  O318  1  0.74078046  0.25967026  0.07337806  1
  O  O319  1  0.74960547  0.26112856  0.42207933  1
  O  O320  1  0.75010074  0.27609241  0.75165664  1
  O  O321  1  0.75769825  0.76882685  0.08138046  1
  O  O322  1  0.75556912  0.76088314  0.42829309  1
  O  O323  1  0.75187285  0.77205307  0.75326201  1
  O  O324  1  0.24471766  0.01647866  0.24611571  1
  O  O325  1  0.24704173  0.01861220  0.58346300  1
  O  O326  1  0.24587483  0.00412334  0.91420740  1
  O  O327  1  0.26210398  0.50770949  0.26164894  1
  O  O328  1  0.25498464  0.51803481  0.59183199  1
  O  O329  1  0.25351672  0.52248940  0.92121939  1
  O  O330  1  0.58445157  0.01736325  0.24996498  1
  O  O331  1  0.58392562  0.00414541  0.58723978  1
  O  O332  1  0.59032292  0.01426082  0.91878896  1
  O  O333  1  0.58274717  0.52293550  0.25632078  1
  O  O334  1  0.58707432  0.51920216  0.58717037  1
  O  O335  1  0.58687445  0.52428293  0.92105643  1
  O  O336  1  0.92817259  0.01099206  0.25374791  1
  O  O337  1  0.92232782  0.01211306  0.59199974  1
  O  O338  1  0.91328991  0.01935492  0.91147148  1
  O  O339  1  0.91944357  0.50454695  0.24819304  1
  O  O340  1  0.91503371  0.51716642  0.58615000  1
  O  O341  1  0.91768500  0.52093410  0.91234440  1
  O  O342  1  0.08698007  0.22493724  0.24845768  1
  O  O343  1  0.08446188  0.23323083  0.57866593  1
  O  O344  1  0.07205652  0.23902661  0.92161179  1
  O  O345  1  0.08754217  0.74896775  0.24691977  1
  O  O346  1  0.07843249  0.73941828  0.58758580  1
  O  O347  1  0.08170687  0.72411856  0.91546479  1
  O  O348  1  0.42726556  0.23530223  0.23763571  1
  O  O349  1  0.40817703  0.24171073  0.58734456  1
  O  O350  1  0.41751329  0.25043806  0.91629501  1
  O  O351  1  0.41816251  0.72660864  0.25170602  1
  O  O352  1  0.41741527  0.72294042  0.58833660  1
  O  O353  1  0.41741885  0.72489590  0.91896010  1
  O  O354  1  0.74714967  0.23360919  0.25361175  1
  O  O355  1  0.74661763  0.24117010  0.59080537  1
  O  O356  1  0.75324790  0.22859565  0.91202087  1
  O  O357  1  0.74533550  0.73442008  0.25602591  1
  O  O358  1  0.74482789  0.72386594  0.58797237  1
  O  O359  1  0.74687912  0.72800071  0.91571612  1
