# generated using pymatgen
data_Ba17Sr5La8Pr42Mn72O216
_symmetry_space_group_name_H-M   'P 1'
_cell_length_a   16.67306497
_cell_length_b   15.70400900
_cell_length_c   16.81498430
_cell_angle_alpha   90.00665057
_cell_angle_beta   90.00453034
_cell_angle_gamma   90.02549039
_symmetry_Int_Tables_number   1
_chemical_formula_structural   Ba17Sr5La8Pr42Mn72O216
_chemical_formula_sum   'Ba17 Sr5 La8 Pr42 Mn72 O216'
_cell_volume   4402.73348768
_cell_formula_units_Z   1
loop_
 _symmetry_equiv_pos_site_id
 _symmetry_equiv_pos_as_xyz
  1  'x, y, z'
loop_
 _atom_site_type_symbol
 _atom_site_label
 _atom_site_symmetry_multiplicity
 _atom_site_fract_x
 _atom_site_fract_y
 _atom_site_fract_z
 _atom_site_occupancy
  Ba  Ba0  1  0.66468390  0.87579725  0.33534108  1
  Ba  Ba1  1  -0.00253829  0.62461008  0.99892352  1
  Ba  Ba2  1  0.50261101  0.37469686  0.83205012  1
  Ba  Ba3  1  0.49662195  0.12523494  0.83270915  1
  Ba  Ba4  1  0.33207686  0.12611804  0.99581389  1
  Ba  Ba5  1  0.83546137  0.12672788  0.83656431  1
  Ba  Ba6  1  0.00142841  0.87482933  0.00124962  1
  Ba  Ba7  1  0.50260757  0.87463791  0.83186900  1
  Ba  Ba8  1  0.00242756  0.62352033  0.66342133  1
  Ba  Ba9  1  0.66222925  0.62551023  0.33222429  1
  Ba  Ba10  1  0.83139098  0.12756604  0.16826498  1
  Ba  Ba11  1  0.83200640  0.62497463  0.50178318  1
  Ba  Ba12  1  0.83417819  0.87543373  0.50043772  1
  Ba  Ba13  1  0.16843129  0.37500048  0.16446399  1
  Ba  Ba14  1  0.16757875  0.87425083  0.16508736  1
  Ba  Ba15  1  0.00013047  0.87643491  0.33502649  1
  Ba  Ba16  1  -0.00280699  0.62355526  0.33530034  1
  Sr  Sr17  1  -0.00070980  0.12686746  0.66631729  1
  Sr  Sr18  1  0.33557065  0.12500410  0.66626325  1
  Sr  Sr19  1  0.67083080  0.37119090  0.00129885  1
  Sr  Sr20  1  0.16520338  0.62534647  0.49958523  1
  Sr  Sr21  1  0.33426929  0.37425109  0.33275338  1
  La  La22  1  0.82757303  0.12159335  0.50612996  1
  La  La23  1  0.66137960  0.62367665  1.00209658  1
  La  La24  1  0.33434595  0.62518931  0.66316130  1
  La  La25  1  0.00435803  0.87430863  0.66682574  1
  La  La26  1  0.83158890  0.62729204  0.17304608  1
  La  La27  1  0.33039413  0.12767363  0.32904511  1
  La  La28  1  0.83638732  0.87391090  0.16977119  1
  La  La29  1  0.66301909  0.62453115  0.66399289  1
  Pr  Pr30  1  0.66012769  0.12607956  0.66848341  1
  Pr  Pr31  1  0.50559735  0.87442260  0.16203399  1
  Pr  Pr32  1  0.16350262  0.12565695  0.50414002  1
  Pr  Pr33  1  0.67583847  0.37544300  0.67374254  1
  Pr  Pr34  1  0.33600115  0.37610354  0.66661773  1
  Pr  Pr35  1  0.67708320  0.87570179  0.67012601  1
  Pr  Pr36  1  0.33502911  0.87419259  0.66773758  1
  Pr  Pr37  1  0.83991163  0.37487470  0.83459046  1
  Pr  Pr38  1  0.00143611  0.12438391  0.99837105  1
  Pr  Pr39  1  0.49944545  0.87579858  0.49797901  1
  Pr  Pr40  1  0.83737503  0.37813089  0.16648963  1
  Pr  Pr41  1  0.16967778  0.37651347  0.83157770  1
  Pr  Pr42  1  0.49208075  0.62423664  0.83595895  1
  Pr  Pr43  1  0.32601841  0.62333245  0.99941227  1
  Pr  Pr44  1  0.82801645  0.62531557  0.83714496  1
  Pr  Pr45  1  0.16369249  0.12246412  0.16690476  1
  Pr  Pr46  1  0.16774502  0.37665835  0.49394271  1
  Pr  Pr47  1  0.49704396  0.12344879  0.50291368  1
  Pr  Pr48  1  0.49797042  0.12645217  0.16516532  1
  Pr  Pr49  1  0.48986838  0.62440751  0.17035642  1
  Pr  Pr50  1  0.00720835  0.37506455  0.66814103  1
  Pr  Pr51  1  0.33940346  0.87697537  0.00214747  1
  Pr  Pr52  1  0.16894334  0.87361752  0.83256494  1
  Pr  Pr53  1  -0.00164500  0.12369435  0.33383403  1
  Pr  Pr54  1  0.84171881  0.87620395  0.83266667  1
  Pr  Pr55  1  0.15712201  0.62605026  0.17034337  1
  Pr  Pr56  1  0.84154864  0.37533561  0.50179109  1
  Pr  Pr57  1  0.67070056  0.37367044  0.33543750  1
  Pr  Pr58  1  0.16589898  0.87286238  0.49473887  1
  Pr  Pr59  1  0.66134210  0.12644711  0.99559160  1
  Pr  Pr60  1  0.00072221  0.37178625  0.33563817  1
  Pr  Pr61  1  0.33281562  0.87406660  0.33500079  1
  Pr  Pr62  1  0.34350812  0.37285262  0.00283160  1
  Pr  Pr63  1  0.49793145  0.62504801  0.49742357  1
  Pr  Pr64  1  0.50455591  0.37657868  0.16107160  1
  Pr  Pr65  1  0.16299949  0.62548776  0.83177863  1
  Pr  Pr66  1  0.16529855  0.12456218  0.83516758  1
  Pr  Pr67  1  0.67286548  0.88071916  0.00301273  1
  Pr  Pr68  1  0.66226791  0.12278716  0.33338222  1
  Pr  Pr69  1  -0.00019840  0.37102883  0.00237634  1
  Pr  Pr70  1  0.32626618  0.62129908  0.32927710  1
  Pr  Pr71  1  0.50087687  0.37302677  0.49716361  1
  Mn  Mn72  1  -0.00098476  0.00243624  0.16704087  1
  Mn  Mn73  1  0.00137760  0.00374955  0.50255974  1
  Mn  Mn74  1  0.00308559  0.00067952  0.83241087  1
  Mn  Mn75  1  -0.00119213  0.49828164  0.16551951  1
  Mn  Mn76  1  0.00198814  0.49778269  0.50089687  1
  Mn  Mn77  1  0.00050885  0.49948383  0.83274084  1
  Mn  Mn78  1  0.33393641  0.00110954  0.16669406  1
  Mn  Mn79  1  0.33269490  0.00038935  0.49876280  1
  Mn  Mn80  1  0.33171122  -0.00170223  0.83127491  1
  Mn  Mn81  1  0.33330315  0.49852688  0.16507600  1
  Mn  Mn82  1  0.33402022  0.49978995  0.49820970  1
  Mn  Mn83  1  0.33169424  0.50041506  0.83229426  1
  Mn  Mn84  1  0.66549537  0.00211425  0.16704508  1
  Mn  Mn85  1  0.66345003  0.00164770  0.50192819  1
  Mn  Mn86  1  0.66886114  -0.00067604  0.83508085  1
  Mn  Mn87  1  0.66543975  0.49785187  0.16660255  1
  Mn  Mn88  1  0.66452461  0.49659602  0.50269011  1
  Mn  Mn89  1  0.66811994  0.50066237  0.83364186  1
  Mn  Mn90  1  0.00024617  0.24936045  0.16811916  1
  Mn  Mn91  1  0.00067922  0.24931704  0.50168484  1
  Mn  Mn92  1  0.00348175  0.25105616  0.83376577  1
  Mn  Mn93  1  -0.00170053  0.75009356  0.16649068  1
  Mn  Mn94  1  0.00122012  0.74978343  0.50120823  1
  Mn  Mn95  1  0.00060619  0.75002638  0.83178195  1
  Mn  Mn96  1  0.33349002  0.24984807  0.16576013  1
  Mn  Mn97  1  0.33355911  0.24992805  0.49854876  1
  Mn  Mn98  1  0.33138696  0.25214896  0.83093586  1
  Mn  Mn99  1  0.33395537  0.74986122  0.16644021  1
  Mn  Mn100  1  0.33326848  0.74948136  0.49904850  1
  Mn  Mn101  1  0.33169912  0.74871661  0.83285802  1
  Mn  Mn102  1  0.66463199  0.24956891  0.16852560  1
  Mn  Mn103  1  0.66467056  0.25220518  0.50192981  1
  Mn  Mn104  1  0.66888055  0.25173738  0.83465977  1
  Mn  Mn105  1  0.66580327  0.75129083  0.16431905  1
  Mn  Mn106  1  0.66353774  0.74805540  0.50229293  1
  Mn  Mn107  1  0.66821062  0.74878138  0.83390327  1
  Mn  Mn108  1  0.16690726  0.25167267  -0.00216397  1
  Mn  Mn109  1  0.16720681  0.24970085  0.33378554  1
  Mn  Mn110  1  0.17033669  0.24941615  0.66528667  1
  Mn  Mn111  1  0.16901480  0.74784055  -0.00109627  1
  Mn  Mn112  1  0.16640960  0.74899190  0.33300484  1
  Mn  Mn113  1  0.16952047  0.75164796  0.66366793  1
  Mn  Mn114  1  0.50155608  0.25132144  -0.00027657  1
  Mn  Mn115  1  0.49909760  0.25002289  0.33248037  1
  Mn  Mn116  1  0.49944824  0.25053886  0.66337452  1
  Mn  Mn117  1  0.50059631  0.74805750  -0.00006740  1
  Mn  Mn118  1  0.49541561  0.74972393  0.33268698  1
  Mn  Mn119  1  0.50137005  0.74949863  0.66543110  1
  Mn  Mn120  1  0.83293732  0.25091011  0.00309812  1
  Mn  Mn121  1  0.83214684  0.25069764  0.33725991  1
  Mn  Mn122  1  0.83380409  0.24897651  0.66756301  1
  Mn  Mn123  1  0.82992907  0.74956244  0.00109676  1
  Mn  Mn124  1  0.83119664  0.75014117  0.33499299  1
  Mn  Mn125  1  0.83510501  0.75089689  0.67047388  1
  Mn  Mn126  1  0.16837890  0.00015608  -0.00104400  1
  Mn  Mn127  1  0.16781043  0.00162357  0.33512798  1
  Mn  Mn128  1  0.16959542  0.00174081  0.66534430  1
  Mn  Mn129  1  0.16678448  0.49962211  -0.00249275  1
  Mn  Mn130  1  0.16605416  0.49814997  0.33178089  1
  Mn  Mn131  1  0.17039131  0.49829903  0.66331212  1
  Mn  Mn132  1  0.50043506  -0.00177733  -0.00043626  1
  Mn  Mn133  1  0.49616894  0.00117162  0.33266428  1
  Mn  Mn134  1  0.50036902  -0.00071449  0.66429956  1
  Mn  Mn135  1  0.50153912  0.50207187  0.00031685  1
  Mn  Mn136  1  0.49777944  0.49623195  0.33169616  1
  Mn  Mn137  1  0.50039683  0.50020573  0.66467346  1
  Mn  Mn138  1  0.83388023  0.00145240  0.00183369  1
  Mn  Mn139  1  0.83196597  0.00382146  0.33628548  1
  Mn  Mn140  1  0.83424790  0.00234259  0.66935948  1
  Mn  Mn141  1  0.83064949  0.49920958  0.00154510  1
  Mn  Mn142  1  0.83094931  0.49664471  0.33322620  1
  Mn  Mn143  1  0.83481816  0.49763485  0.66944651  1
  O  O144  1  0.16628132  0.12964208  0.02107646  1
  O  O145  1  0.17073086  0.12713697  0.35914407  1
  O  O146  1  0.16974326  0.12644665  0.69316051  1
  O  O147  1  0.17594929  0.62210813  0.02488993  1
  O  O148  1  0.17381759  0.62400251  0.34812071  1
  O  O149  1  0.17433285  0.62387803  0.68912868  1
  O  O150  1  0.50708772  0.12427790  0.01891272  1
  O  O151  1  0.49968367  0.12669346  0.36051705  1
  O  O152  1  0.50264166  0.12566954  0.67733243  1
  O  O153  1  0.50260271  0.62539187  0.02574479  1
  O  O154  1  0.49214440  0.61927693  0.35439531  1
  O  O155  1  0.50231754  0.62605756  0.69228366  1
  O  O156  1  0.84104726  0.12753115  0.01280019  1
  O  O157  1  0.82999213  0.13135082  0.35959086  1
  O  O158  1  0.82898665  0.12663879  0.68033544  1
  O  O159  1  0.82573271  0.62228953  0.02642743  1
  O  O160  1  0.82913252  0.61729515  0.33878323  1
  O  O161  1  0.83225801  0.62302374  0.69138266  1
  O  O162  1  0.16146728  0.37165369  0.32055698  1
  O  O163  1  0.17275231  0.37115470  0.63778680  1
  O  O164  1  0.15792293  0.37660317  0.97560872  1
  O  O165  1  0.17417730  0.87518399  0.32204950  1
  O  O166  1  0.17311709  0.87984984  0.63832029  1
  O  O167  1  0.17382437  0.87032451  0.97855381  1
  O  O168  1  0.50402529  0.37200915  0.30451434  1
  O  O169  1  0.49399919  0.37525201  0.64202904  1
  O  O170  1  0.49508474  0.37886224  0.99057681  1
  O  O171  1  0.49110049  0.88017622  0.30490359  1
  O  O172  1  0.49636206  0.87286811  0.64193856  1
  O  O173  1  0.49563991  0.87090008  0.98926318  1
  O  O174  1  0.83263240  0.37098700  0.31161137  1
  O  O175  1  0.82620900  0.37096200  0.64537230  1
  O  O176  1  0.83346500  0.37574554  0.97831843  1
  O  O177  1  0.83203034  0.88235997  0.31793649  1
  O  O178  1  0.82793596  0.87890478  0.65764363  1
  O  O179  1  0.82393770  0.87537685  0.97695819  1
  O  O180  1  -0.00369722  0.37236722  0.19076289  1
  O  O181  1  0.00290212  0.37031467  0.52367390  1
  O  O182  1  0.00490930  0.37568691  0.85873883  1
  O  O183  1  -0.00533682  0.87735547  0.17616287  1
  O  O184  1  0.00910163  0.88201730  0.51943592  1
  O  O185  1  0.00327052  0.87616910  0.84465975  1
  O  O186  1  0.34186214  0.37413999  0.18221497  1
  O  O187  1  0.33033214  0.37691129  0.52405969  1
  O  O188  1  0.32514718  0.38051847  0.85901122  1
  O  O189  1  0.33999938  0.87587036  0.19075276  1
  O  O190  1  0.32780456  0.87553394  0.52509246  1
  O  O191  1  0.32588367  0.86751876  0.85861606  1
  O  O192  1  0.65432180  0.37092713  0.19154753  1
  O  O193  1  0.65432006  0.37262050  0.53126671  1
  O  O194  1  0.67245450  0.37824483  0.85071551  1
  O  O195  1  0.65725742  0.87766182  0.17889038  1
  O  O196  1  0.65373338  0.87381012  0.52504623  1
  O  O197  1  0.67308964  0.87116559  0.85836768  1
  O  O198  1  0.00361870  0.12836113  0.14363335  1
  O  O199  1  0.00771458  0.12903007  0.47867201  1
  O  O200  1  0.00853870  0.12636197  0.81403323  1
  O  O201  1  -0.00387818  0.62233129  0.15763640  1
  O  O202  1  0.00339377  0.61894867  0.49343558  1
  O  O203  1  -0.00202849  0.62422259  0.81901111  1
  O  O204  1  0.32847096  0.12608085  0.15196131  1
  O  O205  1  0.34085724  0.12298749  0.47206799  1
  O  O206  1  0.32407281  0.12795949  0.81651604  1
  O  O207  1  0.33927110  0.62370286  0.14307981  1
  O  O208  1  0.34097797  0.62388412  0.47156084  1
  O  O209  1  0.33401525  0.62471265  0.80722853  1
  O  O210  1  0.66005155  0.12559677  0.14020351  1
  O  O211  1  0.66495074  0.13271957  0.47629670  1
  O  O212  1  0.66710418  0.12628852  0.81400751  1
  O  O213  1  0.67552781  0.62553861  0.14712334  1
  O  O214  1  0.66249710  0.62014550  0.49024058  1
  O  O215  1  0.67712700  0.62482536  0.80700320  1
  O  O216  1  0.08289616  0.02425264  0.25533788  1
  O  O217  1  0.08393848  0.02233168  0.58774496  1
  O  O218  1  0.08253383  0.02119515  0.91923636  1
  O  O219  1  0.08350339  0.51177478  0.24576077  1
  O  O220  1  0.09071056  0.50245916  0.57956618  1
  O  O221  1  0.08814420  0.51716782  0.90885369  1
  O  O222  1  0.41412925  0.02727103  0.25264643  1
  O  O223  1  0.41944859  0.01245325  0.57476236  1
  O  O224  1  0.41227557  0.00191862  0.92001497  1
  O  O225  1  0.40863723  0.51903364  0.25489143  1
  O  O226  1  0.41539613  0.52265739  0.58216081  1
  O  O227  1  0.41157288  0.52183929  0.92043063  1
  O  O228  1  0.74194261  0.01900644  0.25726957  1
  O  O229  1  0.74307856  0.01722377  0.59174090  1
  O  O230  1  0.74257772  0.01628371  0.92864297  1
  O  O231  1  0.74034975  0.49995514  0.25466109  1
  O  O232  1  0.74088704  0.50835949  0.59910235  1
  O  O233  1  0.74244887  0.52189870  0.92373641  1
  O  O234  1  0.24822449  0.23196391  0.24815958  1
  O  O235  1  0.24872876  0.22727147  0.58038461  1
  O  O236  1  0.23840606  0.24123710  0.90345765  1
  O  O237  1  0.24725474  0.72761638  0.24324517  1
  O  O238  1  0.25598544  0.73048651  0.58480323  1
  O  O239  1  0.24685771  0.72208045  0.91132602  1
  O  O240  1  0.57862598  0.22187048  0.24940962  1
  O  O241  1  0.57876597  0.22805847  0.57573650  1
  O  O242  1  0.58575490  0.23831050  0.92027797  1
  O  O243  1  0.57102391  0.73699664  0.23501397  1
  O  O244  1  0.57772704  0.72603945  0.58023207  1
  O  O245  1  0.57777226  0.72383236  0.90580157  1
  O  O246  1  0.92433521  0.23509635  0.25885979  1
  O  O247  1  0.91102039  0.23533938  0.57711510  1
  O  O248  1  0.92474505  0.24311267  0.92338740  1
  O  O249  1  0.90869209  0.74284869  0.24491946  1
  O  O250  1  0.91827792  0.74942361  0.58845444  1
  O  O251  1  0.90319524  0.73888040  0.90994387  1
  O  O252  1  0.08147771  0.48732594  0.07846145  1
  O  O253  1  0.08163614  0.47742671  0.41649901  1
  O  O254  1  0.08845425  0.47779176  0.74551551  1
  O  O255  1  0.08841391  0.99923282  0.08560002  1
  O  O256  1  0.09376236  0.99122093  0.42568919  1
  O  O257  1  0.09228706  0.97918039  0.75138111  1
  O  O258  1  0.42454199  0.48557486  0.09155805  1
  O  O259  1  0.42148950  0.47578334  0.42113130  1
  O  O260  1  0.41443272  0.48721371  0.74638516  1
  O  O261  1  0.42358302  0.98407016  0.08914209  1
  O  O262  1  0.41370788  0.97477526  0.41466272  1
  O  O263  1  0.41343019  0.98444633  0.74238707  1
  O  O264  1  0.75674191  0.47904691  0.09311334  1
  O  O265  1  0.75162696  0.47236369  0.42635032  1
  O  O266  1  0.76187110  0.48042869  0.76149859  1
  O  O267  1  0.75106431  0.98114880  0.08847095  1
  O  O268  1  0.74763652  0.99893599  0.42294559  1
  O  O269  1  0.75625649  0.98074227  0.75841960  1
  O  O270  1  0.25598044  0.27003517  0.07080420  1
  O  O271  1  0.24906828  0.26650592  0.41866368  1
  O  O272  1  0.25307120  0.27760963  0.74527235  1
  O  O273  1  0.26513651  0.76252141  0.07202759  1
  O  O274  1  0.25351002  0.76716254  0.41449553  1
  O  O275  1  0.25063351  0.77270515  0.74835540  1
  O  O276  1  0.58256345  0.26559161  0.08684309  1
  O  O277  1  0.58735912  0.27330493  0.41458063  1
  O  O278  1  0.59216531  0.26304904  0.73779211  1
  O  O279  1  0.59275255  0.76509437  0.07200077  1
  O  O280  1  0.57165731  0.76114358  0.41898024  1
  O  O281  1  0.59817471  0.76566919  0.74013902  1
  O  O282  1  0.91482002  0.27347391  0.08657894  1
  O  O283  1  0.91934624  0.27243288  0.41837604  1
  O  O284  1  0.92414499  0.27326293  0.75043625  1
  O  O285  1  0.90966146  0.76057711  0.08525521  1
  O  O286  1  0.91728129  0.75503759  0.41798913  1
  O  O287  1  0.92100394  0.77248926  0.74794108  1
  O  O288  1  0.26297662  0.48373244  0.06923593  1
  O  O289  1  0.25047048  0.48274649  0.41695874  1
  O  O290  1  0.25159029  0.47694408  0.74707917  1
  O  O291  1  0.25925312  0.98275514  0.07412901  1
  O  O292  1  0.25441224  0.98087867  0.41400727  1
  O  O293  1  0.25302439  0.97442302  0.74446786  1
  O  O294  1  0.59200316  0.48675372  0.07655830  1
  O  O295  1  0.58488046  0.47542069  0.41060168  1
  O  O296  1  0.59634541  0.48702954  0.73865673  1
  O  O297  1  0.58501982  0.98240576  0.08021598  1
  O  O298  1  0.57370539  0.98814500  0.42088952  1
  O  O299  1  0.59410631  0.98582354  0.74095944  1
  O  O300  1  0.91970317  0.47563118  0.07851197  1
  O  O301  1  0.91924767  0.47486514  0.41418801  1
  O  O302  1  0.92211136  0.47178552  0.74669774  1
  O  O303  1  0.91156082  0.98795514  0.08656468  1
  O  O304  1  0.91928350  1.00312258  0.41832321  1
  O  O305  1  0.92257519  0.98285635  0.74722298  1
  O  O306  1  0.07764841  0.26362063  0.07735647  1
  O  O307  1  0.08238983  0.26856812  0.41760279  1
  O  O308  1  0.08971498  0.27499351  0.75076764  1
  O  O309  1  0.08918107  0.75035064  0.08422177  1
  O  O310  1  0.09059331  0.76137401  0.42079323  1
  O  O311  1  0.08900372  0.77031964  0.74543349  1
  O  O312  1  0.42206912  0.26356808  0.08698123  1
  O  O313  1  0.42069005  0.27164577  0.41633425  1
  O  O314  1  0.41263829  0.26572591  0.74295453  1
  O  O315  1  0.42472108  0.76667087  0.09438141  1
  O  O316  1  0.41343767  0.77736372  0.41933608  1
  O  O317  1  0.41393342  0.76264953  0.74511454  1
  O  O318  1  0.75188515  0.27000203  0.09433688  1
  O  O319  1  0.75059173  0.27710058  0.42881003  1
  O  O320  1  0.75599550  0.27129742  0.75602857  1
  O  O321  1  0.75089000  0.77482344  0.08539221  1
  O  O322  1  0.74548348  0.75704111  0.42182911  1
  O  O323  1  0.76138288  0.76827228  0.76406292  1
  O  O324  1  0.24633106  0.02056525  0.24823214  1
  O  O325  1  0.24780766  0.02403589  0.57745741  1
  O  O326  1  0.23912358  0.01050213  0.90471324  1
  O  O327  1  0.24727193  0.51948114  0.24145192  1
  O  O328  1  0.25593359  0.51935023  0.58488895  1
  O  O329  1  0.24581710  0.52500345  0.90931511  1
  O  O330  1  0.57762502  0.02402861  0.24783631  1
  O  O331  1  0.58208288  0.02335916  0.58127726  1
  O  O332  1  0.58557991  0.01099930  0.91983880  1
  O  O333  1  0.56946175  0.51481499  0.23614765  1
  O  O334  1  0.57430935  0.51870784  0.57531374  1
  O  O335  1  0.57748068  0.52489480  0.90714478  1
  O  O336  1  0.91841739  0.01886622  0.25606634  1
  O  O337  1  0.91306872  0.01896754  0.58213512  1
  O  O338  1  0.91922894  0.01004550  0.91936284  1
  O  O339  1  0.90509021  0.50626019  0.23925090  1
  O  O340  1  0.91365863  0.49779121  0.58269908  1
  O  O341  1  0.90329168  0.51158341  0.90907374  1
  O  O342  1  0.08555046  0.22487845  0.25055532  1
  O  O343  1  0.08479483  0.23254334  0.58409131  1
  O  O344  1  0.08293337  0.22719769  0.91784303  1
  O  O345  1  0.08520097  0.73694407  0.24814405  1
  O  O346  1  0.08991014  0.74593938  0.58142941  1
  O  O347  1  0.08888288  0.73664045  0.90842045  1
  O  O348  1  0.41635309  0.22722397  0.25177119  1
  O  O349  1  0.41824509  0.23538210  0.57706312  1
  O  O350  1  0.41186113  0.24865381  0.91771203  1
  O  O351  1  0.40780532  0.72650931  0.25709144  1
  O  O352  1  0.41714884  0.72859356  0.57934998  1
  O  O353  1  0.41159422  0.72648790  0.92085952  1
  O  O354  1  0.73696635  0.23675778  0.26371271  1
  O  O355  1  0.73923575  0.23022278  0.58663588  1
  O  O356  1  0.74577580  0.23602741  0.92754488  1
  O  O357  1  0.74950451  0.74382288  0.24428326  1
  O  O358  1  0.74182696  0.74073000  0.60020267  1
  O  O359  1  0.74168419  0.72477026  0.92438897  1
