# generated using pymatgen
data_Ba17Sr5La8Pr42Mn72O216
_symmetry_space_group_name_H-M   'P 1'
_cell_length_a   16.66869034
_cell_length_b   15.71235291
_cell_length_c   16.81586009
_cell_angle_alpha   90.00845893
_cell_angle_beta   89.96632438
_cell_angle_gamma   89.98604994
_symmetry_Int_Tables_number   1
_chemical_formula_structural   Ba17Sr5La8Pr42Mn72O216
_chemical_formula_sum   'Ba17 Sr5 La8 Pr42 Mn72 O216'
_cell_volume   4404.14588476
_cell_formula_units_Z   1
loop_
 _symmetry_equiv_pos_site_id
 _symmetry_equiv_pos_as_xyz
  1  'x, y, z'
loop_
 _atom_site_type_symbol
 _atom_site_label
 _atom_site_symmetry_multiplicity
 _atom_site_fract_x
 _atom_site_fract_y
 _atom_site_fract_z
 _atom_site_occupancy
  Ba  Ba0  1  0.66854436  0.62588112  1.00023120  1
  Ba  Ba1  1  0.83677459  0.87587646  0.16556016  1
  Ba  Ba2  1  0.16522354  0.87342476  0.83369293  1
  Ba  Ba3  1  0.16589707  0.62526437  0.83578167  1
  Ba  Ba4  1  0.16776856  0.12569608  0.50298089  1
  Ba  Ba5  1  0.50051257  0.37442492  0.83047953  1
  Ba  Ba6  1  0.83214933  0.87313704  0.83255044  1
  Ba  Ba7  1  0.33426010  0.37337706  -0.00189308  1
  Ba  Ba8  1  0.83223661  0.37651229  0.49915716  1
  Ba  Ba9  1  0.83278948  0.12741670  0.50153453  1
  Ba  Ba10  1  0.33274903  0.62335238  0.99852469  1
  Ba  Ba11  1  0.49950137  0.62770605  0.16559640  1
  Ba  Ba12  1  0.66376378  0.37448346  0.33443453  1
  Ba  Ba13  1  -0.00167796  0.87407868  0.66892175  1
  Ba  Ba14  1  0.33487705  0.12453110  0.66168173  1
  Ba  Ba15  1  0.66851561  0.87566488  0.00129471  1
  Ba  Ba16  1  0.49846397  0.87750840  0.16277703  1
  Sr  Sr17  1  0.83293415  0.62527786  0.83469379  1
  Sr  Sr18  1  -0.00412013  0.62284658  0.33286484  1
  Sr  Sr19  1  0.83174225  0.62092556  0.49885083  1
  Sr  Sr20  1  0.33242230  0.62594499  0.32602578  1
  Sr  Sr21  1  0.16641857  0.12743995  0.17329039  1
  La  La22  1  0.16426678  0.12357592  0.83554861  1
  La  La23  1  0.16629110  0.62407178  0.50299522  1
  La  La24  1  0.49860415  0.38037458  0.16180835  1
  La  La25  1  0.66765754  0.12579946  0.66626654  1
  La  La26  1  0.16816436  0.37403647  0.50090854  1
  La  La27  1  -0.00251647  0.62575238  0.99910251  1
  La  La28  1  0.00223559  0.87437541  0.33799226  1
  La  La29  1  0.00247652  0.87290021  0.00133596  1
  Pr  Pr30  1  0.83159930  0.38012897  0.83174350  1
  Pr  Pr31  1  0.83414494  0.12470450  0.83423870  1
  Pr  Pr32  1  -0.00500485  0.62982429  0.66743342  1
  Pr  Pr33  1  0.82893847  0.62682197  0.17067632  1
  Pr  Pr34  1  0.16860813  0.87420101  0.16489493  1
  Pr  Pr35  1  0.49831635  0.87185200  0.83095315  1
  Pr  Pr36  1  0.49585381  0.87791109  0.49470494  1
  Pr  Pr37  1  0.16878155  0.37792395  0.83348985  1
  Pr  Pr38  1  -0.00520648  0.12689480  0.33247038  1
  Pr  Pr39  1  0.83506132  0.87260630  0.49617497  1
  Pr  Pr40  1  0.49934610  0.12598351  0.16504132  1
  Pr  Pr41  1  0.66967345  0.62142482  0.32777228  1
  Pr  Pr42  1  -0.00056363  0.12426838  1.00178676  1
  Pr  Pr43  1  0.66964209  0.12229428  1.00150973  1
  Pr  Pr44  1  0.83205414  0.12377666  0.17206607  1
  Pr  Pr45  1  0.16525316  0.62346181  0.17147387  1
  Pr  Pr46  1  0.49645912  0.37345133  0.49568530  1
  Pr  Pr47  1  0.50358003  0.62762540  0.49701009  1
  Pr  Pr48  1  0.33327159  0.12312317  0.33063134  1
  Pr  Pr49  1  0.32763756  0.87627876  0.66672803  1
  Pr  Pr50  1  0.32964704  0.87196327  -0.00050389  1
  Pr  Pr51  1  0.33683428  0.12241823  0.99375559  1
  Pr  Pr52  1  0.84066204  0.37722140  0.16813794  1
  Pr  Pr53  1  0.00476851  0.37593320  0.00316816  1
  Pr  Pr54  1  0.33126099  0.87228335  0.33100250  1
  Pr  Pr55  1  0.17014083  0.87571574  0.49996373  1
  Pr  Pr56  1  0.33215156  0.37693260  0.33092403  1
  Pr  Pr57  1  0.32670980  0.37178675  0.66922572  1
  Pr  Pr58  1  -0.00249914  0.37339283  0.66971802  1
  Pr  Pr59  1  0.50200857  0.12468435  0.83272578  1
  Pr  Pr60  1  0.66303289  0.87170623  0.33517684  1
  Pr  Pr61  1  0.50131885  0.62487973  0.83932524  1
  Pr  Pr62  1  0.66491164  0.87639896  0.67152650  1
  Pr  Pr63  1  0.00348102  0.37501265  0.34081361  1
  Pr  Pr64  1  0.33586788  0.62343855  0.66340132  1
  Pr  Pr65  1  0.66825486  0.37589451  0.66586641  1
  Pr  Pr66  1  0.67091677  0.12865136  0.33104344  1
  Pr  Pr67  1  0.50431043  0.12480442  0.50118888  1
  Pr  Pr68  1  -0.00045094  0.12017229  0.66517235  1
  Pr  Pr69  1  0.66946268  0.62430494  0.66786140  1
  Pr  Pr70  1  0.17163657  0.37599366  0.16662028  1
  Pr  Pr71  1  0.66874118  0.37644055  0.00583934  1
  Mn  Mn72  1  0.00288396  0.00189815  0.16879407  1
  Mn  Mn73  1  0.00024984  -0.00135846  0.50085889  1
  Mn  Mn74  1  -0.00122928  0.00345701  0.83439081  1
  Mn  Mn75  1  0.00132138  0.49888407  0.16891414  1
  Mn  Mn76  1  0.00116496  0.50245716  0.50217015  1
  Mn  Mn77  1  -0.00161456  0.49814180  0.83588200  1
  Mn  Mn78  1  0.33179095  0.00230687  0.16360087  1
  Mn  Mn79  1  0.33405684  -0.00223336  0.49682787  1
  Mn  Mn80  1  0.33410721  0.00069988  0.83079213  1
  Mn  Mn81  1  0.33260768  0.50063275  0.16731613  1
  Mn  Mn82  1  0.33519407  0.50145494  0.49761893  1
  Mn  Mn83  1  0.33390903  0.49833587  0.82880717  1
  Mn  Mn84  1  0.66723545  0.00301062  0.16835747  1
  Mn  Mn85  1  0.66645126  -0.00268542  0.50136440  1
  Mn  Mn86  1  0.66606215  0.00134267  0.83266182  1
  Mn  Mn87  1  0.66760208  0.49759713  0.16743198  1
  Mn  Mn88  1  0.66317022  0.50310251  0.49991709  1
  Mn  Mn89  1  0.66678653  0.49844505  0.83355101  1
  Mn  Mn90  1  0.00163782  0.25124170  0.16883699  1
  Mn  Mn91  1  0.00086797  0.25054599  0.50291754  1
  Mn  Mn92  1  -0.00129641  0.25138118  0.83579224  1
  Mn  Mn93  1  0.00194783  0.74802416  0.16931390  1
  Mn  Mn94  1  -0.00004032  0.74743194  0.49975952  1
  Mn  Mn95  1  -0.00262230  0.74734370  0.83375830  1
  Mn  Mn96  1  0.33357179  0.24775395  0.16613175  1
  Mn  Mn97  1  0.33455873  0.25261900  0.49753547  1
  Mn  Mn98  1  0.33269316  0.24843973  0.83116235  1
  Mn  Mn99  1  0.33135393  0.75111102  0.16670982  1
  Mn  Mn100  1  0.33398890  0.74737851  0.49744940  1
  Mn  Mn101  1  0.33458197  0.75092469  0.82980963  1
  Mn  Mn102  1  0.66816468  0.25020536  0.16565559  1
  Mn  Mn103  1  0.66428853  0.24934007  0.50009779  1
  Mn  Mn104  1  0.66818826  0.24913772  0.83487936  1
  Mn  Mn105  1  0.66729963  0.75102683  0.16777799  1
  Mn  Mn106  1  0.66630897  0.75005883  0.50133804  1
  Mn  Mn107  1  0.66593351  0.75051054  0.83186765  1
  Mn  Mn108  1  0.16599553  0.24710313  0.00306836  1
  Mn  Mn109  1  0.16733273  0.24980243  0.33493196  1
  Mn  Mn110  1  0.16322668  0.25204835  0.66905149  1
  Mn  Mn111  1  0.16592828  0.75030299  0.00302628  1
  Mn  Mn112  1  0.16528971  0.74945196  0.33426399  1
  Mn  Mn113  1  0.16722748  0.74630458  0.66600259  1
  Mn  Mn114  1  0.50307831  0.24806938  -0.00072455  1
  Mn  Mn115  1  0.49670076  0.24727953  0.33144652  1
  Mn  Mn116  1  0.50168025  0.25069215  0.66266594  1
  Mn  Mn117  1  0.49933093  0.75106337  -0.00278187  1
  Mn  Mn118  1  0.49959787  0.75216809  0.33382073  1
  Mn  Mn119  1  0.50001739  0.74943916  0.66488293  1
  Mn  Mn120  1  0.83576362  0.25108275  0.00136769  1
  Mn  Mn121  1  0.83460357  0.25079252  0.33333367  1
  Mn  Mn122  1  0.83290166  0.25244702  0.67039629  1
  Mn  Mn123  1  0.83574588  0.74874234  0.00082438  1
  Mn  Mn124  1  0.83334468  0.75005153  0.33369047  1
  Mn  Mn125  1  0.83030279  0.74660235  0.66351062  1
  Mn  Mn126  1  0.16582966  0.00283388  0.00398147  1
  Mn  Mn127  1  0.16657560  0.00043753  0.33349607  1
  Mn  Mn128  1  0.16611477  -0.00029580  0.66758758  1
  Mn  Mn129  1  0.16578853  0.49770315  0.00179215  1
  Mn  Mn130  1  0.16661144  0.50027357  0.33551496  1
  Mn  Mn131  1  0.16511788  0.50094511  0.66705178  1
  Mn  Mn132  1  0.49899398  0.00219059  -0.00255551  1
  Mn  Mn133  1  0.49989677  0.00141525  0.33209643  1
  Mn  Mn134  1  0.50073750  -0.00212945  0.66415311  1
  Mn  Mn135  1  0.50167226  0.49981840  -0.00271955  1
  Mn  Mn136  1  0.49773306  0.50022990  0.33297723  1
  Mn  Mn137  1  0.50080199  0.50278169  0.66273982  1
  Mn  Mn138  1  0.83653924  0.00279562  0.00176228  1
  Mn  Mn139  1  0.83333250  -0.00163374  0.33451914  1
  Mn  Mn140  1  0.83138115  0.00045461  0.66586503  1
  Mn  Mn141  1  0.83600350  0.49681435  0.00042099  1
  Mn  Mn142  1  0.83479168  0.50026129  0.33353767  1
  Mn  Mn143  1  0.83278928  0.50052114  0.66727256  1
  O  O144  1  0.15890380  0.12548656  0.02542816  1
  O  O145  1  0.17343572  0.12524549  0.34924478  1
  O  O146  1  0.15951226  0.13097989  0.68832962  1
  O  O147  1  0.15951359  0.62516283  0.02496807  1
  O  O148  1  0.17062836  0.62496931  0.35956130  1
  O  O149  1  0.17520095  0.62280209  0.67925372  1
  O  O150  1  0.48878859  0.12535383  0.01982551  1
  O  O151  1  0.49087991  0.12272279  0.35982084  1
  O  O152  1  0.50316098  0.12015497  0.68883436  1
  O  O153  1  0.49853057  0.62655949  0.00271884  1
  O  O154  1  0.49930111  0.63065363  0.35328794  1
  O  O155  1  0.49250550  0.62806960  0.69522388  1
  O  O156  1  0.83545336  0.13110232  0.02919019  1
  O  O157  1  0.83266090  0.12406732  0.34491726  1
  O  O158  1  0.83002945  0.13216432  0.68939259  1
  O  O159  1  0.84196536  0.61688247  0.02729840  1
  O  O160  1  0.82430775  0.62662887  0.34707621  1
  O  O161  1  0.82796313  0.62091904  0.68533181  1
  O  O162  1  0.16349780  0.37284596  0.31009929  1
  O  O163  1  0.16322252  0.37792356  0.64510489  1
  O  O164  1  0.16011038  0.36854776  0.97728424  1
  O  O165  1  0.16410315  0.87725701  0.30809215  1
  O  O166  1  0.17160965  0.86833491  0.64602186  1
  O  O167  1  0.16424053  0.87925863  0.98972162  1
  O  O168  1  0.49366078  0.36704722  0.30578630  1
  O  O169  1  0.51070926  0.38076901  0.63776107  1
  O  O170  1  0.51382568  0.37061674  0.99190849  1
  O  O171  1  0.50707978  0.87855186  0.31814798  1
  O  O172  1  0.50969650  0.87192399  0.63610285  1
  O  O173  1  0.49565780  0.87955027  0.97713928  1
  O  O174  1  0.84478983  0.37402751  0.31427501  1
  O  O175  1  0.83499687  0.37720012  0.65471008  1
  O  O176  1  0.83938266  0.37103581  0.97354382  1
  O  O177  1  0.83962305  0.87494212  0.32142412  1
  O  O178  1  0.82513825  0.86942254  0.64134625  1
  O  O179  1  0.84413854  0.88061341  0.99026223  1
  O  O180  1  -0.00365705  0.37479026  0.19819799  1
  O  O181  1  0.00506730  0.37960027  0.52396169  1
  O  O182  1  -0.00599707  0.37222967  0.86214160  1
  O  O183  1  0.00722359  0.87428839  0.19382213  1
  O  O184  1  -0.00659164  0.87298313  0.51210691  1
  O  O185  1  -0.00259133  0.87957502  0.85470998  1
  O  O186  1  0.33225862  0.37201618  0.18654430  1
  O  O187  1  0.34257871  0.38006823  0.52589886  1
  O  O188  1  0.32759867  0.37115459  0.84041248  1
  O  O189  1  0.32599711  0.87800565  0.18725576  1
  O  O190  1  0.33749823  0.86883843  0.52337512  1
  O  O191  1  0.33898515  0.88013973  0.85504469  1
  O  O192  1  0.65222304  0.37139923  0.17602101  1
  O  O193  1  0.65365871  0.37895388  0.52178530  1
  O  O194  1  0.67152763  0.36825823  0.86163937  1
  O  O195  1  0.66528170  0.88177421  0.18826874  1
  O  O196  1  0.66460785  0.87287677  0.52902904  1
  O  O197  1  0.65974955  0.87902036  0.84420237  1
  O  O198  1  0.00157347  0.12982243  0.14473666  1
  O  O199  1  0.00220264  0.12160192  0.47797148  1
  O  O200  1  0.00101090  0.13234210  0.80826543  1
  O  O201  1  0.00770015  0.61988782  0.14232700  1
  O  O202  1  0.00894812  0.62440632  0.48074584  1
  O  O203  1  -0.00173003  0.61696278  0.81327722  1
  O  O204  1  0.33410969  0.12539698  0.13843825  1
  O  O205  1  0.33791303  0.12590869  0.47502954  1
  O  O206  1  0.33551499  0.12545408  0.81796544  1
  O  O207  1  0.32413653  0.62643071  0.15805643  1
  O  O208  1  0.33104644  0.62514739  0.47381659  1
  O  O209  1  0.34141533  0.62360218  0.80854997  1
  O  O210  1  0.67966879  0.12872037  0.14803523  1
  O  O211  1  0.65954414  0.11858818  0.47425579  1
  O  O212  1  0.66883952  0.12587893  0.80850675  1
  O  O213  1  0.67743153  0.62012754  0.16215757  1
  O  O214  1  0.65903482  0.62983057  0.47117075  1
  O  O215  1  0.65999573  0.62707017  0.81228542  1
  O  O216  1  0.07821700  0.02089530  0.25892722  1
  O  O217  1  0.07974403  0.01156288  0.58768269  1
  O  O218  1  0.08060808  0.02244951  0.92216435  1
  O  O219  1  0.08288233  0.51766153  0.25154699  1
  O  O220  1  0.08291285  0.52258447  0.58704709  1
  O  O221  1  0.07537551  0.50886752  0.92515728  1
  O  O222  1  0.41754491  0.02286562  0.24148239  1
  O  O223  1  0.42710519  0.01046549  0.57047818  1
  O  O224  1  0.42227851  0.02208237  0.90812472  1
  O  O225  1  0.41279931  0.50521323  0.25090167  1
  O  O226  1  0.42126790  0.52767171  0.57493042  1
  O  O227  1  0.41957546  0.50898758  0.90506338  1
  O  O228  1  0.74760141  0.01915307  0.25457964  1
  O  O229  1  0.74539706  0.01535901  0.58450012  1
  O  O230  1  0.75287067  0.02324239  0.91577691  1
  O  O231  1  0.75302106  0.50656443  0.24800121  1
  O  O232  1  0.74210544  0.51317096  0.58747808  1
  O  O233  1  0.75374541  0.50492287  0.91728585  1
  O  O234  1  0.25432083  0.23598287  0.25642884  1
  O  O235  1  0.25279156  0.25059183  0.58364288  1
  O  O236  1  0.24697706  0.22581633  0.92097089  1
  O  O237  1  0.24036733  0.73749514  0.24651485  1
  O  O238  1  0.25007471  0.72998531  0.57737814  1
  O  O239  1  0.25082253  0.74615381  0.92002439  1
  O  O240  1  0.58138705  0.22267763  0.25099924  1
  O  O241  1  0.58467264  0.22500679  0.58291044  1
  O  O242  1  0.58331732  0.22159472  0.91310741  1
  O  O243  1  0.59015462  0.73857013  0.26200230  1
  O  O244  1  0.58406627  0.72208579  0.58721341  1
  O  O245  1  0.57852375  0.74185954  0.90789637  1
  O  O246  1  0.91573417  0.22828422  0.24472169  1
  O  O247  1  0.92012258  0.23859298  0.59303486  1
  O  O248  1  0.91620473  0.22319393  0.91771191  1
  O  O249  1  0.91359290  0.72927717  0.24393601  1
  O  O250  1  0.91573198  0.72875474  0.58331153  1
  O  O251  1  0.91672760  0.73100446  0.91832706  1
  O  O252  1  0.08516578  0.47302909  0.09055536  1
  O  O253  1  0.08758130  0.47897943  0.42082772  1
  O  O254  1  0.08035493  0.47534963  0.75543356  1
  O  O255  1  0.08639972  0.98017103  0.09000265  1
  O  O256  1  0.08583356  0.97652500  0.42038692  1
  O  O257  1  0.08280230  0.99854167  0.75470811  1
  O  O258  1  0.42033558  0.48748118  0.08674648  1
  O  O259  1  0.41352197  0.47672896  0.41358287  1
  O  O260  1  0.40864384  0.48382934  0.73221433  1
  O  O261  1  0.40602251  0.98714464  0.06932269  1
  O  O262  1  0.41051380  0.97677808  0.40777747  1
  O  O263  1  0.41696257  0.97434246  0.74006646  1
  O  O264  1  0.75634968  0.47386445  0.08517298  1
  O  O265  1  0.74480561  0.49477276  0.41714363  1
  O  O266  1  0.74857802  0.47903323  0.75167727  1
  O  O267  1  0.75270110  0.99777903  0.08415456  1
  O  O268  1  0.74758772  0.97401013  0.41983157  1
  O  O269  1  0.74159696  0.98850376  0.74364256  1
  O  O270  1  0.24692519  0.26517668  0.09026339  1
  O  O271  1  0.25062773  0.27564139  0.41815344  1
  O  O272  1  0.24235420  0.26897621  0.75197813  1
  O  O273  1  0.24989213  0.77164013  0.08358248  1
  O  O274  1  0.25042395  0.77599448  0.41404754  1
  O  O275  1  0.25843798  0.76167653  0.74087481  1
  O  O276  1  0.59402975  0.25045134  0.07380041  1
  O  O277  1  0.57002961  0.26062577  0.42089675  1
  O  O278  1  0.59225822  0.26326977  0.74325778  1
  O  O279  1  0.58309158  0.75717020  0.08401571  1
  O  O280  1  0.58113103  0.77382645  0.42396107  1
  O  O281  1  0.57911828  0.77095591  0.74818330  1
  O  O282  1  0.92163029  0.27415429  0.08308361  1
  O  O283  1  0.92609717  0.26122294  0.41018029  1
  O  O284  1  0.91616669  0.27293444  0.75530905  1
  O  O285  1  0.93115080  0.76047552  0.07761680  1
  O  O286  1  0.91650569  0.76421648  0.41505428  1
  O  O287  1  0.91317683  0.75061709  0.74628128  1
  O  O288  1  0.24572804  0.48509345  0.08958870  1
  O  O289  1  0.25085775  0.47424299  0.41814303  1
  O  O290  1  0.24773000  0.47853911  0.74744586  1
  O  O291  1  0.24879586  0.97975980  0.08418565  1
  O  O292  1  0.24951681  0.97461297  0.41523397  1
  O  O293  1  0.25221120  0.98709497  0.74718245  1
  O  O294  1  0.58856817  0.48753954  0.08230889  1
  O  O295  1  0.57188800  0.48849262  0.42532296  1
  O  O296  1  0.58873650  0.48731480  0.74019496  1
  O  O297  1  0.58141339  1.00522031  0.08498720  1
  O  O298  1  0.58262997  0.97809365  0.42208806  1
  O  O299  1  0.57668043  0.98180697  0.75123869  1
  O  O300  1  0.92214845  0.47295645  0.08237995  1
  O  O301  1  0.92432379  0.48872635  0.41135289  1
  O  O302  1  0.91799007  0.47888390  0.75291246  1
  O  O303  1  0.92928165  0.99243442  0.07755982  1
  O  O304  1  0.91904413  0.98316162  0.41535840  1
  O  O305  1  0.91322639  1.00059986  0.75224250  1
  O  O306  1  0.08428607  0.27531316  0.08894356  1
  O  O307  1  0.08752711  0.27165831  0.42071317  1
  O  O308  1  0.08032031  0.27738349  0.75593804  1
  O  O309  1  0.09037531  0.76810370  0.09364951  1
  O  O310  1  0.08778998  0.77229414  0.41955155  1
  O  O311  1  0.08094871  0.75142462  0.74930735  1
  O  O312  1  0.42852831  0.26347468  0.09150417  1
  O  O313  1  0.40923400  0.27327551  0.40776755  1
  O  O314  1  0.41376199  0.26607294  0.73520901  1
  O  O315  1  0.41041203  0.76568321  0.07382515  1
  O  O316  1  0.41722444  0.77315520  0.41643038  1
  O  O317  1  0.41757882  0.77845706  0.74123639  1
  O  O318  1  0.75727168  0.27814865  0.08428864  1
  O  O319  1  0.74419065  0.25581593  0.41743881  1
  O  O320  1  0.75375521  0.27308082  0.75730667  1
  O  O321  1  0.75720372  0.75347989  0.08688107  1
  O  O322  1  0.74767758  0.77465314  0.41844611  1
  O  O323  1  0.73871097  0.76105685  0.73844699  1
  O  O324  1  0.25460093  0.01678054  0.25348666  1
  O  O325  1  0.25160207  0.00088959  0.58067271  1
  O  O326  1  0.24916708  0.02140771  0.92193675  1
  O  O327  1  0.24479750  0.51052650  0.24945393  1
  O  O328  1  0.25522445  0.51635347  0.58022899  1
  O  O329  1  0.24664629  0.50256232  0.91302024  1
  O  O330  1  0.58491242  0.02893721  0.25354719  1
  O  O331  1  0.58629981  0.02145315  0.58584847  1
  O  O332  1  0.58519777  0.02656655  0.91727817  1
  O  O333  1  0.58567894  0.51369438  0.25697043  1
  O  O334  1  0.58257090  0.53259898  0.58363917  1
  O  O335  1  0.58215788  0.51206846  0.90916953  1
  O  O336  1  0.91738958  0.02155670  0.24691101  1
  O  O337  1  0.91852986  0.01470049  0.58655550  1
  O  O338  1  0.91687822  0.02899916  0.91699441  1
  O  O339  1  0.91283156  0.51880593  0.24034212  1
  O  O340  1  0.92003721  0.51873647  0.58757698  1
  O  O341  1  0.91727823  0.51685011  0.91865432  1
  O  O342  1  0.07751121  0.23254625  0.25910325  1
  O  O343  1  0.07705919  0.23764422  0.59297319  1
  O  O344  1  0.08035478  0.22775584  0.91846005  1
  O  O345  1  0.08092948  0.72713868  0.25458117  1
  O  O346  1  0.08381066  0.72899804  0.58472405  1
  O  O347  1  0.07621965  0.74041707  0.92936700  1
  O  O348  1  0.41521467  0.22129925  0.24940340  1
  O  O349  1  0.42669251  0.23739214  0.56725231  1
  O  O350  1  0.41870927  0.23175957  0.91553969  1
  O  O351  1  0.40985853  0.74714088  0.25354949  1
  O  O352  1  0.41813694  0.72537291  0.58153455  1
  O  O353  1  0.42173186  0.74036650  0.90368310  1
  O  O354  1  0.75099021  0.23651959  0.24947275  1
  O  O355  1  0.74348661  0.24334402  0.59502337  1
  O  O356  1  0.74990817  0.22446406  0.92103842  1
  O  O357  1  0.74839059  0.73762681  0.25551679  1
  O  O358  1  0.74807307  0.72476469  0.57949819  1
  O  O359  1  0.75061407  0.74030668  0.91114191  1
