# generated using pymatgen
data_Ba17Sr5La8Pr42Mn72O216
_symmetry_space_group_name_H-M   'P 1'
_cell_length_a   16.68011238
_cell_length_b   15.70836141
_cell_length_c   16.81771869
_cell_angle_alpha   89.99707186
_cell_angle_beta   89.98883815
_cell_angle_gamma   90.01237474
_symmetry_Int_Tables_number   1
_chemical_formula_structural   Ba17Sr5La8Pr42Mn72O216
_chemical_formula_sum   'Ba17 Sr5 La8 Pr42 Mn72 O216'
_cell_volume   4406.53193518
_cell_formula_units_Z   1
loop_
 _symmetry_equiv_pos_site_id
 _symmetry_equiv_pos_as_xyz
  1  'x, y, z'
loop_
 _atom_site_type_symbol
 _atom_site_label
 _atom_site_symmetry_multiplicity
 _atom_site_fract_x
 _atom_site_fract_y
 _atom_site_fract_z
 _atom_site_occupancy
  Ba  Ba0  1  0.17017284  0.62496442  0.16730703  1
  Ba  Ba1  1  0.00131386  0.62314414  1.00216939  1
  Ba  Ba2  1  -0.00609002  0.37560231  0.00309060  1
  Ba  Ba3  1  0.16981715  0.87483948  0.50061755  1
  Ba  Ba4  1  0.33617744  0.87272192  0.66374949  1
  Ba  Ba5  1  0.83032849  0.12448886  0.83386963  1
  Ba  Ba6  1  -0.00413573  0.37426799  0.33517471  1
  Ba  Ba7  1  0.00206358  0.87578642  0.33945665  1
  Ba  Ba8  1  0.16613501  0.12395019  0.83687934  1
  Ba  Ba9  1  0.16878638  0.12537529  0.16732611  1
  Ba  Ba10  1  0.33216839  0.12487311  0.99803808  1
  Ba  Ba11  1  0.00340885  0.62410657  0.66880046  1
  Ba  Ba12  1  0.33457242  0.62571612  0.99895501  1
  Ba  Ba13  1  0.33796786  0.87352301  0.33685778  1
  Ba  Ba14  1  0.00013774  0.87278815  0.66753247  1
  Ba  Ba15  1  0.83401263  0.87450681  0.49808368  1
  Ba  Ba16  1  0.66650227  0.12593147  0.99648771  1
  Sr  Sr17  1  0.66036451  0.37231322  -0.00127133  1
  Sr  Sr18  1  0.33824189  0.62850208  0.33001861  1
  Sr  Sr19  1  0.50045136  0.87494647  0.49836076  1
  Sr  Sr20  1  0.33643459  0.62495080  0.66666621  1
  Sr  Sr21  1  0.66936595  0.12573730  0.66557083  1
  La  La22  1  0.15689009  0.37503222  0.83696221  1
  La  La23  1  0.15903881  0.37628275  0.16357158  1
  La  La24  1  0.66905591  0.62365477  0.99752352  1
  La  La25  1  0.33706282  0.12466542  0.66606282  1
  La  La26  1  0.49514486  0.37554246  0.15950135  1
  La  La27  1  0.84040226  0.12536488  0.50505028  1
  La  La28  1  0.49779120  0.87582001  0.82877351  1
  La  La29  1  0.49340430  0.37507593  0.49709561  1
  Pr  Pr30  1  0.67033448  0.62353785  0.65977268  1
  Pr  Pr31  1  0.83014094  0.87348292  0.82876441  1
  Pr  Pr32  1  0.33973205  0.12040655  0.32932541  1
  Pr  Pr33  1  0.82115371  0.37822917  0.83627405  1
  Pr  Pr34  1  -0.01340962  0.37497002  0.67314216  1
  Pr  Pr35  1  0.15788701  0.37766069  0.49993384  1
  Pr  Pr36  1  0.50735022  0.12429108  0.16689955  1
  Pr  Pr37  1  0.32637787  0.87625776  -0.00087948  1
  Pr  Pr38  1  0.66490120  0.87595432  0.33773074  1
  Pr  Pr39  1  0.83077698  0.87330811  0.16590746  1
  Pr  Pr40  1  0.67383087  0.12314201  0.32927214  1
  Pr  Pr41  1  0.17086618  0.87335340  0.16956518  1
  Pr  Pr42  1  0.17044085  0.87387267  0.82845653  1
  Pr  Pr43  1  0.17450538  0.62812120  0.49876988  1
  Pr  Pr44  1  0.84384393  0.62439011  0.50012899  1
  Pr  Pr45  1  0.65568876  0.37409239  0.66937264  1
  Pr  Pr46  1  0.00744432  0.12221711  0.33745224  1
  Pr  Pr47  1  -0.00016279  0.12794713  0.99752446  1
  Pr  Pr48  1  0.49500044  0.87491215  0.16478512  1
  Pr  Pr49  1  0.82460359  0.37626124  0.15982825  1
  Pr  Pr50  1  0.50125141  0.12336766  0.83517682  1
  Pr  Pr51  1  0.16886806  0.63099673  0.83985482  1
  Pr  Pr52  1  -0.00215669  0.87837083  0.00448089  1
  Pr  Pr53  1  0.32375758  0.37570574  0.33474107  1
  Pr  Pr54  1  0.00599238  0.12514986  0.66664739  1
  Pr  Pr55  1  0.84375738  0.62403822  0.16888048  1
  Pr  Pr56  1  0.50643911  0.62579670  0.17015816  1
  Pr  Pr57  1  0.49186983  0.37366582  0.83378937  1
  Pr  Pr58  1  0.32228247  0.37624178  0.66898128  1
  Pr  Pr59  1  0.00988354  0.62894442  0.33327902  1
  Pr  Pr60  1  0.84162054  0.62479453  0.83459325  1
  Pr  Pr61  1  0.82116989  0.37743558  0.49867143  1
  Pr  Pr62  1  0.17323645  0.12267952  0.50114461  1
  Pr  Pr63  1  0.66479720  0.87617250  0.66708840  1
  Pr  Pr64  1  0.66211164  0.87846579  -0.00152232  1
  Pr  Pr65  1  0.50408249  0.62717425  0.83211172  1
  Pr  Pr66  1  0.50526454  0.12195702  0.49978519  1
  Pr  Pr67  1  0.67343322  0.62603849  0.32898685  1
  Pr  Pr68  1  0.83943333  0.12732131  0.16790168  1
  Pr  Pr69  1  0.50208820  0.62895745  0.49701350  1
  Pr  Pr70  1  0.65948636  0.37407856  0.33061619  1
  Pr  Pr71  1  0.32365112  0.37460828  0.00164688  1
  Mn  Mn72  1  -0.00124295  -0.00091185  0.16931892  1
  Mn  Mn73  1  0.00211870  0.00267415  0.50197989  1
  Mn  Mn74  1  -0.00308448  -0.00141026  0.83664648  1
  Mn  Mn75  1  -0.00151277  0.50036136  0.17117764  1
  Mn  Mn76  1  0.00062456  0.49838593  0.50230073  1
  Mn  Mn77  1  -0.00186086  0.49863586  0.83312821  1
  Mn  Mn78  1  0.33602003  0.00008134  0.16556290  1
  Mn  Mn79  1  0.33724025  0.00275047  0.49845921  1
  Mn  Mn80  1  0.33470625  -0.00105762  0.83247142  1
  Mn  Mn81  1  0.33642294  0.49952660  0.16859483  1
  Mn  Mn82  1  0.33493476  0.49888841  0.50087884  1
  Mn  Mn83  1  0.33170072  0.49922794  0.83224160  1
  Mn  Mn84  1  0.66858032  -0.00161079  0.16663575  1
  Mn  Mn85  1  0.66777547  0.00136047  0.49929139  1
  Mn  Mn86  1  0.66517831  -0.00160898  0.83180954  1
  Mn  Mn87  1  0.66641589  0.50117952  0.16486696  1
  Mn  Mn88  1  0.66417804  0.49923809  0.49718874  1
  Mn  Mn89  1  0.66263284  0.50157196  0.83043861  1
  Mn  Mn90  1  -0.00246594  0.24833219  0.17061795  1
  Mn  Mn91  1  0.00004986  0.25238820  0.50439952  1
  Mn  Mn92  1  -0.00534254  0.25094821  0.83373328  1
  Mn  Mn93  1  -0.00028328  0.75280237  0.17020315  1
  Mn  Mn94  1  0.00234047  0.74724601  0.50040199  1
  Mn  Mn95  1  -0.00133742  0.75039669  0.83713146  1
  Mn  Mn96  1  0.33666979  0.25019584  0.16844303  1
  Mn  Mn97  1  0.33458487  0.25170581  0.49962523  1
  Mn  Mn98  1  0.33210951  0.25253131  0.83210920  1
  Mn  Mn99  1  0.33634384  0.75110724  0.16564592  1
  Mn  Mn100  1  0.33734125  0.74622953  0.49918374  1
  Mn  Mn101  1  0.33536899  0.74793121  0.83250569  1
  Mn  Mn102  1  0.66681971  0.24863939  0.16633517  1
  Mn  Mn103  1  0.66565363  0.25071813  0.49894274  1
  Mn  Mn104  1  0.66270194  0.25244107  0.83179785  1
  Mn  Mn105  1  0.66806052  0.75208987  0.16469012  1
  Mn  Mn106  1  0.66696667  0.74861701  0.49724279  1
  Mn  Mn107  1  0.66588015  0.74745328  0.83080082  1
  Mn  Mn108  1  0.16367845  0.25028772  0.00152780  1
  Mn  Mn109  1  0.16835564  0.25112971  0.33566026  1
  Mn  Mn110  1  0.16576763  0.25024876  0.66644576  1
  Mn  Mn111  1  0.16449157  0.75346938  -0.00012567  1
  Mn  Mn112  1  0.17113485  0.74948864  0.33397688  1
  Mn  Mn113  1  0.16950484  0.74685951  0.66875266  1
  Mn  Mn114  1  0.49752457  0.25102752  -0.00157274  1
  Mn  Mn115  1  0.50140374  0.25163726  0.33145404  1
  Mn  Mn116  1  0.49883791  0.25053989  0.66455740  1
  Mn  Mn117  1  0.50099710  0.75009984  -0.00108857  1
  Mn  Mn118  1  0.50496701  0.74882563  0.33265236  1
  Mn  Mn119  1  0.50209433  0.74801582  0.66478942  1
  Mn  Mn120  1  0.82949820  0.25029169  0.00125290  1
  Mn  Mn121  1  0.83158538  0.25137359  0.33501641  1
  Mn  Mn122  1  0.83094943  0.25062714  0.66662681  1
  Mn  Mn123  1  0.83149415  0.75072324  -0.00096707  1
  Mn  Mn124  1  0.83365612  0.74825073  0.33256785  1
  Mn  Mn125  1  0.83133285  0.74896618  0.66605824  1
  Mn  Mn126  1  0.16305043  -0.00262394  0.00077208  1
  Mn  Mn127  1  0.17074695  0.00257637  0.33459131  1
  Mn  Mn128  1  0.16828277  0.00027408  0.66918418  1
  Mn  Mn129  1  0.16653204  0.50029946  0.00068561  1
  Mn  Mn130  1  0.16849532  0.49828636  0.33450037  1
  Mn  Mn131  1  0.16720315  0.49954623  0.66743388  1
  Mn  Mn132  1  0.49902996  -0.00198450  -0.00180438  1
  Mn  Mn133  1  0.50495553  0.00166284  0.33366842  1
  Mn  Mn134  1  0.50233925  0.00135440  0.66519532  1
  Mn  Mn135  1  0.49914752  0.50165213  -0.00123179  1
  Mn  Mn136  1  0.50096506  0.49798140  0.33109437  1
  Mn  Mn137  1  0.49852539  0.50011124  0.66410209  1
  Mn  Mn138  1  0.83216285  -0.00281523  0.00050120  1
  Mn  Mn139  1  0.83410425  0.00307815  0.33349075  1
  Mn  Mn140  1  0.83297924  0.00052889  0.66713973  1
  Mn  Mn141  1  0.82844509  0.50194463  -0.00003749  1
  Mn  Mn142  1  0.83137910  0.49872358  0.33321556  1
  Mn  Mn143  1  0.82929858  0.49988695  0.66495655  1
  O  O144  1  0.15905970  0.12377906  0.01035259  1
  O  O145  1  0.17292515  0.13093621  0.35377620  1
  O  O146  1  0.16627271  0.12756660  0.68198597  1
  O  O147  1  0.16881428  0.62706206  0.00602337  1
  O  O148  1  0.16734653  0.61850527  0.35077806  1
  O  O149  1  0.17196402  0.61943433  0.69552870  1
  O  O150  1  0.49917152  0.12049830  0.02177539  1
  O  O151  1  0.50252594  0.13028694  0.35566372  1
  O  O152  1  0.49722240  0.13050505  0.69212449  1
  O  O153  1  0.50510372  0.62754656  0.02616127  1
  O  O154  1  0.50783209  0.62005001  0.35211795  1
  O  O155  1  0.50852794  0.62141101  0.68879014  1
  O  O156  1  0.83341632  0.11932855  0.02384055  1
  O  O157  1  0.82185433  0.13056244  0.36083531  1
  O  O158  1  0.83654457  0.12760400  0.67741581  1
  O  O159  1  0.82185388  0.62724870  0.02408784  1
  O  O160  1  0.82057271  0.61988676  0.35765759  1
  O  O161  1  0.82222848  0.62229657  0.68989442  1
  O  O162  1  0.17247269  0.37307399  0.31065836  1
  O  O163  1  0.17178451  0.37310192  0.64066186  1
  O  O164  1  0.16807241  0.37498318  0.98782999  1
  O  O165  1  0.16837947  0.87978470  0.31780215  1
  O  O166  1  0.16697759  0.87464543  0.66023238  1
  O  O167  1  0.15689093  0.87541847  0.97619982  1
  O  O168  1  0.50816394  0.37413938  0.30337184  1
  O  O169  1  0.50377349  0.37557674  0.63949648  1
  O  O170  1  0.49894498  0.37965920  0.97820608  1
  O  O171  1  0.51113406  0.87629571  0.30996225  1
  O  O172  1  0.50719350  0.87190291  0.64758246  1
  O  O173  1  0.50756004  0.87231130  0.97279955  1
  O  O174  1  0.82750324  0.37501266  0.30354859  1
  O  O175  1  0.83200880  0.37600754  0.64175267  1
  O  O176  1  0.82776009  0.38028432  0.98228394  1
  O  O177  1  0.82954119  0.87611934  0.31050596  1
  O  O178  1  0.82475464  0.87377544  0.65485270  1
  O  O179  1  0.83983060  0.87218930  0.97437934  1
  O  O180  1  -0.00526648  0.37619143  0.17888081  1
  O  O181  1  0.00821680  0.37533240  0.52798754  1
  O  O182  1  -0.00155590  0.37496691  0.84399424  1
  O  O183  1  -0.01328958  0.87604633  0.18561400  1
  O  O184  1  0.00314507  0.87556571  0.50791018  1
  O  O185  1  -0.00939856  0.87371735  0.85853090  1
  O  O186  1  0.34506033  0.37313061  0.19163990  1
  O  O187  1  0.34328354  0.37402761  0.52652215  1
  O  O188  1  0.34515485  0.37625834  0.85535996  1
  O  O189  1  0.33729796  0.87716047  0.17924439  1
  O  O190  1  0.34184480  0.87584306  0.50735714  1
  O  O191  1  0.34314971  0.87212370  0.85101203  1
  O  O192  1  0.67114265  0.37331628  0.18849328  1
  O  O193  1  0.67049714  0.37611461  0.52607450  1
  O  O194  1  0.66937370  0.38017426  0.84934969  1
  O  O195  1  0.66991152  0.87425039  0.19519963  1
  O  O196  1  0.66610073  0.87563459  0.52294558  1
  O  O197  1  0.66625701  0.86775370  0.85458261  1
  O  O198  1  -0.00725982  0.12070345  0.14128423  1
  O  O199  1  -0.00800311  0.13196260  0.48353893  1
  O  O200  1  -0.00309693  0.12727702  0.81189131  1
  O  O201  1  -0.00374039  0.62717633  0.15890083  1
  O  O202  1  -0.00543273  0.61869801  0.48023020  1
  O  O203  1  -0.00352977  0.62217553  0.82471100  1
  O  O204  1  0.34291286  0.12429884  0.15368626  1
  O  O205  1  0.33111383  0.13280920  0.47391808  1
  O  O206  1  0.33694626  0.12894226  0.81166076  1
  O  O207  1  0.34282417  0.62642516  0.15586076  1
  O  O208  1  0.33113052  0.61749802  0.48046219  1
  O  O209  1  0.31854164  0.62140982  0.81848682  1
  O  O210  1  0.66423379  0.12344166  0.15169301  1
  O  O211  1  0.66020381  0.12885740  0.47294866  1
  O  O212  1  0.65552826  0.12816444  0.81600605  1
  O  O213  1  0.66051121  0.63003548  0.14031007  1
  O  O214  1  0.65569309  0.62016926  0.47100222  1
  O  O215  1  0.65513827  0.62415740  0.80276509  1
  O  O216  1  0.08215731  0.01592489  0.25603375  1
  O  O217  1  0.08510944  0.02275885  0.58459296  1
  O  O218  1  0.07241533  0.01135878  0.92812635  1
  O  O219  1  0.08411563  0.50979566  0.25298812  1
  O  O220  1  0.09935493  0.51682205  0.57555248  1
  O  O221  1  0.09188718  0.50811540  0.90314237  1
  O  O222  1  0.42857284  0.01787194  0.24759247  1
  O  O223  1  0.41909006  0.02527874  0.58246755  1
  O  O224  1  0.42054811  0.01280485  0.91149438  1
  O  O225  1  0.43307613  0.51495425  0.23749238  1
  O  O226  1  0.43135361  0.51786004  0.56964678  1
  O  O227  1  0.42747390  0.51810270  0.89922553  1
  O  O228  1  0.75760912  0.02113267  0.24467061  1
  O  O229  1  0.75207468  0.01998942  0.57554026  1
  O  O230  1  0.74807087  -0.00112390  0.91697152  1
  O  O231  1  0.75699440  0.52194785  0.23929800  1
  O  O232  1  0.75508948  0.52159772  0.57021064  1
  O  O233  1  0.75146457  0.52295207  0.90412491  1
  O  O234  1  0.26826179  0.23816195  0.26254692  1
  O  O235  1  0.25900053  0.23217112  0.59246527  1
  O  O236  1  0.25271788  0.25162591  0.92088350  1
  O  O237  1  0.25324348  0.74556362  0.24868360  1
  O  O238  1  0.25349094  0.73014210  0.58319503  1
  O  O239  1  0.24913689  0.74923613  0.91491903  1
  O  O240  1  0.59297542  0.23085949  0.25801968  1
  O  O241  1  0.58759486  0.23386035  0.58649020  1
  O  O242  1  0.57928164  0.24213651  0.91306925  1
  O  O243  1  0.59299636  0.72836065  0.25288466  1
  O  O244  1  0.58754364  0.72651422  0.58388310  1
  O  O245  1  0.58805645  0.72706905  0.91880346  1
  O  O246  1  0.91987452  0.22357303  0.26172609  1
  O  O247  1  0.93012982  0.23819754  0.59963831  1
  O  O248  1  0.91850798  0.23414528  0.92884832  1
  O  O249  1  0.91819368  0.72664487  0.25611750  1
  O  O250  1  0.91482052  0.73416065  0.58233598  1
  O  O251  1  0.91245019  0.73197512  0.91839371  1
  O  O252  1  0.08389005  0.48911659  0.08707806  1
  O  O253  1  0.08336758  0.48617569  0.41786900  1
  O  O254  1  0.07678802  0.47557463  0.74004972  1
  O  O255  1  0.08141610  0.97454573  0.09012770  1
  O  O256  1  0.08672646  1.00824525  0.42153556  1
  O  O257  1  0.08325925  0.98529970  0.76103914  1
  O  O258  1  0.40992507  0.47997453  0.07386749  1
  O  O259  1  0.41224478  0.47745659  0.40539312  1
  O  O260  1  0.40743307  0.48200935  0.73704638  1
  O  O261  1  0.41624115  0.97478396  0.07720889  1
  O  O262  1  0.42361739  1.00024336  0.41819538  1
  O  O263  1  0.42316781  0.99029646  0.75211217  1
  O  O264  1  0.73945987  0.48450143  0.07642342  1
  O  O265  1  0.73868257  0.47634096  0.40606595  1
  O  O266  1  0.73885248  0.48017319  0.73799654  1
  O  O267  1  0.74799725  0.97184624  0.08150965  1
  O  O268  1  0.74284495  0.98691794  0.40591202  1
  O  O269  1  0.74513399  0.98114493  0.74848918  1
  O  O270  1  0.24784173  0.27138915  0.09353880  1
  O  O271  1  0.24545343  0.27666629  0.42713994  1
  O  O272  1  0.24336600  0.27442419  0.75523375  1
  O  O273  1  0.24661500  0.77477845  0.08116804  1
  O  O274  1  0.25249003  0.75052021  0.41869383  1
  O  O275  1  0.24751380  0.76362090  0.75653922  1
  O  O276  1  0.57423862  0.26260779  0.09272508  1
  O  O277  1  0.57596474  0.27483027  0.41980629  1
  O  O278  1  0.57428398  0.27458415  0.75211699  1
  O  O279  1  0.58060320  0.77623857  0.08869887  1
  O  O280  1  0.58497407  0.76926889  0.41647428  1
  O  O281  1  0.58270542  0.77121491  0.75080471  1
  O  O282  1  0.90260287  0.26018243  0.09762258  1
  O  O283  1  0.90334038  0.26854865  0.43398156  1
  O  O284  1  0.90243963  0.27564647  0.75736963  1
  O  O285  1  0.91030438  0.76585710  0.09016107  1
  O  O286  1  0.91464561  0.74786408  0.41725692  1
  O  O287  1  0.90814244  0.75867739  0.76011597  1
  O  O288  1  0.24922255  0.47752393  0.09277293  1
  O  O289  1  0.24524828  0.47570484  0.42625752  1
  O  O290  1  0.24215980  0.47125437  0.75796210  1
  O  O291  1  0.24527274  0.97716012  0.08253264  1
  O  O292  1  0.25441704  0.99978275  0.41706460  1
  O  O293  1  0.25114938  0.98642236  0.75378608  1
  O  O294  1  0.57414013  0.48605320  0.09415259  1
  O  O295  1  0.57562047  0.47401842  0.42187279  1
  O  O296  1  0.57232388  0.47626850  0.75491593  1
  O  O297  1  0.58018254  0.97714090  0.08520500  1
  O  O298  1  0.58550207  0.98328305  0.41591002  1
  O  O299  1  0.58475183  0.97906368  0.74724992  1
  O  O300  1  0.90302588  0.49270188  0.09744555  1
  O  O301  1  0.90098781  0.48366047  0.42711503  1
  O  O302  1  0.90528104  0.48312663  0.75555541  1
  O  O303  1  0.91079577  0.97724598  0.08683445  1
  O  O304  1  0.91563779  1.00202550  0.41793687  1
  O  O305  1  0.91051897  0.98297092  0.75998131  1
  O  O306  1  0.08133590  0.26044339  0.08681907  1
  O  O307  1  0.08183395  0.26201070  0.42163061  1
  O  O308  1  0.07339538  0.26730427  0.73856088  1
  O  O309  1  0.08075518  0.77503999  0.08659381  1
  O  O310  1  0.08571332  0.74488986  0.41790892  1
  O  O311  1  0.08666908  0.75928878  0.75938168  1
  O  O312  1  0.40960150  0.27186196  0.07630688  1
  O  O313  1  0.41175568  0.27264738  0.40502784  1
  O  O314  1  0.40872940  0.27272676  0.73850342  1
  O  O315  1  0.41534274  0.77437517  0.07607409  1
  O  O316  1  0.42433369  0.74939411  0.41783242  1
  O  O317  1  0.42247214  0.75379444  0.75135430  1
  O  O318  1  0.74463230  0.26787696  0.08195496  1
  O  O319  1  0.74083945  0.27592524  0.40803233  1
  O  O320  1  0.73953052  0.26999653  0.74107111  1
  O  O321  1  0.74343495  0.77695154  0.07544571  1
  O  O322  1  0.74189642  0.76294015  0.40383948  1
  O  O323  1  0.74242012  0.76794681  0.74479460  1
  O  O324  1  0.25804945  0.01442207  0.25408707  1
  O  O325  1  0.25522598  0.02210015  0.58177999  1
  O  O326  1  0.25057114  -0.00412809  0.91715258  1
  O  O327  1  0.26338675  0.50595298  0.25965395  1
  O  O328  1  0.25972922  0.51138450  0.59346870  1
  O  O329  1  0.25391867  0.50127155  0.92021712  1
  O  O330  1  0.58989720  0.02142140  0.25330563  1
  O  O331  1  0.58380228  0.02064357  0.58155856  1
  O  O332  1  0.57796848  0.01013726  0.91082106  1
  O  O333  1  0.59562303  0.51794957  0.25723280  1
  O  O334  1  0.59233796  0.51665889  0.58986443  1
  O  O335  1  0.58718496  0.52263545  0.92126836  1
  O  O336  1  0.91849862  0.02831947  0.25442506  1
  O  O337  1  0.92274881  0.01844996  0.58795249  1
  O  O338  1  0.92005728  0.01688437  0.92749271  1
  O  O339  1  0.91976733  0.52433390  0.26232755  1
  O  O340  1  0.91700170  0.51036317  0.58798081  1
  O  O341  1  0.91000568  0.51215279  0.91726979  1
  O  O342  1  0.08232534  0.23570633  0.25424535  1
  O  O343  1  0.09166243  0.22732789  0.57810340  1
  O  O344  1  0.07988654  0.24228155  0.91552083  1
  O  O345  1  0.08364530  0.74117126  0.25287662  1
  O  O346  1  0.09175908  0.73069207  0.58034689  1
  O  O347  1  0.08549980  0.73893538  0.91514243  1
  O  O348  1  0.43069260  0.22856496  0.24090979  1
  O  O349  1  0.42505715  0.22658130  0.57404429  1
  O  O350  1  0.42353488  0.23597966  0.90301402  1
  O  O351  1  0.43225231  0.73948900  0.24262243  1
  O  O352  1  0.42373560  0.72808833  0.57982776  1
  O  O353  1  0.42494552  0.73258326  0.90804038  1
  O  O354  1  0.75551595  0.22864669  0.24350359  1
  O  O355  1  0.76139030  0.23605353  0.57212241  1
  O  O356  1  0.75119554  0.24861739  0.91018782  1
  O  O357  1  0.75745286  0.72935749  0.23836347  1
  O  O358  1  0.75015384  0.72340072  0.57423816  1
  O  O359  1  0.75084034  0.72579619  0.90673829  1
