# generated using pymatgen
data_Ba17Sr5La8Pr42Mn72O216
_symmetry_space_group_name_H-M   'P 1'
_cell_length_a   16.66987071
_cell_length_b   15.70326661
_cell_length_c   16.81558242
_cell_angle_alpha   90.00338423
_cell_angle_beta   89.97276151
_cell_angle_gamma   90.00704001
_symmetry_Int_Tables_number   1
_chemical_formula_structural   Ba17Sr5La8Pr42Mn72O216
_chemical_formula_sum   'Ba17 Sr5 La8 Pr42 Mn72 O216'
_cell_volume   4401.83842063
_cell_formula_units_Z   1
loop_
 _symmetry_equiv_pos_site_id
 _symmetry_equiv_pos_as_xyz
  1  'x, y, z'
loop_
 _atom_site_type_symbol
 _atom_site_label
 _atom_site_symmetry_multiplicity
 _atom_site_fract_x
 _atom_site_fract_y
 _atom_site_fract_z
 _atom_site_occupancy
  Ba  Ba0  1  0.16468537  0.37732754  0.49873577  1
  Ba  Ba1  1  0.66475631  0.87437489  0.66673038  1
  Ba  Ba2  1  0.33314633  0.87386947  0.00168383  1
  Ba  Ba3  1  0.16791297  0.12680262  0.83571526  1
  Ba  Ba4  1  0.83395156  0.37666195  0.16343924  1
  Ba  Ba5  1  0.33669199  0.12544674  0.33538189  1
  Ba  Ba6  1  0.82970233  0.37344762  0.83062500  1
  Ba  Ba7  1  -0.00306736  0.62450750  0.66340166  1
  Ba  Ba8  1  0.66804887  0.37607875  0.33303984  1
  Ba  Ba9  1  0.33184895  0.37341741  0.33646392  1
  Ba  Ba10  1  0.66589291  0.62481612  0.33266637  1
  Ba  Ba11  1  0.50312925  0.12386698  0.16852765  1
  Ba  Ba12  1  0.16959851  0.87510910  0.16680112  1
  Ba  Ba13  1  0.16628790  0.62792032  0.50213787  1
  Ba  Ba14  1  -0.00296393  0.37601661  0.66460207  1
  Ba  Ba15  1  0.83303987  0.87333941  0.16313940  1
  Ba  Ba16  1  0.66357797  0.62671308  0.66554526  1
  Sr  Sr17  1  0.83436212  0.62447090  0.16758488  1
  Sr  Sr18  1  0.33218691  0.62531748  0.66603375  1
  Sr  Sr19  1  0.50524087  0.12218923  0.84026227  1
  Sr  Sr20  1  0.83129064  0.87222837  0.49509266  1
  Sr  Sr21  1  0.16523766  0.87188053  0.49832632  1
  La  La22  1  0.32967996  0.62661064  0.99796081  1
  La  La23  1  0.00099649  0.12392220  0.99900344  1
  La  La24  1  0.67245319  0.12501056  0.33159427  1
  La  La25  1  0.49709572  0.62549344  0.17151638  1
  La  La26  1  0.00550411  0.12286227  0.32995082  1
  La  La27  1  0.16393004  0.62961476  0.16821552  1
  La  La28  1  0.67179870  0.62308008  0.99898291  1
  La  La29  1  0.16286300  0.37685026  0.82940206  1
  Pr  Pr30  1  0.00420257  0.87720062  0.00228664  1
  Pr  Pr31  1  0.16529965  0.87450241  0.83132053  1
  Pr  Pr32  1  0.83175662  0.62506368  0.50008075  1
  Pr  Pr33  1  0.49379702  0.37336887  0.83332567  1
  Pr  Pr34  1  0.49656488  0.37802904  0.50045972  1
  Pr  Pr35  1  0.15790805  0.62452464  0.83293338  1
  Pr  Pr36  1  0.00439154  0.12779969  0.66145119  1
  Pr  Pr37  1  0.66016575  0.37419439  0.66869681  1
  Pr  Pr38  1  0.82952456  0.62335150  0.82912751  1
  Pr  Pr39  1  0.34049183  0.12053504  0.99954063  1
  Pr  Pr40  1  0.65875561  0.37274656  0.00501288  1
  Pr  Pr41  1  0.17474031  0.12170202  0.16839425  1
  Pr  Pr42  1  0.83933762  0.12601917  0.16841950  1
  Pr  Pr43  1  0.32573371  0.87353342  0.67058407  1
  Pr  Pr44  1  0.66292580  0.87658488  0.00080040  1
  Pr  Pr45  1  0.00102715  0.37451027  0.00103094  1
  Pr  Pr46  1  0.33500895  0.87669855  0.33713138  1
  Pr  Pr47  1  0.34333882  0.12391667  0.66637085  1
  Pr  Pr48  1  0.83212746  0.87396493  0.82599722  1
  Pr  Pr49  1  0.50113088  0.87258359  0.50220862  1
  Pr  Pr50  1  0.17727466  0.12498911  0.50685442  1
  Pr  Pr51  1  0.66673903  0.87621123  0.33781319  1
  Pr  Pr52  1  0.32785933  0.62384822  0.33556128  1
  Pr  Pr53  1  -0.00310916  0.37823070  0.33777818  1
  Pr  Pr54  1  0.50020236  0.37357995  0.16958056  1
  Pr  Pr55  1  0.67778366  0.12522656  0.99780226  1
  Pr  Pr56  1  0.84021784  0.12517963  0.49833690  1
  Pr  Pr57  1  0.48938849  0.87656140  0.82981945  1
  Pr  Pr58  1  0.16877927  0.37627482  0.16934937  1
  Pr  Pr59  1  0.32640298  0.37684390  0.66872642  1
  Pr  Pr60  1  0.50725812  0.12988377  0.50239490  1
  Pr  Pr61  1  0.50057718  0.87566251  0.16937993  1
  Pr  Pr62  1  0.33089273  0.37223861  0.00474912  1
  Pr  Pr63  1  0.67404407  0.12385219  0.66548945  1
  Pr  Pr64  1  -0.00656595  0.62755048  0.99676714  1
  Pr  Pr65  1  0.50103707  0.62841105  0.83846169  1
  Pr  Pr66  1  -0.00002051  0.87223494  0.66502667  1
  Pr  Pr67  1  0.49915362  0.62028149  0.50579987  1
  Pr  Pr68  1  -0.00019797  0.87235355  0.33448557  1
  Pr  Pr69  1  -0.00142923  0.62738537  0.33173760  1
  Pr  Pr70  1  0.83297614  0.38005011  0.49563277  1
  Pr  Pr71  1  0.83738570  0.12433140  0.82963624  1
  Mn  Mn72  1  0.00245513  0.00035026  0.16494380  1
  Mn  Mn73  1  0.00081298  -0.00084010  0.49776466  1
  Mn  Mn74  1  -0.00081782  -0.00155244  0.83188394  1
  Mn  Mn75  1  0.00241581  0.50059541  0.16522260  1
  Mn  Mn76  1  -0.00207674  0.50114652  0.49755026  1
  Mn  Mn77  1  -0.00284054  0.50143457  0.83409500  1
  Mn  Mn78  1  0.33604747  -0.00044994  0.16853695  1
  Mn  Mn79  1  0.33688806  -0.00158542  0.50375036  1
  Mn  Mn80  1  0.33255091  0.00109081  0.83332142  1
  Mn  Mn81  1  0.33364712  0.50093446  0.16590392  1
  Mn  Mn82  1  0.33331814  0.50147262  0.50255052  1
  Mn  Mn83  1  0.33220011  0.50218126  0.83532305  1
  Mn  Mn84  1  0.66900151  -0.00081273  0.16670751  1
  Mn  Mn85  1  0.66705174  0.00086656  0.49923081  1
  Mn  Mn86  1  0.66670062  -0.00005131  0.83444797  1
  Mn  Mn87  1  0.66525794  0.50048136  0.16440859  1
  Mn  Mn88  1  0.66601908  0.49978006  0.50160441  1
  Mn  Mn89  1  0.66310485  0.49887971  0.83385199  1
  Mn  Mn90  1  0.00476886  0.25013952  0.16620850  1
  Mn  Mn91  1  0.00025690  0.24809680  0.49596113  1
  Mn  Mn92  1  -0.00075624  0.24859754  0.83261613  1
  Mn  Mn93  1  -0.00048469  0.75017400  0.16399250  1
  Mn  Mn94  1  -0.00276549  0.75295792  0.49829898  1
  Mn  Mn95  1  -0.00242227  0.75117820  0.83296902  1
  Mn  Mn96  1  0.33403193  0.25230695  0.16685388  1
  Mn  Mn97  1  0.33574021  0.24806681  0.50396404  1
  Mn  Mn98  1  0.33458775  0.25077639  0.83632352  1
  Mn  Mn99  1  0.33500714  0.74778896  0.16857872  1
  Mn  Mn100  1  0.33589522  0.75172155  0.50253129  1
  Mn  Mn101  1  0.33084778  0.74746346  0.83306813  1
  Mn  Mn102  1  0.66778954  0.24903040  0.16524697  1
  Mn  Mn103  1  0.66878577  0.24905199  0.50149011  1
  Mn  Mn104  1  0.66448540  0.24859668  0.83355382  1
  Mn  Mn105  1  0.66569206  0.75060609  0.16600810  1
  Mn  Mn106  1  0.66570974  0.75041383  0.49853175  1
  Mn  Mn107  1  0.66534478  0.74971419  0.83533092  1
  Mn  Mn108  1  0.16769096  0.25225961  0.00237477  1
  Mn  Mn109  1  0.16518227  0.24762929  0.33377921  1
  Mn  Mn110  1  0.16795269  0.24937259  0.66951547  1
  Mn  Mn111  1  0.16477888  0.74754686  -0.00068894  1
  Mn  Mn112  1  0.16739726  0.75120725  0.33382794  1
  Mn  Mn113  1  0.16548132  0.75220472  0.66616190  1
  Mn  Mn114  1  0.49995692  0.24955853  -0.00071981  1
  Mn  Mn115  1  0.50276883  0.25077570  0.33622303  1
  Mn  Mn116  1  0.50016242  0.24893939  0.67084176  1
  Mn  Mn117  1  0.50172954  0.74956523  0.00351526  1
  Mn  Mn118  1  0.49844857  0.74985171  0.33555800  1
  Mn  Mn119  1  0.49627996  0.75017401  0.66813877  1
  Mn  Mn120  1  0.83524877  0.24972268  -0.00220236  1
  Mn  Mn121  1  0.83588384  0.24854412  0.33258159  1
  Mn  Mn122  1  0.83172291  0.24767584  0.66340397  1
  Mn  Mn123  1  0.83208437  0.75003915  -0.00462458  1
  Mn  Mn124  1  0.83270424  0.75030091  0.33060807  1
  Mn  Mn125  1  0.83243261  0.75167900  0.66298439  1
  Mn  Mn126  1  0.16789913  0.00187071  0.00003010  1
  Mn  Mn127  1  0.16776789  -0.00185390  0.33705418  1
  Mn  Mn128  1  0.16606664  -0.00027104  0.66714253  1
  Mn  Mn129  1  0.16579055  0.50050302  -0.00052053  1
  Mn  Mn130  1  0.16465406  0.50328440  0.33108973  1
  Mn  Mn131  1  0.16656468  0.50116131  0.66768958  1
  Mn  Mn132  1  0.50244318  -0.00138067  0.00070652  1
  Mn  Mn133  1  0.50246100  -0.00115947  0.33665835  1
  Mn  Mn134  1  0.50009259  0.00155705  0.66887131  1
  Mn  Mn135  1  0.49885479  0.50082781  0.00184690  1
  Mn  Mn136  1  0.49797853  0.50099870  0.33601518  1
  Mn  Mn137  1  0.49686577  0.49821275  0.67021624  1
  Mn  Mn138  1  0.83442468  -0.00065531  -0.00419800  1
  Mn  Mn139  1  0.83483243  -0.00049489  0.33122558  1
  Mn  Mn140  1  0.83511253  -0.00100157  0.66363982  1
  Mn  Mn141  1  0.83363778  0.50032004  -0.00263472  1
  Mn  Mn142  1  0.83444687  0.50179872  0.33105178  1
  Mn  Mn143  1  0.82873664  0.49967980  0.66426118  1
  O  O144  1  0.15826609  0.13222763  0.02487368  1
  O  O145  1  0.16076178  0.11751293  0.36238974  1
  O  O146  1  0.16028168  0.12360455  0.67928785  1
  O  O147  1  0.15827909  0.62193490  0.02385610  1
  O  O148  1  0.16741055  0.62856205  0.34452775  1
  O  O149  1  0.16781466  0.62859796  0.68780864  1
  O  O150  1  0.49161142  0.12377453  0.01116683  1
  O  O151  1  0.50847299  0.12331743  0.35699794  1
  O  O152  1  0.49618970  0.12614813  0.69258172  1
  O  O153  1  0.49791180  0.62441280  0.02733437  1
  O  O154  1  0.49370057  0.62749280  0.36150395  1
  O  O155  1  0.49674156  0.62092704  0.69433511  1
  O  O156  1  0.83189182  0.12468522  0.02416919  1
  O  O157  1  0.83866548  0.12348429  0.35372163  1
  O  O158  1  0.83000704  0.12212332  0.68680105  1
  O  O159  1  0.83382470  0.62529232  0.01768830  1
  O  O160  1  0.84301894  0.62657880  0.35431536  1
  O  O161  1  0.83121233  0.62870812  0.68437570  1
  O  O162  1  0.15780592  0.37942356  0.31281544  1
  O  O163  1  0.17317234  0.37303606  0.65898657  1
  O  O164  1  0.17485209  0.37793153  0.97260003  1
  O  O165  1  0.16967595  0.87420879  0.32185421  1
  O  O166  1  0.16834760  0.87802411  0.64868352  1
  O  O167  1  0.16273027  0.87047781  0.97630393  1
  O  O168  1  0.49942328  0.37759195  0.31578010  1
  O  O169  1  0.50256175  0.37058660  0.64389080  1
  O  O170  1  0.50255703  0.37706482  0.97559510  1
  O  O171  1  0.50176566  0.87222733  0.31242261  1
  O  O172  1  0.49245889  0.87920089  0.64674398  1
  O  O173  1  0.50884979  0.87321689  0.97357286  1
  O  O174  1  0.84136370  0.37346035  0.32172803  1
  O  O175  1  0.82391591  0.36863048  0.64085333  1
  O  O176  1  0.84358262  0.37432748  0.98642062  1
  O  O177  1  0.82920685  0.87663662  0.31924627  1
  O  O178  1  0.84034334  0.87821558  0.64570999  1
  O  O179  1  0.83465012  0.87555646  0.96958702  1
  O  O180  1  0.00800624  0.37343950  0.19387597  1
  O  O181  1  -0.00664198  0.37258666  0.50576217  1
  O  O182  1  0.00186827  0.37870547  0.85530340  1
  O  O183  1  -0.00033076  0.87704043  0.18836013  1
  O  O184  1  -0.00363510  0.87894818  0.52173579  1
  O  O185  1  -0.00582873  0.87398891  0.86042908  1
  O  O186  1  0.32954269  0.37832115  0.17966619  1
  O  O187  1  0.34251729  0.37073506  0.52394646  1
  O  O188  1  0.33377702  0.38075951  0.86287469  1
  O  O189  1  0.33891959  0.86922574  0.19010673  1
  O  O190  1  0.34517099  0.87676834  0.52882224  1
  O  O191  1  0.33027228  0.87397340  0.84597414  1
  O  O192  1  0.66165820  0.37390805  0.17427412  1
  O  O193  1  0.67811191  0.37091458  0.52488883  1
  O  O194  1  0.65976922  0.37539745  0.86065806  1
  O  O195  1  0.66332182  0.87517638  0.19207590  1
  O  O196  1  0.66786516  0.87791460  0.50991960  1
  O  O197  1  0.67564356  0.87563198  0.85751902  1
  O  O198  1  0.00080168  0.12486926  0.14185968  1
  O  O199  1  -0.00385269  0.12224818  0.47337729  1
  O  O200  1  -0.00335684  0.11830165  0.80604374  1
  O  O201  1  0.00624013  0.62580066  0.14057922  1
  O  O202  1  -0.01061635  0.62719260  0.47829727  1
  O  O203  1  0.00463738  0.62755065  0.81933384  1
  O  O204  1  0.32936694  0.13100196  0.14511861  1
  O  O205  1  0.32897425  0.12228678  0.49225446  1
  O  O206  1  0.33779079  0.12369765  0.81076594  1
  O  O207  1  0.34179742  0.62252766  0.14278358  1
  O  O208  1  0.34240829  0.63048099  0.47896965  1
  O  O209  1  0.34261978  0.62371537  0.81433995  1
  O  O210  1  0.67241138  0.12348587  0.14262197  1
  O  O211  1  0.65564004  0.12475723  0.47652742  1
  O  O212  1  0.66289683  0.12307129  0.80920677  1
  O  O213  1  0.65776903  0.62651957  0.14359082  1
  O  O214  1  0.65623103  0.62622374  0.48984769  1
  O  O215  1  0.66125550  0.62332705  0.82051903  1
  O  O216  1  0.08626266  0.02074973  0.24668328  1
  O  O217  1  0.08669670  0.02025609  0.57897264  1
  O  O218  1  0.07964912  0.01021569  0.91773218  1
  O  O219  1  0.08398940  0.52464961  0.24595380  1
  O  O220  1  0.07984728  0.50707646  0.58033453  1
  O  O221  1  0.07811909  0.51794720  0.92354319  1
  O  O222  1  0.42199703  0.00343052  0.25202990  1
  O  O223  1  0.42518215  0.02513480  0.58025914  1
  O  O224  1  0.42185874  0.00873179  0.91255484  1
  O  O225  1  0.41112998  0.52199744  0.25686143  1
  O  O226  1  0.41937605  0.51559479  0.58627468  1
  O  O227  1  0.41564695  0.52245291  0.92053385  1
  O  O228  1  0.75796780  0.02306796  0.24218268  1
  O  O229  1  0.75352190  0.02308481  0.57513784  1
  O  O230  1  0.75521159  0.02482779  0.91092897  1
  O  O231  1  0.75380818  0.51185674  0.24617868  1
  O  O232  1  0.75226801  0.51713724  0.57743499  1
  O  O233  1  0.75065994  0.51905892  0.90950785  1
  O  O234  1  0.24598258  0.23696920  0.24785148  1
  O  O235  1  0.26029597  0.23251845  0.59533883  1
  O  O236  1  0.26199070  0.23317740  0.93300463  1
  O  O237  1  0.25066789  0.72839439  0.24708942  1
  O  O238  1  0.25506501  0.74488731  0.58683706  1
  O  O239  1  0.24498180  0.72484783  0.91369342  1
  O  O240  1  0.59405581  0.23543938  0.25847793  1
  O  O241  1  0.59229006  0.23075087  0.59686209  1
  O  O242  1  0.59396407  0.23294572  0.92824330  1
  O  O243  1  0.57079334  0.73619073  0.24482879  1
  O  O244  1  0.57464609  0.74308759  0.57794387  1
  O  O245  1  0.58391932  0.72761441  0.92463381  1
  O  O246  1  0.92348216  0.22831770  0.25036095  1
  O  O247  1  0.92137212  0.22612748  0.58191644  1
  O  O248  1  0.91834830  0.22522470  0.91544482  1
  O  O249  1  0.91939904  0.73286814  0.24798424  1
  O  O250  1  0.90962774  0.73711710  0.57422360  1
  O  O251  1  0.91032915  0.72684953  0.90808872  1
  O  O252  1  0.09007380  0.47224530  0.08469243  1
  O  O253  1  0.07379174  0.49403773  0.40599170  1
  O  O254  1  0.08792295  0.49088450  0.76058072  1
  O  O255  1  0.07985139  0.98596485  0.07895032  1
  O  O256  1  0.07720926  0.97732597  0.41110095  1
  O  O257  1  0.07882688  0.97343154  0.74854479  1
  O  O258  1  0.42077088  0.47582177  0.08708500  1
  O  O259  1  0.42162811  0.48685949  0.42539044  1
  O  O260  1  0.41357066  0.47272254  0.75176649  1
  O  O261  1  0.42133684  0.98492814  0.08459118  1
  O  O262  1  0.41702974  0.97798443  0.41667703  1
  O  O263  1  0.40750102  0.98178144  0.74296940  1
  O  O264  1  0.74363775  0.48886309  0.06923959  1
  O  O265  1  0.75610004  0.49179109  0.42133410  1
  O  O266  1  0.73902034  0.48328788  0.74214642  1
  O  O267  1  0.74421634  0.98392782  0.06963266  1
  O  O268  1  0.74178288  0.99271472  0.40517683  1
  O  O269  1  0.75194125  0.98731695  0.75108213  1
  O  O270  1  0.24568170  0.27376099  0.08787218  1
  O  O271  1  0.24410825  0.25285768  0.42549674  1
  O  O272  1  0.24965828  0.27082140  0.76178591  1
  O  O273  1  0.25228524  0.74848327  0.08020875  1
  O  O274  1  0.25943834  0.76577739  0.41357034  1
  O  O275  1  0.24383872  0.76907704  0.75203141  1
  O  O276  1  0.57429475  0.26950368  0.08646819  1
  O  O277  1  0.57749481  0.26819749  0.43410024  1
  O  O278  1  0.57480056  0.27291954  0.75921296  1
  O  O279  1  0.58386486  0.77607068  0.08337795  1
  O  O280  1  0.58397261  0.77253223  0.41337742  1
  O  O281  1  0.57230662  0.76544314  0.76207811  1
  O  O282  1  0.92668378  0.26111538  0.08013565  1
  O  O283  1  0.91017765  0.26428993  0.42131911  1
  O  O284  1  0.91053862  0.25292373  0.74754091  1
  O  O285  1  0.92241880  0.76433005  0.06946926  1
  O  O286  1  0.92036014  0.76944911  0.40889228  1
  O  O287  1  0.91928401  0.77212689  0.74625092  1
  O  O288  1  0.25472124  0.48568824  0.07466978  1
  O  O289  1  0.25124397  0.49799173  0.41228134  1
  O  O290  1  0.25101554  0.48283327  0.75498228  1
  O  O291  1  0.25082644  0.99932480  0.08414522  1
  O  O292  1  0.25319626  0.98030311  0.42310857  1
  O  O293  1  0.24338712  0.98067737  0.75493269  1
  O  O294  1  0.58051012  0.47939616  0.08020601  1
  O  O295  1  0.58026938  0.48469239  0.42409186  1
  O  O296  1  0.57652952  0.47496545  0.75469267  1
  O  O297  1  0.58189211  0.97744218  0.08982846  1
  O  O298  1  0.57763210  0.97757311  0.42426384  1
  O  O299  1  0.57270639  0.98082167  0.76318988  1
  O  O300  1  0.92802196  0.48879712  0.07628831  1
  O  O301  1  0.91579641  0.48385818  0.41386880  1
  O  O302  1  0.90948119  0.49508954  0.74967229  1
  O  O303  1  0.92065270  0.98680431  0.07417293  1
  O  O304  1  0.91677933  0.98194487  0.41287518  1
  O  O305  1  0.91668220  0.97709500  0.75132943  1
  O  O306  1  0.08674594  0.27975153  0.08381430  1
  O  O307  1  0.07054462  0.26194759  0.40278043  1
  O  O308  1  0.08221159  0.26264990  0.75239008  1
  O  O309  1  0.08094871  0.76655826  0.07861944  1
  O  O310  1  0.07903805  0.76580306  0.41432822  1
  O  O311  1  0.08270628  0.77410471  0.75469362  1
  O  O312  1  0.41189112  0.26949282  0.07598137  1
  O  O313  1  0.42027152  0.25855015  0.42480975  1
  O  O314  1  0.41060581  0.27424430  0.74406092  1
  O  O315  1  0.42624663  0.76482195  0.09470038  1
  O  O316  1  0.42006425  0.77778722  0.41965758  1
  O  O317  1  0.41119583  0.77119852  0.74880667  1
  O  O318  1  0.74130004  0.26219609  0.06975740  1
  O  O319  1  0.74965910  0.25500443  0.41671911  1
  O  O320  1  0.73437653  0.26058159  0.73812173  1
  O  O321  1  0.74476429  0.76380357  0.07030375  1
  O  O322  1  0.74839255  0.76107038  0.41207633  1
  O  O323  1  0.75636685  0.76329660  0.75322905  1
  O  O324  1  0.24988749  0.01340691  0.25150023  1
  O  O325  1  0.25813837  0.01640607  0.59363090  1
  O  O326  1  0.25748446  0.01839176  0.92261312  1
  O  O327  1  0.24577741  0.51992560  0.24216762  1
  O  O328  1  0.25556791  0.50815317  0.58717714  1
  O  O329  1  0.24408660  0.52877720  0.91356374  1
  O  O330  1  0.59523624  0.01054074  0.26468278  1
  O  O331  1  0.58743186  0.02223054  0.59081812  1
  O  O332  1  0.59532158  0.01473783  0.92978610  1
  O  O333  1  0.57151606  0.51183905  0.24483146  1
  O  O334  1  0.57852512  0.50446649  0.58395468  1
  O  O335  1  0.58005277  0.52214842  0.91962888  1
  O  O336  1  0.92078384  0.02087866  0.24684230  1
  O  O337  1  0.92264219  0.02533029  0.58434226  1
  O  O338  1  0.91651930  0.02398671  0.91319651  1
  O  O339  1  0.92303125  0.51827459  0.25195004  1
  O  O340  1  0.90733240  0.50883215  0.57250713  1
  O  O341  1  0.91410681  0.52452290  0.91395045  1
  O  O342  1  0.08834722  0.22310042  0.24302108  1
  O  O343  1  0.08651653  0.22897046  0.57321746  1
  O  O344  1  0.08068683  0.24199856  0.92478674  1
  O  O345  1  0.08055457  0.73404336  0.24996677  1
  O  O346  1  0.07886080  0.74894185  0.58658738  1
  O  O347  1  0.08013918  0.73063691  0.91736008  1
  O  O348  1  0.42183029  0.24758432  0.24326685  1
  O  O349  1  0.42526930  0.22681002  0.58393935  1
  O  O350  1  0.42356142  0.23852443  0.91071645  1
  O  O351  1  0.41056131  0.72858853  0.26058684  1
  O  O352  1  0.41940345  0.72873747  0.58225178  1
  O  O353  1  0.41897634  0.73175779  0.91989334  1
  O  O354  1  0.75943127  0.22875984  0.24557207  1
  O  O355  1  0.75487355  0.21911811  0.57676917  1
  O  O356  1  0.75412981  0.22591172  0.90577798  1
  O  O357  1  0.75005716  0.73705747  0.24469069  1
  O  O358  1  0.75140135  0.73746241  0.57573533  1
  O  O359  1  0.75056940  0.72681819  0.91347235  1
