# generated using pymatgen
data_Ba17Sr5La8Pr42Mn72O216
_symmetry_space_group_name_H-M   'P 1'
_cell_length_a   16.67020222
_cell_length_b   15.71321829
_cell_length_c   16.81414039
_cell_angle_alpha   89.99332351
_cell_angle_beta   90.01419437
_cell_angle_gamma   89.98692944
_symmetry_Int_Tables_number   1
_chemical_formula_structural   Ba17Sr5La8Pr42Mn72O216
_chemical_formula_sum   'Ba17 Sr5 La8 Pr42 Mn72 O216'
_cell_volume   4404.33813290
_cell_formula_units_Z   1
loop_
 _symmetry_equiv_pos_site_id
 _symmetry_equiv_pos_as_xyz
  1  'x, y, z'
loop_
 _atom_site_type_symbol
 _atom_site_label
 _atom_site_symmetry_multiplicity
 _atom_site_fract_x
 _atom_site_fract_y
 _atom_site_fract_z
 _atom_site_occupancy
  Ba  Ba0  1  0.33120265  0.12446912  0.99664713  1
  Ba  Ba1  1  0.83213696  0.62428640  0.50379094  1
  Ba  Ba2  1  0.66715404  0.87556448  0.67114052  1
  Ba  Ba3  1  -0.00025029  0.62212537  0.66435534  1
  Ba  Ba4  1  0.16748637  0.37643438  0.82969953  1
  Ba  Ba5  1  0.66805475  0.37579751  0.33676241  1
  Ba  Ba6  1  0.83437016  0.87543446  0.83397386  1
  Ba  Ba7  1  0.83645410  0.37563282  0.16523051  1
  Ba  Ba8  1  0.17247178  0.87543205  0.49683226  1
  Ba  Ba9  1  0.33155126  0.62631940  0.99815761  1
  Ba  Ba10  1  0.49847528  0.87537644  0.82833803  1
  Ba  Ba11  1  0.49986731  0.37527753  0.16735966  1
  Ba  Ba12  1  0.16456343  0.62430665  0.83236295  1
  Ba  Ba13  1  0.49805566  0.12477938  0.83305154  1
  Ba  Ba14  1  0.66756958  0.37522203  0.00663535  1
  Ba  Ba15  1  0.83017025  0.12551789  0.50449244  1
  Ba  Ba16  1  -0.00103514  0.12793925  0.66509572  1
  Sr  Sr17  1  0.33453051  0.87484060  0.66468246  1
  Sr  Sr18  1  0.34111512  0.87469945  0.33751122  1
  Sr  Sr19  1  0.00186954  0.37438707  0.66429015  1
  Sr  Sr20  1  0.66274373  0.12166600  0.66861443  1
  Sr  Sr21  1  0.33602718  0.37603868  0.66698437  1
  La  La22  1  0.49761314  0.62710676  0.83364877  1
  La  La23  1  0.16292340  0.12743916  0.83101374  1
  La  La24  1  0.50196963  0.87584272  0.50161512  1
  La  La25  1  -0.00221690  0.62682987  0.33021071  1
  La  La26  1  0.49819155  0.12710932  0.50415573  1
  La  La27  1  0.66956587  0.87826685  0.00131939  1
  La  La28  1  0.84407492  0.87439892  0.16340644  1
  La  La29  1  0.83829955  0.37451056  0.83583517  1
  Pr  Pr30  1  0.65646013  0.12533526  0.33593154  1
  Pr  Pr31  1  -0.00520007  0.62320702  0.99203989  1
  Pr  Pr32  1  0.84454994  0.37427356  0.49854693  1
  Pr  Pr33  1  0.82122783  0.12417306  0.17286498  1
  Pr  Pr34  1  0.49890833  0.37464346  0.83379584  1
  Pr  Pr35  1  0.33267336  0.12474735  0.66511317  1
  Pr  Pr36  1  0.50466291  0.87283604  0.16449861  1
  Pr  Pr37  1  0.49836920  0.62234006  0.50194272  1
  Pr  Pr38  1  -0.00863776  0.12341570  0.33124848  1
  Pr  Pr39  1  0.82368795  0.62590225  0.17308669  1
  Pr  Pr40  1  0.67372841  0.87431842  0.34357562  1
  Pr  Pr41  1  0.32712949  0.12153126  0.32634019  1
  Pr  Pr42  1  0.82834073  0.62593132  0.83458381  1
  Pr  Pr43  1  0.00764313  0.37516783  0.00129402  1
  Pr  Pr44  1  0.32975813  0.62936941  0.32832531  1
  Pr  Pr45  1  0.17705204  0.87640835  0.16531449  1
  Pr  Pr46  1  0.65879331  0.62525830  0.33437767  1
  Pr  Pr47  1  0.84352958  0.87592965  0.50382685  1
  Pr  Pr48  1  0.49590921  0.61983383  0.16961593  1
  Pr  Pr49  1  0.00274287  0.37279659  0.33413511  1
  Pr  Pr50  1  0.00672389  0.87669953  0.33596053  1
  Pr  Pr51  1  0.16856460  0.62679726  0.50389933  1
  Pr  Pr52  1  0.00001195  0.87528679  0.66744494  1
  Pr  Pr53  1  -0.00732142  0.12678231  0.99267560  1
  Pr  Pr54  1  0.33537402  0.37638695  -0.00120809  1
  Pr  Pr55  1  0.66351923  0.62983048  0.66870455  1
  Pr  Pr56  1  0.33841793  0.87334227  -0.00480681  1
  Pr  Pr57  1  0.49444193  0.12862426  0.16763750  1
  Pr  Pr58  1  0.16267682  0.62482681  0.16524606  1
  Pr  Pr59  1  0.65924571  0.12924946  1.00011680  1
  Pr  Pr60  1  0.67056070  0.37409580  0.67174443  1
  Pr  Pr61  1  0.17076078  0.87481840  0.82560843  1
  Pr  Pr62  1  0.17033796  0.37433789  0.16048803  1
  Pr  Pr63  1  0.16692085  0.12349043  0.50064974  1
  Pr  Pr64  1  0.15730281  0.12555648  0.16630639  1
  Pr  Pr65  1  0.50383400  0.37278304  0.49689136  1
  Pr  Pr66  1  0.82337108  0.12520864  0.83304649  1
  Pr  Pr67  1  0.33571588  0.37537120  0.33724390  1
  Pr  Pr68  1  0.16650510  0.37532786  0.49875587  1
  Pr  Pr69  1  0.33107567  0.62551418  0.66619754  1
  Pr  Pr70  1  0.66146687  0.62146326  1.00350341  1
  Pr  Pr71  1  0.01128331  0.87566993  -0.00231992  1
  Mn  Mn72  1  0.00132123  0.00003084  0.16413079  1
  Mn  Mn73  1  0.00248563  0.00030628  0.49863713  1
  Mn  Mn74  1  -0.00102121  0.00118341  0.83311213  1
  Mn  Mn75  1  0.00157367  0.50261248  0.16416352  1
  Mn  Mn76  1  0.00292842  0.49867408  0.49659015  1
  Mn  Mn77  1  -0.00243364  0.49911382  0.83168815  1
  Mn  Mn78  1  0.33367852  -0.00212873  0.16546363  1
  Mn  Mn79  1  0.33616357  0.00087467  0.49614915  1
  Mn  Mn80  1  0.33033952  0.00020713  0.82985605  1
  Mn  Mn81  1  0.33144275  0.50085705  0.16758334  1
  Mn  Mn82  1  0.33366139  0.49879212  0.49954279  1
  Mn  Mn83  1  0.33478320  0.49928269  0.83082126  1
  Mn  Mn84  1  0.66515400  -0.00214420  0.17210824  1
  Mn  Mn85  1  0.66680080  -0.00121795  0.50129864  1
  Mn  Mn86  1  0.66604649  0.00191446  0.83622478  1
  Mn  Mn87  1  0.66632963  0.50193011  0.16950472  1
  Mn  Mn88  1  0.66608140  0.50029167  0.50602563  1
  Mn  Mn89  1  0.66632002  0.49896292  0.83575098  1
  Mn  Mn90  1  -0.00002205  0.24798222  0.16543496  1
  Mn  Mn91  1  0.00322020  0.25042628  0.49780068  1
  Mn  Mn92  1  -0.00185865  0.25023374  0.83232258  1
  Mn  Mn93  1  0.00277956  0.75065075  0.16307265  1
  Mn  Mn94  1  0.00267533  0.75086286  0.49751488  1
  Mn  Mn95  1  -0.00164085  0.75007497  0.83299161  1
  Mn  Mn96  1  0.33130211  0.24919557  0.16599880  1
  Mn  Mn97  1  0.33263301  0.25068587  0.49837847  1
  Mn  Mn98  1  0.33283278  0.25163024  0.83037276  1
  Mn  Mn99  1  0.33370213  0.75219235  0.16655798  1
  Mn  Mn100  1  0.33660738  0.74897041  0.49723890  1
  Mn  Mn101  1  0.33180354  0.75031014  0.83012730  1
  Mn  Mn102  1  0.66527717  0.24710644  0.16870348  1
  Mn  Mn103  1  0.66646173  0.25077586  0.50503736  1
  Mn  Mn104  1  0.66609389  0.25225654  0.83624428  1
  Mn  Mn105  1  0.66659093  0.75197862  0.17208489  1
  Mn  Mn106  1  0.66708113  0.74973709  0.50136561  1
  Mn  Mn107  1  0.66631135  0.74661418  0.83710847  1
  Mn  Mn108  1  0.16589988  0.24889229  -0.00064463  1
  Mn  Mn109  1  0.16644723  0.25037732  0.33055958  1
  Mn  Mn110  1  0.16959903  0.25028256  0.66437061  1
  Mn  Mn111  1  0.16616029  0.75254939  -0.00105517  1
  Mn  Mn112  1  0.16734143  0.74856703  0.33087726  1
  Mn  Mn113  1  0.16696018  0.75068150  0.66439650  1
  Mn  Mn114  1  0.49766736  0.25060102  0.00095291  1
  Mn  Mn115  1  0.49745351  0.24885025  0.33575419  1
  Mn  Mn116  1  0.49993015  0.25235605  0.66561920  1
  Mn  Mn117  1  0.50144458  0.75091920  0.00094841  1
  Mn  Mn118  1  0.50105200  0.75041546  0.33293151  1
  Mn  Mn119  1  0.49725597  0.74696831  0.66558197  1
  Mn  Mn120  1  0.83464604  0.24770016  0.00227134  1
  Mn  Mn121  1  0.83256890  0.24920529  0.33509497  1
  Mn  Mn122  1  0.83184162  0.25254945  0.66775500  1
  Mn  Mn123  1  0.83433130  0.75031868  0.00374141  1
  Mn  Mn124  1  0.83439054  0.75065465  0.33407410  1
  Mn  Mn125  1  0.83332620  0.74931465  0.66829751  1
  Mn  Mn126  1  0.16604528  -0.00041615  -0.00222761  1
  Mn  Mn127  1  0.16662852  0.00199437  0.33025877  1
  Mn  Mn128  1  0.16751812  0.00025106  0.66497957  1
  Mn  Mn129  1  0.16615227  0.49955458  0.00040042  1
  Mn  Mn130  1  0.16676232  0.49973443  0.33147329  1
  Mn  Mn131  1  0.16887384  0.49919155  0.66362506  1
  Mn  Mn132  1  0.50027580  -0.00354592  0.00205068  1
  Mn  Mn133  1  0.50048120  -0.00014776  0.33272773  1
  Mn  Mn134  1  0.49781802  0.00224257  0.66507164  1
  Mn  Mn135  1  0.49850843  0.50218442  0.00006690  1
  Mn  Mn136  1  0.49814152  0.50008788  0.33695392  1
  Mn  Mn137  1  0.50066467  0.49865195  0.66681069  1
  Mn  Mn138  1  0.83413463  -0.00004535  0.00352681  1
  Mn  Mn139  1  0.83245118  -0.00107870  0.33360808  1
  Mn  Mn140  1  0.83290708  0.00072269  0.66782576  1
  Mn  Mn141  1  0.83493425  0.50289513  0.00201781  1
  Mn  Mn142  1  0.83426269  0.50087242  0.33562675  1
  Mn  Mn143  1  0.83215978  0.49722693  0.66840420  1
  O  O144  1  0.16120493  0.12299571  0.02349021  1
  O  O145  1  0.17362516  0.12834282  0.35626623  1
  O  O146  1  0.17461443  0.12404101  0.68607570  1
  O  O147  1  0.15977065  0.62672854  0.02153403  1
  O  O148  1  0.16899031  0.61869922  0.35977965  1
  O  O149  1  0.17280493  0.62518352  0.67251039  1
  O  O150  1  0.50210650  0.11775081  0.02289287  1
  O  O151  1  0.49686016  0.12350288  0.35749764  1
  O  O152  1  0.49411840  0.12890035  0.67537609  1
  O  O153  1  0.50139639  0.63023225  0.02507408  1
  O  O154  1  0.49627831  0.62389112  0.35712437  1
  O  O155  1  0.49839674  0.61891451  0.69085306  1
  O  O156  1  0.84434111  0.11968308  0.03053723  1
  O  O157  1  0.84005855  0.12270649  0.34765051  1
  O  O158  1  0.83292188  0.12900960  0.68656029  1
  O  O159  1  0.84644088  0.63018247  0.03000994  1
  O  O160  1  0.84223553  0.62681711  0.34776974  1
  O  O161  1  0.83024709  0.62096179  0.68811976  1
  O  O162  1  0.16573542  0.37438840  0.30174562  1
  O  O163  1  0.17103738  0.37472155  0.64270232  1
  O  O164  1  0.16190027  0.37268113  0.98880048  1
  O  O165  1  0.15915187  0.87846495  0.30826155  1
  O  O166  1  0.15843547  0.87668424  0.65363616  1
  O  O167  1  0.16027185  0.87781241  0.97176322  1
  O  O168  1  0.49450013  0.37618750  0.32272335  1
  O  O169  1  0.50543301  0.37771718  0.63832313  1
  O  O170  1  0.49670089  0.38007937  0.98224903  1
  O  O171  1  0.50735268  0.87583145  0.30834682  1
  O  O172  1  0.49473287  0.87403010  0.64477698  1
  O  O173  1  0.50368262  0.87234190  0.98727852  1
  O  O174  1  0.84029446  0.37501560  0.32192084  1
  O  O175  1  0.82158381  0.37558336  0.64413056  1
  O  O176  1  0.83661664  0.37579778  0.98181916  1
  O  O177  1  0.82927648  0.87515604  0.30656897  1
  O  O178  1  0.83514803  0.87490826  0.65087821  1
  O  O179  1  0.82201887  0.87453457  0.99023873  1
  O  O180  1  0.00621083  0.37131494  0.19151357  1
  O  O181  1  0.00323166  0.37396549  0.51139913  1
  O  O182  1  -0.00782048  0.37280194  0.85807427  1
  O  O183  1  -0.00166007  0.87582453  0.19432618  1
  O  O184  1  0.00094580  0.87598150  0.51766516  1
  O  O185  1  0.00445509  0.87620292  0.85447250  1
  O  O186  1  0.32307692  0.37529165  0.19339983  1
  O  O187  1  0.32903429  0.37463900  0.51921181  1
  O  O188  1  0.33754775  0.37653488  0.85288695  1
  O  O189  1  0.32713406  0.87494930  0.19007820  1
  O  O190  1  0.34200676  0.87258899  0.51500324  1
  O  O191  1  0.32422506  0.87613207  0.84910176  1
  O  O192  1  0.66653703  0.37375889  0.17795268  1
  O  O193  1  0.65269638  0.37873741  0.52687625  1
  O  O194  1  0.66199933  0.37715378  0.85212311  1
  O  O195  1  0.65739262  0.87474287  0.20081299  1
  O  O196  1  0.65318696  0.87288629  0.51214402  1
  O  O197  1  0.66635816  0.87295022  0.85708176  1
  O  O198  1  0.00890730  0.12160614  0.13645907  1
  O  O199  1  0.00665187  0.12668309  0.47609095  1
  O  O200  1  0.00515317  0.12620592  0.82314090  1
  O  O201  1  0.01218132  0.63158269  0.13463323  1
  O  O202  1  0.00731961  0.62336195  0.47609006  1
  O  O203  1  -0.00672742  0.62531708  0.82300149  1
  O  O204  1  0.34073834  0.12192087  0.15279332  1
  O  O205  1  0.33603605  0.12912868  0.46920841  1
  O  O206  1  0.32671922  0.12511844  0.81242414  1
  O  O207  1  0.33978899  0.62791339  0.15393482  1
  O  O208  1  0.33596977  0.62157679  0.47131132  1
  O  O209  1  0.33982928  0.62296638  0.81280541  1
  O  O210  1  0.67018798  0.11804302  0.14571668  1
  O  O211  1  0.66302403  0.12274356  0.47923180  1
  O  O212  1  0.67175047  0.13026319  0.82145804  1
  O  O213  1  0.67010387  0.63115691  0.14886871  1
  O  O214  1  0.66383455  0.62585673  0.47726516  1
  O  O215  1  0.66846773  0.61867994  0.81244321  1
  O  O216  1  0.07653515  0.02543781  0.25194583  1
  O  O217  1  0.08886732  0.01743303  0.57888104  1
  O  O218  1  0.07288082  0.01649693  0.92744289  1
  O  O219  1  0.08292498  0.52563240  0.25106641  1
  O  O220  1  0.09330221  0.50948189  0.56932328  1
  O  O221  1  0.07389423  0.50980520  0.92621746  1
  O  O222  1  0.41258714  0.01714434  0.25733401  1
  O  O223  1  0.41336345  0.02233121  0.58098844  1
  O  O224  1  0.40896744  -0.00010743  0.92011736  1
  O  O225  1  0.41393608  0.51841624  0.25380545  1
  O  O226  1  0.41665507  0.52136234  0.58590632  1
  O  O227  1  0.42277160  0.51290228  0.91071945  1
  O  O228  1  0.73937570  0.02110038  0.26122262  1
  O  O229  1  0.74490678  0.00713815  0.58800479  1
  O  O230  1  0.74749951  0.02276829  0.93153944  1
  O  O231  1  0.74638885  0.52202075  0.25846781  1
  O  O232  1  0.73687685  0.51420834  0.59935978  1
  O  O233  1  0.74815527  0.52572254  0.92427390  1
  O  O234  1  0.24299537  0.22589597  0.24354943  1
  O  O235  1  0.24984786  0.22462688  0.57487721  1
  O  O236  1  0.23838411  0.23531892  0.90994736  1
  O  O237  1  0.24370066  0.72911967  0.24280041  1
  O  O238  1  0.25437651  0.73122914  0.57818329  1
  O  O239  1  0.24577088  0.74676208  0.91442214  1
  O  O240  1  0.57833285  0.22539422  0.25103127  1
  O  O241  1  0.57579467  0.23364317  0.57794412  1
  O  O242  1  0.58420004  0.23751620  0.92057423  1
  O  O243  1  0.57546024  0.72313825  0.24465268  1
  O  O244  1  0.57767034  0.72781406  0.57825419  1
  O  O245  1  0.58391963  0.72495887  0.91826677  1
  O  O246  1  0.91423447  0.22478478  0.23906639  1
  O  O247  1  0.91391417  0.25042711  0.57794126  1
  O  O248  1  0.90797714  0.22833424  0.91099157  1
  O  O249  1  0.91380720  0.73169562  0.23725377  1
  O  O250  1  0.91602175  0.74885301  0.57831501  1
  O  O251  1  0.90962730  0.73193179  0.91201707  1
  O  O252  1  0.08859632  0.47894667  0.08981739  1
  O  O253  1  0.08624659  0.47380627  0.40962882  1
  O  O254  1  0.08353876  0.48946575  0.74280543  1
  O  O255  1  0.09219686  0.97555045  0.09158762  1
  O  O256  1  0.08323356  0.98964832  0.40974451  1
  O  O257  1  0.08692069  0.98602138  0.75576535  1
  O  O258  1  0.41033231  0.48516697  0.07917163  1
  O  O259  1  0.41604293  0.47796527  0.42005377  1
  O  O260  1  0.42499694  0.47821148  0.75070593  1
  O  O261  1  0.42184223  0.97506405  0.08920193  1
  O  O262  1  0.42915565  0.98105643  0.42200291  1
  O  O263  1  0.40969541  0.99395078  0.74267671  1
  O  O264  1  0.75579352  0.50238472  0.08804626  1
  O  O265  1  0.75408070  0.48244974  0.43438430  1
  O  O266  1  0.75372848  0.47836739  0.75965703  1
  O  O267  1  0.75574759  0.97963239  0.09996719  1
  O  O268  1  0.75493642  0.97546875  0.42538801  1
  O  O269  1  0.75520222  0.99903858  0.75818004  1
  O  O270  1  0.25271162  0.27040465  0.07873212  1
  O  O271  1  0.25214452  0.27356561  0.41018561  1
  O  O272  1  0.25810261  0.25993463  0.74014247  1
  O  O273  1  0.25221856  0.77308733  0.07827629  1
  O  O274  1  0.25987160  0.75721080  0.40779681  1
  O  O275  1  0.24872770  0.76362213  0.74821136  1
  O  O276  1  0.58201932  0.24742340  0.08736761  1
  O  O277  1  0.58138940  0.25927396  0.41946914  1
  O  O278  1  0.58680066  0.27135531  0.74834396  1
  O  O279  1  0.59261120  0.77177128  0.08493443  1
  O  O280  1  0.59324392  0.76124681  0.40498980  1
  O  O281  1  0.58078134  0.74927730  0.74803028  1
  O  O282  1  0.93073340  0.26426354  0.07112070  1
  O  O283  1  0.92617017  0.26430313  0.40839069  1
  O  O284  1  0.91562931  0.26992624  0.75005080  1
  O  O285  1  0.92745753  0.77596367  0.07539805  1
  O  O286  1  0.92185396  0.77353717  0.40995534  1
  O  O287  1  0.92429829  0.76575906  0.74347345  1
  O  O288  1  0.24820663  0.48256558  0.08511264  1
  O  O289  1  0.24943291  0.47485223  0.41175118  1
  O  O290  1  0.25813406  0.49371393  0.74112756  1
  O  O291  1  0.25461648  0.97512283  0.07199562  1
  O  O292  1  0.25941556  0.99197475  0.40513945  1
  O  O293  1  0.24869499  0.98234430  0.74533046  1
  O  O294  1  0.58078115  0.50253536  0.08676063  1
  O  O295  1  0.57789802  0.48992402  0.42481706  1
  O  O296  1  0.58485054  0.47942196  0.74722904  1
  O  O297  1  0.58871819  0.97542794  0.08731400  1
  O  O298  1  0.59356917  0.98709869  0.40382311  1
  O  O299  1  0.58102276  0.99713199  0.74557629  1
  O  O300  1  0.92970695  0.48582636  0.07032258  1
  O  O301  1  0.92422587  0.48179960  0.41071703  1
  O  O302  1  0.91412688  0.47841947  0.74946428  1
  O  O303  1  0.92693312  0.97524821  0.07548636  1
  O  O304  1  0.92180249  0.97879929  0.40906983  1
  O  O305  1  0.92570383  0.98523982  0.74324675  1
  O  O306  1  0.09126625  0.26657494  0.09306381  1
  O  O307  1  0.08935135  0.27325240  0.41321178  1
  O  O308  1  0.08510109  0.25748296  0.75043761  1
  O  O309  1  0.09121125  0.77919480  0.08968635  1
  O  O310  1  0.08145305  0.76288240  0.40812721  1
  O  O311  1  0.08352828  0.76795352  0.75291063  1
  O  O312  1  0.41227017  0.26534248  0.08307076  1
  O  O313  1  0.41686569  0.27242417  0.42042505  1
  O  O314  1  0.42452684  0.27138845  0.75100878  1
  O  O315  1  0.41935249  0.77338373  0.08699542  1
  O  O316  1  0.42909259  0.76616979  0.42195086  1
  O  O317  1  0.41122501  0.75571496  0.74199843  1
  O  O318  1  0.75534019  0.24912086  0.08980252  1
  O  O319  1  0.75564597  0.26710678  0.43189640  1
  O  O320  1  0.75488570  0.27021896  0.76141806  1
  O  O321  1  0.75883919  0.76670080  0.10077175  1
  O  O322  1  0.75559894  0.77333043  0.42731033  1
  O  O323  1  0.75237670  0.75028259  0.75982249  1
  O  O324  1  0.24004206  0.01985506  0.23885170  1
  O  O325  1  0.25161977  0.02159642  0.57749574  1
  O  O326  1  0.23497022  0.01391027  0.90422521  1
  O  O327  1  0.24731199  0.52609431  0.24969449  1
  O  O328  1  0.25208822  0.52180553  0.57694796  1
  O  O329  1  0.24975507  0.50409190  0.92074848  1
  O  O330  1  0.57474873  0.02823036  0.24475121  1
  O  O331  1  0.57408143  0.01278532  0.57189619  1
  O  O332  1  0.58781794  0.01261093  0.92693799  1
  O  O333  1  0.58037289  0.52291228  0.25441706  1
  O  O334  1  0.58045725  0.52861581  0.58491836  1
  O  O335  1  0.58195377  0.52308017  0.91750593  1
  O  O336  1  0.91208129  0.01914961  0.23814755  1
  O  O337  1  0.91561426  0.00131378  0.57954610  1
  O  O338  1  0.91065717  0.02088247  0.91035122  1
  O  O339  1  0.91819569  0.52519405  0.23863705  1
  O  O340  1  0.91385686  0.49967372  0.57894198  1
  O  O341  1  0.90694404  0.51953351  0.91239185  1
  O  O342  1  0.07637864  0.22359325  0.25506091  1
  O  O343  1  0.09155724  0.23783438  0.57352482  1
  O  O344  1  0.07394247  0.23579920  0.92628358  1
  O  O345  1  0.08028605  0.72591495  0.24834953  1
  O  O346  1  0.08798031  0.73602116  0.57569950  1
  O  O347  1  0.07166149  0.73842906  0.92779750  1
  O  O348  1  0.41087189  0.23212048  0.25468566  1
  O  O349  1  0.41126416  0.23328802  0.58281211  1
  O  O350  1  0.41335376  0.24844776  0.91775730  1
  O  O351  1  0.41483395  0.73319209  0.25543113  1
  O  O352  1  0.41630943  0.72259410  0.58125561  1
  O  O353  1  0.41593904  0.74175915  0.91096545  1
  O  O354  1  0.74265557  0.22743009  0.25763318  1
  O  O355  1  0.73743169  0.24143399  0.59696860  1
  O  O356  1  0.74887725  0.22827828  0.92518376  1
  O  O357  1  0.74090822  0.72934828  0.26243726  1
  O  O358  1  0.74137090  0.73532596  0.59231533  1
  O  O359  1  0.74661811  0.72522307  0.93140558  1
