# generated using pymatgen
data_Ba17Sr5La8Pr42Mn72O216
_symmetry_space_group_name_H-M   'P 1'
_cell_length_a   16.67413310
_cell_length_b   15.69941815
_cell_length_c   16.81560577
_cell_angle_alpha   89.99041920
_cell_angle_beta   90.01210153
_cell_angle_gamma   90.00372463
_symmetry_Int_Tables_number   1
_chemical_formula_structural   Ba17Sr5La8Pr42Mn72O216
_chemical_formula_sum   'Ba17 Sr5 La8 Pr42 Mn72 O216'
_cell_volume   4401.89137175
_cell_formula_units_Z   1
loop_
 _symmetry_equiv_pos_site_id
 _symmetry_equiv_pos_as_xyz
  1  'x, y, z'
loop_
 _atom_site_type_symbol
 _atom_site_label
 _atom_site_symmetry_multiplicity
 _atom_site_fract_x
 _atom_site_fract_y
 _atom_site_fract_z
 _atom_site_occupancy
  Ba  Ba0  1  0.33243700  0.12407770  0.99699901  1
  Ba  Ba1  1  0.83283516  0.87452647  0.83130256  1
  Ba  Ba2  1  0.16848398  0.87542407  0.50030730  1
  Ba  Ba3  1  0.83239542  0.37456712  0.16440752  1
  Ba  Ba4  1  0.33304225  0.62437204  0.99806902  1
  Ba  Ba5  1  0.66757732  0.37754409  0.66899607  1
  Ba  Ba6  1  0.33192358  0.62411130  0.33150208  1
  Ba  Ba7  1  0.50024410  0.12628284  0.83654749  1
  Ba  Ba8  1  0.33432588  0.87434711  0.00062689  1
  Ba  Ba9  1  0.83294943  0.12473168  0.83055873  1
  Ba  Ba10  1  -0.00031162  0.62616281  0.33435849  1
  Ba  Ba11  1  -0.00249084  0.87471423  -0.00101189  1
  Ba  Ba12  1  0.33627163  0.12605181  0.66799926  1
  Ba  Ba13  1  0.66710623  0.62818291  0.33172983  1
  Ba  Ba14  1  -0.00261601  0.37534666  0.00012990  1
  Ba  Ba15  1  0.33390085  0.37455377  0.33369636  1
  Ba  Ba16  1  0.16584421  0.12625143  0.83287772  1
  Sr  Sr17  1  -0.00171536  0.12438163  0.66540047  1
  Sr  Sr18  1  0.83339950  0.37364314  0.83181450  1
  Sr  Sr19  1  0.66520194  0.87479923  0.33565206  1
  Sr  Sr20  1  -0.00562640  0.62593073  0.66158144  1
  Sr  Sr21  1  0.49993884  0.87247668  0.16777682  1
  La  La22  1  0.66600007  0.37194575  0.00031853  1
  La  La23  1  0.49891180  0.37825236  0.16856083  1
  La  La24  1  0.49811930  0.11979838  0.16707703  1
  La  La25  1  0.16821796  0.37376737  0.49826413  1
  La  La26  1  0.66937331  0.37536560  0.33885812  1
  La  La27  1  0.33335680  0.62668997  0.66206135  1
  La  La28  1  0.00088128  0.12235381  0.33552125  1
  La  La29  1  0.16178931  0.62734735  0.16795667  1
  Pr  Pr30  1  0.33132499  0.12272064  0.33265766  1
  Pr  Pr31  1  0.82921145  0.62417502  0.50006589  1
  Pr  Pr32  1  0.49454468  0.87432376  0.83433716  1
  Pr  Pr33  1  0.66984398  0.62594291  0.66391943  1
  Pr  Pr34  1  0.83553933  0.12436972  0.16416943  1
  Pr  Pr35  1  0.17020482  0.87119583  0.16418166  1
  Pr  Pr36  1  0.33677402  0.87404719  0.33243978  1
  Pr  Pr37  1  0.16474201  0.62363046  0.50239837  1
  Pr  Pr38  1  0.66883625  0.12549771  0.99686224  1
  Pr  Pr39  1  0.66939974  0.12230071  0.33250194  1
  Pr  Pr40  1  0.00319634  0.37611870  0.33354870  1
  Pr  Pr41  1  0.16272668  0.12275229  0.16402547  1
  Pr  Pr42  1  0.82964821  0.87028535  0.16112340  1
  Pr  Pr43  1  0.33686609  0.37352910  0.66562380  1
  Pr  Pr44  1  0.66455216  0.87453556  0.67121643  1
  Pr  Pr45  1  0.16927228  0.12708557  0.50992407  1
  Pr  Pr46  1  0.83751256  0.62389018  0.16962766  1
  Pr  Pr47  1  0.15550247  0.62562428  0.83496569  1
  Pr  Pr48  1  0.00880369  0.87506632  0.67415849  1
  Pr  Pr49  1  -0.00262075  0.12772094  0.99318980  1
  Pr  Pr50  1  0.33099532  0.36950417  0.00311487  1
  Pr  Pr51  1  0.66807774  0.62720796  1.00328779  1
  Pr  Pr52  1  0.49849847  0.87596421  0.49761519  1
  Pr  Pr53  1  0.50551047  0.12532228  0.50761813  1
  Pr  Pr54  1  0.84060368  0.37540010  0.49642967  1
  Pr  Pr55  1  0.50392069  0.62259882  0.83722713  1
  Pr  Pr56  1  0.50185377  0.62402699  0.50088555  1
  Pr  Pr57  1  0.83077155  0.62259439  0.83188010  1
  Pr  Pr58  1  0.66403053  0.88012565  0.00257902  1
  Pr  Pr59  1  0.83688623  0.87426251  0.49688038  1
  Pr  Pr60  1  0.33320036  0.87790091  0.67090020  1
  Pr  Pr61  1  0.00191390  0.37583781  0.67365098  1
  Pr  Pr62  1  0.67243178  0.12547104  0.66753978  1
  Pr  Pr63  1  0.49726337  0.63033109  0.17294791  1
  Pr  Pr64  1  0.00121098  0.87303546  0.33292480  1
  Pr  Pr65  1  -0.00709807  0.62372597  0.99989179  1
  Pr  Pr66  1  0.16999547  0.37634986  0.83241280  1
  Pr  Pr67  1  0.83377829  0.12532716  0.50557548  1
  Pr  Pr68  1  0.49523848  0.37601870  0.83405312  1
  Pr  Pr69  1  0.16867472  0.37863162  0.16444541  1
  Pr  Pr70  1  0.17239831  0.87498378  0.83102027  1
  Pr  Pr71  1  0.50191094  0.37262148  0.49583283  1
  Mn  Mn72  1  -0.00094752  0.00087050  0.16706286  1
  Mn  Mn73  1  0.00011016  -0.00179408  0.49932814  1
  Mn  Mn74  1  0.00093433  0.00029642  0.83308189  1
  Mn  Mn75  1  0.00052144  0.49932070  0.16704815  1
  Mn  Mn76  1  0.00058027  0.49994442  0.50188032  1
  Mn  Mn77  1  -0.00203347  0.50137118  0.83183817  1
  Mn  Mn78  1  0.33206631  0.00233123  0.16802124  1
  Mn  Mn79  1  0.33556218  -0.00093709  0.49910351  1
  Mn  Mn80  1  0.33364042  -0.00084628  0.83400558  1
  Mn  Mn81  1  0.33304520  0.49883116  0.16396729  1
  Mn  Mn82  1  0.33481359  0.50185806  0.50071624  1
  Mn  Mn83  1  0.33269844  0.50119525  0.83082402  1
  Mn  Mn84  1  0.66642277  0.00001247  0.16808517  1
  Mn  Mn85  1  0.66866146  -0.00196364  0.50076487  1
  Mn  Mn86  1  0.66461090  -0.00167424  0.83408254  1
  Mn  Mn87  1  0.66460791  0.49973419  0.16728963  1
  Mn  Mn88  1  0.66718630  0.49998795  0.50131383  1
  Mn  Mn89  1  0.66655361  0.50201866  0.83508611  1
  Mn  Mn90  1  0.00103977  0.24622884  0.16738659  1
  Mn  Mn91  1  0.00084720  0.25089898  0.50034728  1
  Mn  Mn92  1  -0.00047918  0.25123215  0.83260793  1
  Mn  Mn93  1  -0.00109229  0.75237736  0.16688981  1
  Mn  Mn94  1  -0.00039440  0.75059498  0.50068976  1
  Mn  Mn95  1  -0.00066236  0.74815439  0.83143462  1
  Mn  Mn96  1  0.33272577  0.24827430  0.16764370  1
  Mn  Mn97  1  0.33591032  0.25026346  0.49926016  1
  Mn  Mn98  1  0.33291277  0.25393225  0.83486782  1
  Mn  Mn99  1  0.33300746  0.74971531  0.16622701  1
  Mn  Mn100  1  0.33456388  0.75025656  0.49963647  1
  Mn  Mn101  1  0.33366746  0.74692382  0.82955119  1
  Mn  Mn102  1  0.66459110  0.24676753  0.16893154  1
  Mn  Mn103  1  0.66931642  0.24979708  0.50000419  1
  Mn  Mn104  1  0.66631727  0.25172846  0.83403031  1
  Mn  Mn105  1  0.66527034  0.75231175  0.16604191  1
  Mn  Mn106  1  0.66709707  0.75115187  0.50140966  1
  Mn  Mn107  1  0.66450277  0.74891214  0.83321498  1
  Mn  Mn108  1  0.16433986  0.25155088  0.00087015  1
  Mn  Mn109  1  0.16554647  0.24649862  0.33428206  1
  Mn  Mn110  1  0.16646003  0.25254526  0.66570077  1
  Mn  Mn111  1  0.16363832  0.74823930  -0.00114321  1
  Mn  Mn112  1  0.16690266  0.75189187  0.33332323  1
  Mn  Mn113  1  0.16801220  0.74699524  0.66678585  1
  Mn  Mn114  1  0.50149070  0.25261013  0.00293200  1
  Mn  Mn115  1  0.50223963  0.24550171  0.33456854  1
  Mn  Mn116  1  0.50280604  0.25155611  0.66727598  1
  Mn  Mn117  1  0.50227307  0.74827546  0.00179581  1
  Mn  Mn118  1  0.50029401  0.75319063  0.33477547  1
  Mn  Mn119  1  0.50109444  0.74930420  0.66700535  1
  Mn  Mn120  1  0.83109018  0.25011146  -0.00081392  1
  Mn  Mn121  1  0.83472281  0.24773589  0.33364406  1
  Mn  Mn122  1  0.83490182  0.25086478  0.66492698  1
  Mn  Mn123  1  0.82989009  0.74894578  -0.00120324  1
  Mn  Mn124  1  0.83316131  0.75298993  0.33128724  1
  Mn  Mn125  1  0.83338582  0.75064640  0.66321237  1
  Mn  Mn126  1  0.16375501  -0.00211724  0.00043628  1
  Mn  Mn127  1  0.16678207  0.00164131  0.33340898  1
  Mn  Mn128  1  0.16730197  0.00132477  0.66592556  1
  Mn  Mn129  1  0.16459238  0.50190991  -0.00121274  1
  Mn  Mn130  1  0.16584148  0.49895047  0.33324461  1
  Mn  Mn131  1  0.16762494  0.50006457  0.66660026  1
  Mn  Mn132  1  0.50112358  -0.00178714  0.00286106  1
  Mn  Mn133  1  0.50066292  0.00003500  0.33641852  1
  Mn  Mn134  1  0.50337088  -0.00072147  0.66654566  1
  Mn  Mn135  1  0.50210438  0.50013989  0.00149043  1
  Mn  Mn136  1  0.50182103  0.49951989  0.33324603  1
  Mn  Mn137  1  0.49961589  0.50131330  0.66819678  1
  Mn  Mn138  1  0.83170040  -0.00086868  0.00037797  1
  Mn  Mn139  1  0.83380330  0.00028213  0.33215565  1
  Mn  Mn140  1  0.83420898  -0.00131938  0.66269431  1
  Mn  Mn141  1  0.82939538  0.50205838  -0.00068206  1
  Mn  Mn142  1  0.83425726  0.49918785  0.33272987  1
  Mn  Mn143  1  0.83421856  0.50037902  0.66594461  1
  O  O144  1  0.15827962  0.12579750  0.01939159  1
  O  O145  1  0.16389393  0.12378170  0.36552429  1
  O  O146  1  0.16643384  0.12749457  0.67390740  1
  O  O147  1  0.15876760  0.62456146  0.02341244  1
  O  O148  1  0.16538019  0.62848881  0.35695204  1
  O  O149  1  0.17766102  0.62170838  0.69228121  1
  O  O150  1  0.50615972  0.12826499  0.02241404  1
  O  O151  1  0.49927122  0.12219230  0.36375502  1
  O  O152  1  0.50948366  0.12576738  0.67941439  1
  O  O153  1  0.50707789  0.62250372  0.02962553  1
  O  O154  1  0.49948250  0.63038124  0.35441393  1
  O  O155  1  0.49888921  0.62859820  0.69492523  1
  O  O156  1  0.82657384  0.12260597  0.01871928  1
  O  O157  1  0.83302172  0.12213409  0.36267885  1
  O  O158  1  0.83229254  0.12399634  0.67363203  1
  O  O159  1  0.82729337  0.62674245  0.02484284  1
  O  O160  1  0.83412112  0.62279611  0.35655175  1
  O  O161  1  0.83174742  0.62675599  0.68694766  1
  O  O162  1  0.15967113  0.36725725  0.30826262  1
  O  O163  1  0.15803546  0.37783004  0.64083263  1
  O  O164  1  0.16889418  0.38010054  0.97826744  1
  O  O165  1  0.16723235  0.88016876  0.30810951  1
  O  O166  1  0.16488669  0.87360292  0.65697255  1
  O  O167  1  0.16418203  0.86925919  0.97689202  1
  O  O168  1  0.51014126  0.36759488  0.31373547  1
  O  O169  1  0.49654343  0.37789625  0.63936784  1
  O  O170  1  0.50932397  0.37957267  0.97704474  1
  O  O171  1  0.49885046  0.87871459  0.31695773  1
  O  O172  1  0.50607591  0.86975256  0.63969969  1
  O  O173  1  0.50884557  0.86931735  0.97833690  1
  O  O174  1  0.83196538  0.37428592  0.32009675  1
  O  O175  1  0.83881553  0.37544569  0.64135636  1
  O  O176  1  0.82500404  0.37961261  0.98435698  1
  O  O177  1  0.83743403  0.88138926  0.30356961  1
  O  O178  1  0.82413078  0.87410216  0.64077375  1
  O  O179  1  0.82590978  0.87224713  0.98876955  1
  O  O180  1  0.00380816  0.36843988  0.18976664  1
  O  O181  1  -0.00272898  0.37705708  0.52845865  1
  O  O182  1  0.00293993  0.37870749  0.84272685  1
  O  O183  1  -0.01005271  0.87896946  0.18975040  1
  O  O184  1  -0.00657226  0.87362711  0.52848021  1
  O  O185  1  0.00706153  0.87113770  0.84046883  1
  O  O186  1  0.32789577  0.37223899  0.17862828  1
  O  O187  1  0.33774404  0.37811402  0.52048738  1
  O  O188  1  0.33236576  0.38144061  0.85804709  1
  O  O189  1  0.32350540  0.87979670  0.18866588  1
  O  O190  1  0.34128987  0.87287938  0.52710802  1
  O  O191  1  0.33243543  0.87004213  0.84148033  1
  O  O192  1  0.66175016  0.36775374  0.19646143  1
  O  O193  1  0.66396761  0.37446833  0.51273659  1
  O  O194  1  0.66515402  0.38180194  0.85627921  1
  O  O195  1  0.67546397  0.87733552  0.18732989  1
  O  O196  1  0.66739513  0.87357000  0.52815585  1
  O  O197  1  0.66087265  0.87059961  0.85742568  1
  O  O198  1  0.00720947  0.12224082  0.13839471  1
  O  O199  1  0.00002634  0.12463609  0.47810727  1
  O  O200  1  -0.00045669  0.12645411  0.81819191  1
  O  O201  1  0.00441019  0.62854040  0.14743430  1
  O  O202  1  0.00327132  0.62437335  0.48832749  1
  O  O203  1  -0.00192682  0.62489368  0.81067818  1
  O  O204  1  0.33775999  0.12646166  0.15314930  1
  O  O205  1  0.33399049  0.12413736  0.47911421  1
  O  O206  1  0.33403315  0.12916999  0.82556791  1
  O  O207  1  0.34018011  0.62106630  0.15575391  1
  O  O208  1  0.33543080  0.62598888  0.48729141  1
  O  O209  1  0.34124269  0.62302342  0.80604530  1
  O  O210  1  0.66315514  0.12324433  0.14063207  1
  O  O211  1  0.66776780  0.12438524  0.47603856  1
  O  O212  1  0.66339399  0.12109272  0.81210363  1
  O  O213  1  0.65826626  0.62935158  0.14670781  1
  O  O214  1  0.66590026  0.62591758  0.48711556  1
  O  O215  1  0.66101622  0.62648942  0.80655357  1
  O  O216  1  0.08316611  0.02239602  0.25106564  1
  O  O217  1  0.08332069  0.01571912  0.58111021  1
  O  O218  1  0.07704295  0.01445138  0.92452836  1
  O  O219  1  0.08384761  0.50954343  0.25125758  1
  O  O220  1  0.08621109  0.52009951  0.58407068  1
  O  O221  1  0.07529456  0.52359149  0.92088720  1
  O  O222  1  0.41302505  0.01920884  0.25640416  1
  O  O223  1  0.42964011  0.01272094  0.57611259  1
  O  O224  1  0.42128441  0.00012614  0.91461604  1
  O  O225  1  0.42143296  0.50616635  0.24350834  1
  O  O226  1  0.41799184  0.52380300  0.58724858  1
  O  O227  1  0.42759107  0.51467429  0.91113309  1
  O  O228  1  0.75133284  0.02669903  0.24925808  1
  O  O229  1  0.75130554  0.02173814  0.57911985  1
  O  O230  1  0.74485173  0.01087957  0.92052455  1
  O  O231  1  0.75215138  0.51517029  0.24473500  1
  O  O232  1  0.74875466  0.52074344  0.58619803  1
  O  O233  1  0.74844191  0.52786602  0.91571141  1
  O  O234  1  0.24622368  0.22380126  0.25330612  1
  O  O235  1  0.24822904  0.24370553  0.58092999  1
  O  O236  1  0.24755011  0.25067291  0.91604582  1
  O  O237  1  0.24107828  0.73718127  0.24283766  1
  O  O238  1  0.24796860  0.72874427  0.58046731  1
  O  O239  1  0.23957481  0.73297091  0.90347971  1
  O  O240  1  0.58447810  0.21807137  0.25396923  1
  O  O241  1  0.58943825  0.23010920  0.58311817  1
  O  O242  1  0.59055959  0.23866298  0.92931313  1
  O  O243  1  0.57813916  0.74034167  0.24502245  1
  O  O244  1  0.58465368  0.72647005  0.59100066  1
  O  O245  1  0.58450113  0.72335035  0.91872841  1
  O  O246  1  0.91775187  0.22350585  0.24895967  1
  O  O247  1  0.91347455  0.23448567  0.57473021  1
  O  O248  1  0.91642284  0.23885939  0.91901636  1
  O  O249  1  0.91288807  0.73512185  0.24492702  1
  O  O250  1  0.90719362  0.73314968  0.57212807  1
  O  O251  1  0.91237240  0.72719672  0.91480321  1
  O  O252  1  0.09063040  0.48561976  0.09083332  1
  O  O253  1  0.08295224  0.47605208  0.42012260  1
  O  O254  1  0.09079750  0.48453462  0.75315213  1
  O  O255  1  0.08698329  0.98034073  0.09281039  1
  O  O256  1  0.07678829  0.98248747  0.40976585  1
  O  O257  1  0.08826287  0.98283126  0.75095956  1
  O  O258  1  0.41616636  0.47572626  0.07829144  1
  O  O259  1  0.42697295  0.48687256  0.42476655  1
  O  O260  1  0.41554944  0.47506749  0.74606665  1
  O  O261  1  0.42107254  0.99135619  0.09136797  1
  O  O262  1  0.41638492  0.97662126  0.41602785  1
  O  O263  1  0.41748771  0.97882967  0.74472847  1
  O  O264  1  0.73968116  0.49013958  0.07667312  1
  O  O265  1  0.75638794  0.48231815  0.42093127  1
  O  O266  1  0.75527462  0.49412258  0.75504375  1
  O  O267  1  0.74782144  0.98222925  0.08425283  1
  O  O268  1  0.75107037  0.97882626  0.41781569  1
  O  O269  1  0.74151801  0.98663011  0.74091521  1
  O  O270  1  0.24798993  0.26808421  0.08148368  1
  O  O271  1  0.24502849  0.26239577  0.42011547  1
  O  O272  1  0.25062405  0.27684586  0.74788451  1
  O  O273  1  0.24608213  0.75969750  0.08406209  1
  O  O274  1  0.25526072  0.76929910  0.40710352  1
  O  O275  1  0.25640127  0.76663028  0.74153173  1
  O  O276  1  0.57877204  0.27128087  0.09209497  1
  O  O277  1  0.58707071  0.26569644  0.41708120  1
  O  O278  1  0.57664614  0.27049532  0.75790916  1
  O  O279  1  0.58803699  0.77072264  0.08070683  1
  O  O280  1  0.58050993  0.76826605  0.42456123  1
  O  O281  1  0.57792424  0.77252921  0.75214370  1
  O  O282  1  0.91525711  0.24906052  0.08417660  1
  O  O283  1  0.92192622  0.27195823  0.41529885  1
  O  O284  1  0.92103931  0.26723980  0.74216756  1
  O  O285  1  0.91018393  0.75772837  0.08710320  1
  O  O286  1  0.91778954  0.77517505  0.41227856  1
  O  O287  1  0.92339133  0.76608002  0.73668967  1
  O  O288  1  0.25269940  0.48160137  0.07676516  1
  O  O289  1  0.24399155  0.48662806  0.42051743  1
  O  O290  1  0.25161483  0.47189608  0.74174303  1
  O  O291  1  0.24380206  0.98986146  0.08974191  1
  O  O292  1  0.25778754  0.98576719  0.40607878  1
  O  O293  1  0.25208172  0.98214491  0.74689162  1
  O  O294  1  0.58081186  0.47532942  0.08634087  1
  O  O295  1  0.58638412  0.48172502  0.41667757  1
  O  O296  1  0.57440031  0.48750233  0.76014487  1
  O  O297  1  0.58443590  0.98121760  0.08699189  1
  O  O298  1  0.58094420  0.98276330  0.42588515  1
  O  O299  1  0.57953731  0.97331779  0.75350484  1
  O  O300  1  0.91682119  0.50090780  0.08072648  1
  O  O301  1  0.92092925  0.47679354  0.41490672  1
  O  O302  1  0.92156673  0.48464569  0.74150898  1
  O  O303  1  0.90723002  0.99053644  0.09286935  1
  O  O304  1  0.91764096  0.97595630  0.41313438  1
  O  O305  1  0.92233437  0.98383240  0.73752008  1
  O  O306  1  0.09096252  0.26495460  0.09423953  1
  O  O307  1  0.08178172  0.27330202  0.41686413  1
  O  O308  1  0.08697300  0.27233232  0.74947555  1
  O  O309  1  0.08579336  0.76659395  0.09081095  1
  O  O310  1  0.08078628  0.76838516  0.41434936  1
  O  O311  1  0.09314155  0.76107660  0.75591928  1
  O  O312  1  0.41848983  0.27217442  0.08226141  1
  O  O313  1  0.42488145  0.26455305  0.42009637  1
  O  O314  1  0.41406589  0.27421424  0.74874890  1
  O  O315  1  0.42262303  0.75809196  0.08697124  1
  O  O316  1  0.41869578  0.77332357  0.41843339  1
  O  O317  1  0.41790596  0.77362294  0.74152075  1
  O  O318  1  0.74084714  0.25991882  0.07973908  1
  O  O319  1  0.75243979  0.26778141  0.41902586  1
  O  O320  1  0.74987421  0.25816897  0.74757634  1
  O  O321  1  0.74411336  0.76674785  0.07899387  1
  O  O322  1  0.75447102  0.76937159  0.41908806  1
  O  O323  1  0.74258687  0.76172297  0.74239002  1
  O  O324  1  0.24679446  0.02725133  0.25029659  1
  O  O325  1  0.24914489  0.01319670  0.57833183  1
  O  O326  1  0.24415147  0.00117522  0.91406467  1
  O  O327  1  0.24241157  0.51010622  0.23966204  1
  O  O328  1  0.24866660  0.51882999  0.58262732  1
  O  O329  1  0.23767381  0.51837027  0.90424529  1
  O  O330  1  0.58441582  0.02200972  0.25496236  1
  O  O331  1  0.59242412  0.01910369  0.58925200  1
  O  O332  1  0.58952006  0.01237736  0.92584521  1
  O  O333  1  0.57826904  0.51445766  0.24563865  1
  O  O334  1  0.58097040  0.52329534  0.58671106  1
  O  O335  1  0.58821397  0.52490886  0.92356172  1
  O  O336  1  0.91863506  0.02936024  0.25086382  1
  O  O337  1  0.91194678  0.01435754  0.57255790  1
  O  O338  1  0.91705300  0.01300836  0.92268455  1
  O  O339  1  0.91340861  0.51358871  0.24627686  1
  O  O340  1  0.90848660  0.51710874  0.57395999  1
  O  O341  1  0.91015264  0.52323389  0.91399117  1
  O  O342  1  0.08166030  0.22092383  0.25462162  1
  O  O343  1  0.08499392  0.23447443  0.57847183  1
  O  O344  1  0.07779417  0.23865071  0.92381637  1
  O  O345  1  0.08324315  0.74598888  0.24917066  1
  O  O346  1  0.08488175  0.73191574  0.58702086  1
  O  O347  1  0.07650375  0.72493612  0.92087744  1
  O  O348  1  0.41970830  0.22797513  0.25401758  1
  O  O349  1  0.42607042  0.23763601  0.57876093  1
  O  O350  1  0.41934124  0.25336177  0.91799400  1
  O  O351  1  0.41607103  0.74446573  0.25118770  1
  O  O352  1  0.42429717  0.72713139  0.58404715  1
  O  O353  1  0.42358099  0.73578317  0.90753108  1
  O  O354  1  0.74877120  0.22294237  0.24928875  1
  O  O355  1  0.75078108  0.23008693  0.58050576  1
  O  O356  1  0.74592607  0.23803279  0.91931673  1
  O  O357  1  0.75551283  0.73606048  0.23968587  1
  O  O358  1  0.74981700  0.72699892  0.58264943  1
  O  O359  1  0.74928094  0.72459775  0.91253249  1
