# generated using pymatgen
data_Ba17Sr5La8Pr42Mn72O216
_symmetry_space_group_name_H-M   'P 1'
_cell_length_a   16.67417666
_cell_length_b   15.70018337
_cell_length_c   16.81392940
_cell_angle_alpha   90.00023961
_cell_angle_beta   89.98263727
_cell_angle_gamma   90.01422206
_symmetry_Int_Tables_number   1
_chemical_formula_structural   Ba17Sr5La8Pr42Mn72O216
_chemical_formula_sum   'Ba17 Sr5 La8 Pr42 Mn72 O216'
_cell_volume   4401.67840917
_cell_formula_units_Z   1
loop_
 _symmetry_equiv_pos_site_id
 _symmetry_equiv_pos_as_xyz
  1  'x, y, z'
loop_
 _atom_site_type_symbol
 _atom_site_label
 _atom_site_symmetry_multiplicity
 _atom_site_fract_x
 _atom_site_fract_y
 _atom_site_fract_z
 _atom_site_occupancy
  Ba  Ba0  1  0.66487747  0.37673286  0.00265059  1
  Ba  Ba1  1  0.33509905  0.12562890  0.66601245  1
  Ba  Ba2  1  0.00232358  0.12648726  0.99951684  1
  Ba  Ba3  1  -0.00358127  0.37473048  0.33526072  1
  Ba  Ba4  1  -0.00043105  0.87558197  0.00165185  1
  Ba  Ba5  1  0.00133224  0.62355215  0.99924182  1
  Ba  Ba6  1  0.33349547  0.37522968  0.33015347  1
  Ba  Ba7  1  0.49818165  0.87668127  0.16764616  1
  Ba  Ba8  1  -0.00292473  0.87546690  0.66569641  1
  Ba  Ba9  1  -0.00277830  0.87530293  0.33635613  1
  Ba  Ba10  1  0.16773520  0.62337227  0.50137111  1
  Ba  Ba11  1  0.50124328  0.12645344  0.50121498  1
  Ba  Ba12  1  0.16393576  0.87461994  0.49792812  1
  Ba  Ba13  1  0.50102160  0.12315904  0.16621230  1
  Ba  Ba14  1  0.17122286  0.12585136  0.83622725  1
  Ba  Ba15  1  0.33659907  0.62495753  0.99540225  1
  Ba  Ba16  1  0.16797559  0.62397732  0.83494255  1
  Sr  Sr17  1  0.67390996  0.62124100  0.66413956  1
  Sr  Sr18  1  0.33985568  0.12508948  0.99475548  1
  Sr  Sr19  1  0.65953249  0.87551909  0.33503174  1
  Sr  Sr20  1  0.66273781  0.37696971  0.67286159  1
  Sr  Sr21  1  0.00117352  0.37423903  0.00405476  1
  La  La22  1  0.50619054  0.12659471  0.83566201  1
  La  La23  1  0.16504749  0.37281280  0.49670004  1
  La  La24  1  0.66083118  0.87346255  0.66708537  1
  La  La25  1  0.50776588  0.62436295  0.83373930  1
  La  La26  1  0.49489834  0.87569386  0.49669542  1
  La  La27  1  0.82581128  0.87351311  0.49568888  1
  La  La28  1  0.83140539  0.87460875  0.83169324  1
  La  La29  1  0.66050408  0.37441712  0.33378939  1
  Pr  Pr30  1  0.50496569  0.62389596  0.17050326  1
  Pr  Pr31  1  0.16315819  0.37547216  0.83859835  1
  Pr  Pr32  1  0.49113546  0.87298445  0.83081956  1
  Pr  Pr33  1  0.83159079  0.37534096  0.16023290  1
  Pr  Pr34  1  0.82440078  0.37630768  0.49882155  1
  Pr  Pr35  1  0.67093294  0.12815568  0.66248747  1
  Pr  Pr36  1  0.66197693  0.87445914  0.00185199  1
  Pr  Pr37  1  0.33345116  0.87741792  0.33392866  1
  Pr  Pr38  1  0.83445622  0.37553658  0.83353036  1
  Pr  Pr39  1  0.00000321  0.37692135  0.66902134  1
  Pr  Pr40  1  0.67115600  0.62884052  0.99888605  1
  Pr  Pr41  1  0.83680948  0.12498083  0.83531203  1
  Pr  Pr42  1  0.82640078  0.87495653  0.16463617  1
  Pr  Pr43  1  0.16368755  0.37563351  0.16224246  1
  Pr  Pr44  1  0.83995186  0.62352703  0.50213899  1
  Pr  Pr45  1  0.33271547  0.12316158  0.32955734  1
  Pr  Pr46  1  0.33887897  0.62533902  0.66203364  1
  Pr  Pr47  1  0.00355230  0.62637751  0.66645672  1
  Pr  Pr48  1  0.00592678  0.12417304  0.33139947  1
  Pr  Pr49  1  0.00608207  0.12530884  0.66682321  1
  Pr  Pr50  1  0.49415446  0.37358514  0.50081217  1
  Pr  Pr51  1  0.67217143  0.12151536  0.33052179  1
  Pr  Pr52  1  0.33103292  0.37376813  0.66578281  1
  Pr  Pr53  1  0.67392045  0.62918868  0.33203098  1
  Pr  Pr54  1  0.15834276  0.87453732  0.83184895  1
  Pr  Pr55  1  0.32623511  0.87619984  -0.00111184  1
  Pr  Pr56  1  0.66999745  0.12254178  0.99869860  1
  Pr  Pr57  1  0.83531247  0.62481756  0.83365153  1
  Pr  Pr58  1  0.16477356  0.87369860  0.16470119  1
  Pr  Pr59  1  0.16506001  0.62432813  0.16717208  1
  Pr  Pr60  1  0.49082012  0.37308558  0.16061367  1
  Pr  Pr61  1  0.50602925  0.62207262  0.50053695  1
  Pr  Pr62  1  0.84157614  0.62320343  0.16789057  1
  Pr  Pr63  1  0.16785446  0.12717252  0.50298689  1
  Pr  Pr64  1  0.00767459  0.62553708  0.33184441  1
  Pr  Pr65  1  0.32469098  0.87648691  0.66626011  1
  Pr  Pr66  1  0.83756803  0.12654566  0.50105935  1
  Pr  Pr67  1  0.49464326  0.37703205  0.83276381  1
  Pr  Pr68  1  0.16701128  0.12472874  0.16457095  1
  Pr  Pr69  1  0.83855224  0.12629429  0.16768050  1
  Pr  Pr70  1  0.33409709  0.62817365  0.32637311  1
  Pr  Pr71  1  0.32839297  0.37385887  0.00170761  1
  Mn  Mn72  1  -0.00081460  0.00030008  0.16937412  1
  Mn  Mn73  1  -0.00329385  0.00272911  0.50010291  1
  Mn  Mn74  1  -0.00173272  0.00072620  0.83285585  1
  Mn  Mn75  1  0.00019583  0.49950077  0.16841792  1
  Mn  Mn76  1  -0.00205254  0.49853787  0.50228944  1
  Mn  Mn77  1  -0.00140758  0.49667776  0.83414826  1
  Mn  Mn78  1  0.33071308  0.00011576  0.16462362  1
  Mn  Mn79  1  0.33269848  -0.00049775  0.49868960  1
  Mn  Mn80  1  0.33603826  -0.00063829  0.83341499  1
  Mn  Mn81  1  0.33440561  0.50170971  0.16397474  1
  Mn  Mn82  1  0.33499106  0.50079853  0.49884087  1
  Mn  Mn83  1  0.33497934  0.49833916  0.83065618  1
  Mn  Mn84  1  0.66846174  -0.00070364  0.16587796  1
  Mn  Mn85  1  0.66661575  0.00083398  0.50056274  1
  Mn  Mn86  1  0.66643412  -0.00075013  0.83150368  1
  Mn  Mn87  1  0.66683691  0.50201066  0.16977340  1
  Mn  Mn88  1  0.66637728  0.49806379  0.50080967  1
  Mn  Mn89  1  0.66789035  0.50062881  0.83426377  1
  Mn  Mn90  1  -0.00007008  0.24945044  0.16873188  1
  Mn  Mn91  1  -0.00340689  0.25021996  0.50170601  1
  Mn  Mn92  1  -0.00121203  0.25276626  0.83388323  1
  Mn  Mn93  1  -0.00046817  0.75046004  0.16902062  1
  Mn  Mn94  1  -0.00248479  0.74864437  0.50012926  1
  Mn  Mn95  1  -0.00203788  0.74979923  0.83269215  1
  Mn  Mn96  1  0.33217590  0.24751375  0.16448547  1
  Mn  Mn97  1  0.33320323  0.25112483  0.49852155  1
  Mn  Mn98  1  0.33677681  0.25197117  0.83407721  1
  Mn  Mn99  1  0.33372537  0.75027792  0.16392437  1
  Mn  Mn100  1  0.33536917  0.74780515  0.49783216  1
  Mn  Mn101  1  0.33431935  0.75051336  0.83026070  1
  Mn  Mn102  1  0.66780866  0.24957026  0.16880162  1
  Mn  Mn103  1  0.66644825  0.25297448  0.50067048  1
  Mn  Mn104  1  0.66787324  0.25127083  0.83318201  1
  Mn  Mn105  1  0.66723195  0.74956015  0.16611604  1
  Mn  Mn106  1  0.66588421  0.74723680  0.50064834  1
  Mn  Mn107  1  0.66686421  0.74976413  0.83256571  1
  Mn  Mn108  1  0.16879012  0.24995961  0.00099213  1
  Mn  Mn109  1  0.16706025  0.24995398  0.33334949  1
  Mn  Mn110  1  0.16615839  0.25228430  0.66640133  1
  Mn  Mn111  1  0.16772310  0.75075581  -0.00070203  1
  Mn  Mn112  1  0.16795487  0.74872825  0.33149140  1
  Mn  Mn113  1  0.16734645  0.74885498  0.66792113  1
  Mn  Mn114  1  0.50176167  0.24955375  -0.00117105  1
  Mn  Mn115  1  0.50075020  0.24986366  0.33285121  1
  Mn  Mn116  1  0.50170729  0.25245009  0.66865852  1
  Mn  Mn117  1  0.50135346  0.75039790  -0.00051696  1
  Mn  Mn118  1  0.49964096  0.74915235  0.33552945  1
  Mn  Mn119  1  0.50096443  0.74805532  0.66429645  1
  Mn  Mn120  1  0.83244763  0.24980312  0.00027823  1
  Mn  Mn121  1  0.83068606  0.25111860  0.33381666  1
  Mn  Mn122  1  0.83333173  0.25128844  0.66687603  1
  Mn  Mn123  1  0.83234146  0.75042255  -0.00063699  1
  Mn  Mn124  1  0.83127096  0.74896828  0.33374728  1
  Mn  Mn125  1  0.83129349  0.74895640  0.66535961  1
  Mn  Mn126  1  0.16901563  -0.00016772  -0.00004962  1
  Mn  Mn127  1  0.16699479  0.00207209  0.33286999  1
  Mn  Mn128  1  0.16573511  0.00138985  0.66668761  1
  Mn  Mn129  1  0.16712028  0.49940181  0.00073883  1
  Mn  Mn130  1  0.16778681  0.49858762  0.33333544  1
  Mn  Mn131  1  0.16803562  0.49809894  0.66801379  1
  Mn  Mn132  1  0.50129455  -0.00037943  -0.00296688  1
  Mn  Mn133  1  0.50056352  0.00039468  0.33478322  1
  Mn  Mn134  1  0.50069181  -0.00191892  0.66711327  1
  Mn  Mn135  1  0.50120406  0.50167757  0.00045422  1
  Mn  Mn136  1  0.50109001  0.50008912  0.33410507  1
  Mn  Mn137  1  0.50102141  0.50091014  0.66656724  1
  Mn  Mn138  1  0.83191158  -0.00037714  -0.00060492  1
  Mn  Mn139  1  0.83110873  0.00057112  0.33435029  1
  Mn  Mn140  1  0.83069135  0.00147847  0.66594135  1
  Mn  Mn141  1  0.83255594  0.50082369  0.00019299  1
  Mn  Mn142  1  0.83082426  0.49968375  0.33371945  1
  Mn  Mn143  1  0.83420073  0.49868533  0.66680053  1
  O  O144  1  0.17403385  0.12500800  0.01864200  1
  O  O145  1  0.17052741  0.12732342  0.35823854  1
  O  O146  1  0.16229497  0.12959007  0.67827110  1
  O  O147  1  0.16957410  0.62461159  0.01989047  1
  O  O148  1  0.16810201  0.62299854  0.34360396  1
  O  O149  1  0.16970069  0.62109073  0.67912600  1
  O  O150  1  0.50336446  0.12424344  0.00872629  1
  O  O151  1  0.49859521  0.12441188  0.34408630  1
  O  O152  1  0.50593688  0.12781521  0.69033201  1
  O  O153  1  0.50471192  0.62718411  0.02580323  1
  O  O154  1  0.49260370  0.62491180  0.35650811  1
  O  O155  1  0.49097698  0.62545323  0.69174779  1
  O  O156  1  0.82531711  0.12337124  0.02224653  1
  O  O157  1  0.82267912  0.12846434  0.35833980  1
  O  O158  1  0.82249064  0.12675479  0.69249949  1
  O  O159  1  0.82753891  0.62718585  0.02243398  1
  O  O160  1  0.82465600  0.62320856  0.35943898  1
  O  O161  1  0.83463418  0.62098417  0.69045444  1
  O  O162  1  0.16543874  0.37337049  0.30670784  1
  O  O163  1  0.16544422  0.37528293  0.64053775  1
  O  O164  1  0.16988756  0.37476242  0.98626598  1
  O  O165  1  0.17231420  0.87534073  0.30903322  1
  O  O166  1  0.17029007  0.87554488  0.65658219  1
  O  O167  1  0.17266844  0.87561721  0.97929837  1
  O  O168  1  0.50709538  0.37709256  0.30497379  1
  O  O169  1  0.50167322  0.37886109  0.64430052  1
  O  O170  1  0.49783003  0.37514033  0.97852769  1
  O  O171  1  0.49842293  0.87317978  0.32415998  1
  O  O172  1  0.50904426  0.86794508  0.63995700  1
  O  O173  1  0.50938004  0.87438371  0.97452048  1
  O  O174  1  0.82706207  0.37604627  0.30371927  1
  O  O175  1  0.84199179  0.37481249  0.63967375  1
  O  O176  1  0.83381381  0.37539785  0.98085121  1
  O  O177  1  0.83140309  0.87171295  0.30906630  1
  O  O178  1  0.82732349  0.87847141  0.63960122  1
  O  O179  1  0.82670960  0.87455680  0.97707658  1
  O  O180  1  0.00145027  0.37444047  0.17919412  1
  O  O181  1  -0.00281645  0.37320716  0.52495196  1
  O  O182  1  -0.00745489  0.37445802  0.85410172  1
  O  O183  1  0.00336723  0.87591328  0.18055942  1
  O  O184  1  -0.00906793  0.87628878  0.50939257  1
  O  O185  1  -0.00123015  0.87537025  0.84094010  1
  O  O186  1  0.33751643  0.37523672  0.17527394  1
  O  O187  1  0.33741300  0.37789859  0.52058184  1
  O  O188  1  0.34543683  0.37583151  0.85683190  1
  O  O189  1  0.32475759  0.87405387  0.19118646  1
  O  O190  1  0.33780969  0.87171452  0.51942854  1
  O  O191  1  0.34311164  0.87424575  0.85437063  1
  O  O192  1  0.67664231  0.37918680  0.19090326  1
  O  O193  1  0.67387141  0.37627159  0.52391331  1
  O  O194  1  0.67202398  0.37775932  0.84799501  1
  O  O195  1  0.67720924  0.87352379  0.18581281  1
  O  O196  1  0.66967699  0.87328481  0.52335516  1
  O  O197  1  0.67409723  0.87332232  0.85868645  1
  O  O198  1  -0.00496780  0.12486370  0.15591680  1
  O  O199  1  -0.00895077  0.12857396  0.47513764  1
  O  O200  1  -0.00781582  0.12911138  0.81175115  1
  O  O201  1  -0.00228891  0.62437089  0.15626257  1
  O  O202  1  -0.00904796  0.62152097  0.47688106  1
  O  O203  1  -0.00826163  0.62116488  0.81104635  1
  O  O204  1  0.32381801  0.12375491  0.14391105  1
  O  O205  1  0.32508877  0.12503762  0.47732151  1
  O  O206  1  0.34202252  0.12587044  0.82253963  1
  O  O207  1  0.33857828  0.62653114  0.15059060  1
  O  O208  1  0.33928561  0.62388413  0.47281116  1
  O  O209  1  0.33652735  0.62409222  0.80568502  1
  O  O210  1  0.67298416  0.12163644  0.14337787  1
  O  O211  1  0.67081542  0.13016682  0.47514528  1
  O  O212  1  0.66462885  0.12390733  0.80514782  1
  O  O213  1  0.65922895  0.62549470  0.14280243  1
  O  O214  1  0.66269548  0.61974798  0.47479665  1
  O  O215  1  0.66571849  0.62594940  0.81214551  1
  O  O216  1  0.08576305  0.02272074  0.25047657  1
  O  O217  1  0.08059009  0.02340469  0.57861805  1
  O  O218  1  0.08962267  0.00442743  0.91552210  1
  O  O219  1  0.08460706  0.51884242  0.24907798  1
  O  O220  1  0.07785741  0.51153426  0.59289673  1
  O  O221  1  0.08409347  0.50098748  0.91675461  1
  O  O222  1  0.40686734  0.01083506  0.25257988  1
  O  O223  1  0.41869444  0.00340820  0.58017604  1
  O  O224  1  0.43144258  0.00958801  0.90294749  1
  O  O225  1  0.42198931  0.51891203  0.24406320  1
  O  O226  1  0.42166286  0.52191630  0.57881604  1
  O  O227  1  0.42764912  0.51574759  0.90080021  1
  O  O228  1  0.75851963  0.02028260  0.24248715  1
  O  O229  1  0.75548876  0.02370906  0.57663458  1
  O  O230  1  0.75229635  0.02244770  0.90843673  1
  O  O231  1  0.75264580  0.52807211  0.24754737  1
  O  O232  1  0.75761318  0.51576003  0.57525809  1
  O  O233  1  0.74982616  0.52351110  0.91635573  1
  O  O234  1  0.24913301  0.22694505  0.25002902  1
  O  O235  1  0.24528786  0.24101963  0.57795062  1
  O  O236  1  0.26056107  0.24806436  0.92243494  1
  O  O237  1  0.25064242  0.72746776  0.24515614  1
  O  O238  1  0.26284505  0.73716435  0.59102761  1
  O  O239  1  0.25675605  0.74686627  0.91817030  1
  O  O240  1  0.59588341  0.23598926  0.26161425  1
  O  O241  1  0.59320070  0.23764351  0.59439961  1
  O  O242  1  0.59145991  0.23000324  0.92273263  1
  O  O243  1  0.58618090  0.72859812  0.25657061  1
  O  O244  1  0.58900882  0.72604328  0.58989556  1
  O  O245  1  0.59117706  0.73025765  0.92234575  1
  O  O246  1  0.91722505  0.22888146  0.25796112  1
  O  O247  1  0.91913244  0.22415081  0.59074206  1
  O  O248  1  0.91042846  0.23618897  0.91165445  1
  O  O249  1  0.91993174  0.72567543  0.26097767  1
  O  O250  1  0.91997571  0.72613942  0.58868721  1
  O  O251  1  0.91328160  0.73680022  0.91462715  1
  O  O252  1  0.08807783  0.48756454  0.08965455  1
  O  O253  1  0.08127718  0.48506714  0.42312172  1
  O  O254  1  0.08267401  0.47586193  0.75326924  1
  O  O255  1  0.08903764  0.99116724  0.09007980  1
  O  O256  1  0.08036757  0.99993083  0.41429619  1
  O  O257  1  0.08115415  0.99347297  0.74905841  1
  O  O258  1  0.41349195  0.48029531  0.07644743  1
  O  O259  1  0.42088402  0.48235558  0.41979821  1
  O  O260  1  0.41056892  0.47743435  0.74032215  1
  O  O261  1  0.40954195  0.98499480  0.07156872  1
  O  O262  1  0.41306314  0.98289337  0.41569877  1
  O  O263  1  0.41343417  0.97495009  0.74269092  1
  O  O264  1  0.75251345  0.48996599  0.08878239  1
  O  O265  1  0.74315609  0.47850853  0.40957573  1
  O  O266  1  0.75592441  0.48289154  0.75143166  1
  O  O267  1  0.74499379  0.97731248  0.07700272  1
  O  O268  1  0.74253160  0.98288907  0.41028761  1
  O  O269  1  0.74067506  0.97820776  0.74203193  1
  O  O270  1  0.24695669  0.27174622  0.08789277  1
  O  O271  1  0.24428621  0.26733191  0.41907377  1
  O  O272  1  0.24915971  0.27431561  0.75298621  1
  O  O273  1  0.24815699  0.77190595  0.08527886  1
  O  O274  1  0.25436668  0.76209511  0.40729748  1
  O  O275  1  0.24809802  0.77296643  0.75584497  1
  O  O276  1  0.57601511  0.26665180  0.09455706  1
  O  O277  1  0.57992877  0.27534756  0.42584443  1
  O  O278  1  0.57636797  0.26884960  0.76058784  1
  O  O279  1  0.58511590  0.76607500  0.08423690  1
  O  O280  1  0.57420262  0.76004582  0.42781295  1
  O  O281  1  0.57584249  0.76835145  0.75800293  1
  O  O282  1  0.91183588  0.26332746  0.08965290  1
  O  O283  1  0.90305694  0.26642010  0.42794014  1
  O  O284  1  0.91418061  0.27235182  0.74937346  1
  O  O285  1  0.90596299  0.76225703  0.09635713  1
  O  O286  1  0.90169730  0.75997884  0.42794426  1
  O  O287  1  0.90424071  0.76171972  0.75590600  1
  O  O288  1  0.24832704  0.48098601  0.08620341  1
  O  O289  1  0.24573831  0.48276485  0.42339500  1
  O  O290  1  0.24810783  0.47170891  0.75311343  1
  O  O291  1  0.24654872  0.97487748  0.08737751  1
  O  O292  1  0.25583458  0.98512752  0.40719010  1
  O  O293  1  0.24992687  0.98046010  0.75608420  1
  O  O294  1  0.57370151  0.48444958  0.10209079  1
  O  O295  1  0.57979248  0.47710855  0.42393055  1
  O  O296  1  0.57576106  0.48654567  0.75925222  1
  O  O297  1  0.58640046  0.98614915  0.07920601  1
  O  O298  1  0.57881996  0.98398056  0.42855138  1
  O  O299  1  0.57722240  0.97527044  0.75950161  1
  O  O300  1  0.91303461  0.48664355  0.08950920  1
  O  O301  1  0.90299929  0.48371319  0.42665294  1
  O  O302  1  0.91758785  0.47589920  0.74789444  1
  O  O303  1  0.90573555  0.98774656  0.09647495  1
  O  O304  1  0.90218082  0.99076144  0.42875552  1
  O  O305  1  0.90144097  0.98970834  0.75620763  1
  O  O306  1  0.08821626  0.26118850  0.08940496  1
  O  O307  1  0.08395630  0.26154840  0.42102737  1
  O  O308  1  0.08035647  0.27355934  0.74780959  1
  O  O309  1  0.08909821  0.76019028  0.08917447  1
  O  O310  1  0.07680535  0.75124479  0.41291021  1
  O  O311  1  0.08123023  0.75637181  0.75141209  1
  O  O312  1  0.41279314  0.26601401  0.07521595  1
  O  O313  1  0.41818907  0.26360210  0.41817798  1
  O  O314  1  0.41472118  0.27459526  0.74636244  1
  O  O315  1  0.41079493  0.77032368  0.07309572  1
  O  O316  1  0.41210816  0.77000291  0.41113963  1
  O  O317  1  0.40906994  0.77237611  0.73572563  1
  O  O318  1  0.75179448  0.26440521  0.08754356  1
  O  O319  1  0.74342077  0.27472345  0.41057165  1
  O  O320  1  0.75124506  0.27005792  0.74865235  1
  O  O321  1  0.74425299  0.76811496  0.07515260  1
  O  O322  1  0.74079517  0.76456148  0.40826980  1
  O  O323  1  0.74300880  0.76966999  0.74406917  1
  O  O324  1  0.24612987  0.02465381  0.24829712  1
  O  O325  1  0.24652151  0.01225632  0.57733963  1
  O  O326  1  0.26309386  0.00597545  0.92405180  1
  O  O327  1  0.25452362  0.52043609  0.24738192  1
  O  O328  1  0.26261118  0.51138533  0.59150674  1
  O  O329  1  0.25427832  0.49951148  0.91688181  1
  O  O330  1  0.59410192  0.01179670  0.25715297  1
  O  O331  1  0.59554957  0.01454145  0.59671210  1
  O  O332  1  0.59357133  0.01974267  0.91934672  1
  O  O333  1  0.59013119  0.52538649  0.25982808  1
  O  O334  1  0.58437526  0.51919258  0.58594012  1
  O  O335  1  0.58861316  0.52244375  0.92536749  1
  O  O336  1  0.91957090  0.02267736  0.26080455  1
  O  O337  1  0.91873666  0.02726634  0.59157882  1
  O  O338  1  0.91324686  0.01336701  0.91631833  1
  O  O339  1  0.91763619  0.52101746  0.25706137  1
  O  O340  1  0.91964242  0.52347548  0.58863057  1
  O  O341  1  0.90836232  0.51347798  0.90879414  1
  O  O342  1  0.08525285  0.22676142  0.25200736  1
  O  O343  1  0.08071150  0.23108320  0.58165776  1
  O  O344  1  0.08801292  0.24804885  0.91489794  1
  O  O345  1  0.08642197  0.73001704  0.24802994  1
  O  O346  1  0.07974449  0.73528696  0.58577835  1
  O  O347  1  0.08620743  0.74680951  0.91484100  1
  O  O348  1  0.41271743  0.23635480  0.24749305  1
  O  O349  1  0.41890399  0.24748118  0.58377345  1
  O  O350  1  0.43035081  0.23815696  0.90609181  1
  O  O351  1  0.41868225  0.73131843  0.24818253  1
  O  O352  1  0.42612022  0.72607455  0.57493025  1
  O  O353  1  0.42920339  0.73633916  0.89975196  1
  O  O354  1  0.75415025  0.22645186  0.24749932  1
  O  O355  1  0.75633686  0.23209443  0.57710896  1
  O  O356  1  0.75075232  0.22691124  0.91371572  1
  O  O357  1  0.75666805  0.72562947  0.24140229  1
  O  O358  1  0.75760760  0.73060136  0.57342738  1
  O  O359  1  0.75295832  0.72783646  0.91010385  1
