# generated using pymatgen
data_Ba17Sr5La8Pr42Mn72O216
_symmetry_space_group_name_H-M   'P 1'
_cell_length_a   16.66923003
_cell_length_b   15.70210695
_cell_length_c   16.81626344
_cell_angle_alpha   89.99465446
_cell_angle_beta   90.03102277
_cell_angle_gamma   89.99320420
_symmetry_Int_Tables_number   1
_chemical_formula_structural   Ba17Sr5La8Pr42Mn72O216
_chemical_formula_sum   'Ba17 Sr5 La8 Pr42 Mn72 O216'
_cell_volume   4401.52227867
_cell_formula_units_Z   1
loop_
 _symmetry_equiv_pos_site_id
 _symmetry_equiv_pos_as_xyz
  1  'x, y, z'
loop_
 _atom_site_type_symbol
 _atom_site_label
 _atom_site_symmetry_multiplicity
 _atom_site_fract_x
 _atom_site_fract_y
 _atom_site_fract_z
 _atom_site_occupancy
  Ba  Ba0  1  0.83257499  0.37442020  0.49768027  1
  Ba  Ba1  1  0.83005852  0.62624193  0.49502493  1
  Ba  Ba2  1  0.33159808  0.62411936  1.00052855  1
  Ba  Ba3  1  0.16988252  0.12408725  0.50476295  1
  Ba  Ba4  1  0.16288692  0.62466292  0.83570205  1
  Ba  Ba5  1  0.83211477  0.37490846  0.82930375  1
  Ba  Ba6  1  0.66465896  0.62586490  0.33108774  1
  Ba  Ba7  1  0.00334421  0.12452196  1.00024738  1
  Ba  Ba8  1  0.66564750  0.62541099  0.99979061  1
  Ba  Ba9  1  0.50415987  0.12483826  0.16801475  1
  Ba  Ba10  1  0.00357230  0.12607736  0.33366003  1
  Ba  Ba11  1  0.00059098  0.37709519  0.33372148  1
  Ba  Ba12  1  0.33180732  0.62419572  0.33489217  1
  Ba  Ba13  1  0.66602859  0.37217613  0.66763631  1
  Ba  Ba14  1  0.16900031  0.12488990  0.17049402  1
  Ba  Ba15  1  0.16861725  0.12525736  0.83736837  1
  Ba  Ba16  1  0.33275459  0.87219131  0.00187196  1
  Sr  Sr17  1  0.83961598  0.12628281  0.49702543  1
  Sr  Sr18  1  0.32862735  0.37428498  0.66831910  1
  Sr  Sr19  1  -0.00524643  0.62549300  0.33123613  1
  Sr  Sr20  1  0.83228259  0.87644644  0.83181692  1
  Sr  Sr21  1  0.83551459  0.87382019  0.16269174  1
  La  La22  1  0.00286438  0.87595051  0.00109497  1
  La  La23  1  -0.00044963  0.37465638  0.66568276  1
  La  La24  1  0.49693372  0.87103891  0.83419238  1
  La  La25  1  0.49984454  0.87204533  0.16489717  1
  La  La26  1  0.33224240  0.37248222  0.33757196  1
  La  La27  1  0.83567848  0.37673408  0.16350184  1
  La  La28  1  0.84044152  0.12265985  0.16796393  1
  La  La29  1  0.49778233  0.37542771  0.50009811  1
  Pr  Pr30  1  0.66725589  0.87700289  0.33192039  1
  Pr  Pr31  1  0.49936343  0.37879712  0.16727290  1
  Pr  Pr32  1  0.82557085  0.62618861  0.82989537  1
  Pr  Pr33  1  0.82539416  0.62805625  0.17109257  1
  Pr  Pr34  1  0.83895295  0.12580125  0.83166639  1
  Pr  Pr35  1  0.00348017  0.37475489  0.00203178  1
  Pr  Pr36  1  0.49447659  0.62702644  0.17019703  1
  Pr  Pr37  1  0.16260615  0.62302704  0.50666205  1
  Pr  Pr38  1  0.33859699  0.12534801  0.33160578  1
  Pr  Pr39  1  0.67787033  0.12440382  0.33067996  1
  Pr  Pr40  1  0.00143846  0.87604017  0.66760409  1
  Pr  Pr41  1  0.33248987  0.87585152  0.33434828  1
  Pr  Pr42  1  0.34177592  0.12538358  0.66698623  1
  Pr  Pr43  1  0.33866950  0.12510419  0.99775038  1
  Pr  Pr44  1  0.66434603  0.37267511  -0.00061928  1
  Pr  Pr45  1  0.32689047  0.37662554  0.00072201  1
  Pr  Pr46  1  0.66741790  0.87595462  0.66833747  1
  Pr  Pr47  1  0.16422519  0.87324443  0.83713327  1
  Pr  Pr48  1  -0.00978998  0.62711134  0.66147666  1
  Pr  Pr49  1  0.50020785  0.87312182  0.49837285  1
  Pr  Pr50  1  0.66261095  0.62111574  0.66176363  1
  Pr  Pr51  1  0.16244356  0.37706588  0.83481742  1
  Pr  Pr52  1  -0.00815430  0.62624411  0.99613453  1
  Pr  Pr53  1  0.00218776  0.87747716  0.33320909  1
  Pr  Pr54  1  0.67799053  0.12390366  0.66475139  1
  Pr  Pr55  1  0.32725443  0.62279024  0.66289327  1
  Pr  Pr56  1  0.49811203  0.62483539  0.50176116  1
  Pr  Pr57  1  0.83476227  0.87727399  0.49224540  1
  Pr  Pr58  1  0.49504020  0.37875389  0.82908707  1
  Pr  Pr59  1  0.50574625  0.12659192  0.83963637  1
  Pr  Pr60  1  0.16646905  0.37655340  0.17102749  1
  Pr  Pr61  1  0.16579681  0.87338805  0.49999821  1
  Pr  Pr62  1  0.16644445  0.37542834  0.49896682  1
  Pr  Pr63  1  0.16085358  0.62746707  0.16969000  1
  Pr  Pr64  1  0.66699902  0.87573803  0.00258729  1
  Pr  Pr65  1  0.50662000  0.12498714  0.50268814  1
  Pr  Pr66  1  0.67695881  0.12279400  0.99902540  1
  Pr  Pr67  1  -0.00048842  0.12558651  0.66061096  1
  Pr  Pr68  1  0.66492314  0.37272083  0.33831029  1
  Pr  Pr69  1  0.16649940  0.87417617  0.16793768  1
  Pr  Pr70  1  0.32814036  0.87614328  0.67321688  1
  Pr  Pr71  1  0.49819520  0.62240188  0.83355438  1
  Mn  Mn72  1  0.00106702  -0.00279177  0.16717721  1
  Mn  Mn73  1  0.00123360  -0.00133143  0.50135129  1
  Mn  Mn74  1  -0.00070855  -0.00314660  0.83176170  1
  Mn  Mn75  1  -0.00054800  0.50202912  0.16365324  1
  Mn  Mn76  1  0.00009180  0.50305377  0.49978540  1
  Mn  Mn77  1  -0.00332503  0.50225810  0.83232176  1
  Mn  Mn78  1  0.33515423  -0.00039250  0.16836738  1
  Mn  Mn79  1  0.33699108  -0.00192802  0.50309517  1
  Mn  Mn80  1  0.33470908  -0.00054552  0.83387056  1
  Mn  Mn81  1  0.33232893  0.49888706  0.16807935  1
  Mn  Mn82  1  0.33286391  0.49938561  0.50158760  1
  Mn  Mn83  1  0.33194847  0.49927670  0.83220014  1
  Mn  Mn84  1  0.66823456  0.00008261  0.16574646  1
  Mn  Mn85  1  0.66723251  -0.00003470  0.50068879  1
  Mn  Mn86  1  0.66562467  -0.00057434  0.83303071  1
  Mn  Mn87  1  0.66610142  0.49716768  0.16548983  1
  Mn  Mn88  1  0.66378689  0.49967905  0.49833943  1
  Mn  Mn89  1  0.66432008  0.50090022  0.83211164  1
  Mn  Mn90  1  0.00115319  0.25238449  0.16651861  1
  Mn  Mn91  1  0.00133773  0.24964303  0.50084106  1
  Mn  Mn92  1  0.00097762  0.25066052  0.83230705  1
  Mn  Mn93  1  -0.00026048  0.74934203  0.16461942  1
  Mn  Mn94  1  -0.00031711  0.75136331  0.49865572  1
  Mn  Mn95  1  -0.00419029  0.75068610  0.83181890  1
  Mn  Mn96  1  0.33510208  0.25228752  0.16765668  1
  Mn  Mn97  1  0.33550921  0.24916637  0.50318495  1
  Mn  Mn98  1  0.33505489  0.25164349  0.83338587  1
  Mn  Mn99  1  0.33204264  0.74858296  0.16949102  1
  Mn  Mn100  1  0.33343408  0.75107672  0.50323648  1
  Mn  Mn101  1  0.33241677  0.74951708  0.83257902  1
  Mn  Mn102  1  0.66829114  0.25048252  0.16717819  1
  Mn  Mn103  1  0.66609274  0.24718493  0.50000747  1
  Mn  Mn104  1  0.66538702  0.24694670  0.83429114  1
  Mn  Mn105  1  0.66586091  0.75186667  0.16479057  1
  Mn  Mn106  1  0.66431730  0.75266389  0.50051760  1
  Mn  Mn107  1  0.66510694  0.75285431  0.83065208  1
  Mn  Mn108  1  0.16908487  0.25150402  0.00244644  1
  Mn  Mn109  1  0.16997875  0.25084025  0.33629537  1
  Mn  Mn110  1  0.16706093  0.25081414  0.67070614  1
  Mn  Mn111  1  0.16400133  0.74919552  0.00221884  1
  Mn  Mn112  1  0.16582471  0.74933469  0.33554950  1
  Mn  Mn113  1  0.16563853  0.75043935  0.66810248  1
  Mn  Mn114  1  0.50116460  0.25165744  0.00001823  1
  Mn  Mn115  1  0.50162796  0.24873265  0.33540932  1
  Mn  Mn116  1  0.49942614  0.24755492  0.66927999  1
  Mn  Mn117  1  0.50081277  0.74852338  -0.00117332  1
  Mn  Mn118  1  0.49989628  0.75204344  0.33342993  1
  Mn  Mn119  1  0.49854321  0.75199660  0.66574627  1
  Mn  Mn120  1  0.83476274  0.25080750  -0.00187590  1
  Mn  Mn121  1  0.83380628  0.24939996  0.33018795  1
  Mn  Mn122  1  0.83529109  0.24807596  0.66470477  1
  Mn  Mn123  1  0.83263783  0.75065711  -0.00265001  1
  Mn  Mn124  1  0.83370203  0.75237501  0.32910499  1
  Mn  Mn125  1  0.83012814  0.75388833  0.66445762  1
  Mn  Mn126  1  0.16943999  -0.00065302  0.00246529  1
  Mn  Mn127  1  0.17031073  -0.00249900  0.33599145  1
  Mn  Mn128  1  0.16684483  -0.00056795  0.67035416  1
  Mn  Mn129  1  0.16434480  0.50000990  0.00214485  1
  Mn  Mn130  1  0.16558509  0.50328344  0.33539444  1
  Mn  Mn131  1  0.16474467  0.49961637  0.66864576  1
  Mn  Mn132  1  0.50160283  0.00049230  0.00052257  1
  Mn  Mn133  1  0.50159053  -0.00083406  0.33549089  1
  Mn  Mn134  1  0.50019568  0.00000020  0.66802537  1
  Mn  Mn135  1  0.50017499  0.49751878  -0.00121427  1
  Mn  Mn136  1  0.49979151  0.49927388  0.33275792  1
  Mn  Mn137  1  0.49687513  0.49974303  0.66639127  1
  Mn  Mn138  1  0.83472493  -0.00176306  -0.00271966  1
  Mn  Mn139  1  0.83506335  -0.00248220  0.33023947  1
  Mn  Mn140  1  0.83388212  -0.00261546  0.66303540  1
  Mn  Mn141  1  0.83315965  0.50051964  -0.00282258  1
  Mn  Mn142  1  0.83187443  0.50104224  0.32955838  1
  Mn  Mn143  1  0.83183756  0.50123884  0.66462929  1
  O  O144  1  0.17555852  0.12900667  0.01297173  1
  O  O145  1  0.17530850  0.12252092  0.34666116  1
  O  O146  1  0.15907623  0.12225226  0.68224624  1
  O  O147  1  0.15643469  0.62338589  0.02395980  1
  O  O148  1  0.16344913  0.62897592  0.36187758  1
  O  O149  1  0.17351498  0.62573081  0.68022857  1
  O  O150  1  0.49114344  0.12715774  0.01297495  1
  O  O151  1  0.49207211  0.12264701  0.35936875  1
  O  O152  1  0.49210566  0.12273084  0.69648749  1
  O  O153  1  0.50013028  0.61880936  0.02658658  1
  O  O154  1  0.49989116  0.62737986  0.35575818  1
  O  O155  1  0.50928849  0.63061922  0.69000523  1
  O  O156  1  0.82746649  0.12522402  0.02348768  1
  O  O157  1  0.82789570  0.12032548  0.34604906  1
  O  O158  1  0.83836409  0.11960870  0.68602022  1
  O  O159  1  0.83703897  0.62567324  0.02577959  1
  O  O160  1  0.83331893  0.62955426  0.33632981  1
  O  O161  1  0.83581265  0.63212227  0.68503366  1
  O  O162  1  0.17516845  0.37758769  0.31726308  1
  O  O163  1  0.16191617  0.37813261  0.64289614  1
  O  O164  1  0.16747395  0.37612346  0.97980929  1
  O  O165  1  0.17339408  0.87151421  0.31273900  1
  O  O166  1  0.16952257  0.87389680  0.64355258  1
  O  O167  1  0.16282850  0.87233270  0.98267413  1
  O  O168  1  0.50656450  0.37199344  0.31298552  1
  O  O169  1  0.49744823  0.36976512  0.64346110  1
  O  O170  1  0.50938575  0.37375012  0.97159033  1
  O  O171  1  0.50330959  0.87668679  0.31042884  1
  O  O172  1  0.49735894  0.87680800  0.64001538  1
  O  O173  1  0.50809603  0.87780108  0.97833436  1
  O  O174  1  0.82481187  0.37375780  0.31114207  1
  O  O175  1  0.83785342  0.37221939  0.65640488  1
  O  O176  1  0.83908682  0.37547874  0.98486965  1
  O  O177  1  0.83464892  0.87532326  0.31387475  1
  O  O178  1  0.82364080  0.87564759  0.63601399  1
  O  O179  1  0.83286273  0.87489599  0.97952697  1
  O  O180  1  -0.00732403  0.37893082  0.17582271  1
  O  O181  1  0.00762758  0.37828587  0.51991935  1
  O  O182  1  -0.00028219  0.37992236  0.85566152  1
  O  O183  1  0.00044146  0.86882119  0.18885495  1
  O  O184  1  -0.00017381  0.87386970  0.52331653  1
  O  O185  1  -0.00210286  0.87237915  0.85619834  1
  O  O186  1  0.33310454  0.37555391  0.19196090  1
  O  O187  1  0.33991918  0.37715877  0.52089883  1
  O  O188  1  0.34220343  0.37513107  0.85553169  1
  O  O189  1  0.33152462  0.87201202  0.18853816  1
  O  O190  1  0.34382617  0.87466705  0.53128262  1
  O  O191  1  0.33757261  0.87466525  0.84448865  1
  O  O192  1  0.66637620  0.37178942  0.19370030  1
  O  O193  1  0.66032723  0.37300490  0.50996863  1
  O  O194  1  0.66233972  0.36990643  0.85419080  1
  O  O195  1  0.66055164  0.87747994  0.18735647  1
  O  O196  1  0.66477873  0.87819328  0.52632755  1
  O  O197  1  0.66430942  0.87794809  0.85922679  1
  O  O198  1  -0.00274056  0.12539067  0.15850038  1
  O  O199  1  0.00149903  0.12047259  0.49261724  1
  O  O200  1  -0.00284230  0.11898113  0.80757048  1
  O  O201  1  0.00984179  0.62687156  0.13838521  1
  O  O202  1  0.00891712  0.62954500  0.48296586  1
  O  O203  1  -0.00383065  0.62868821  0.80522935  1
  O  O204  1  0.33443228  0.13045163  0.14342926  1
  O  O205  1  0.33880432  0.11951934  0.47462290  1
  O  O206  1  0.33844504  0.12519625  0.81168629  1
  O  O207  1  0.34246406  0.62228137  0.15717066  1
  O  O208  1  0.32630068  0.62612330  0.48934718  1
  O  O209  1  0.33798882  0.62528548  0.80802188  1
  O  O210  1  0.67174167  0.12561746  0.14265721  1
  O  O211  1  0.65862393  0.12108909  0.47404867  1
  O  O212  1  0.65544513  0.12102720  0.80874397  1
  O  O213  1  0.66941629  0.62508840  0.15490789  1
  O  O214  1  0.65392939  0.62736850  0.48836997  1
  O  O215  1  0.66171956  0.63261728  0.80622961  1
  O  O216  1  0.08758117  -0.00360087  0.25085541  1
  O  O217  1  0.08184416  0.00577478  0.58983650  1
  O  O218  1  0.08676593  0.00081964  0.91533638  1
  O  O219  1  0.07835458  0.51833977  0.24962980  1
  O  O220  1  0.07886161  0.52340708  0.59093981  1
  O  O221  1  0.07033591  0.51226661  0.92671778  1
  O  O222  1  0.41898446  0.01233668  0.25400926  1
  O  O223  1  0.42521145  0.02446222  0.57883771  1
  O  O224  1  0.42542462  0.01586397  0.90931440  1
  O  O225  1  0.41951246  0.50790222  0.24794391  1
  O  O226  1  0.41420647  0.52512408  0.58456222  1
  O  O227  1  0.41987425  0.51336116  0.91023134  1
  O  O228  1  0.75364725  0.01637772  0.24394201  1
  O  O229  1  0.75252978  0.02107481  0.57800245  1
  O  O230  1  0.75316595  0.02422022  0.90894343  1
  O  O231  1  0.75190202  0.51043260  0.24088860  1
  O  O232  1  0.74176732  0.51469428  0.58518706  1
  O  O233  1  0.74968660  0.51475917  0.91221166  1
  O  O234  1  0.26194327  0.23900433  0.26368430  1
  O  O235  1  0.25861625  0.23537806  0.59827705  1
  O  O236  1  0.26664269  0.24196699  0.93052346  1
  O  O237  1  0.24217973  0.73383631  0.24676407  1
  O  O238  1  0.24720674  0.73515303  0.58385729  1
  O  O239  1  0.24202258  0.74374270  0.91534551  1
  O  O240  1  0.59516033  0.23251172  0.26691231  1
  O  O241  1  0.58619034  0.22230313  0.59410675  1
  O  O242  1  0.59201198  0.22791102  0.92875432  1
  O  O243  1  0.57376259  0.73835224  0.23829394  1
  O  O244  1  0.57221610  0.73687332  0.57538693  1
  O  O245  1  0.57583048  0.73602809  0.90460409  1
  O  O246  1  0.91276325  0.24138473  0.24307608  1
  O  O247  1  0.91939806  0.23478561  0.58516151  1
  O  O248  1  0.91426257  0.23183222  0.90952291  1
  O  O249  1  0.91388758  0.73120828  0.23499676  1
  O  O250  1  0.91680782  0.73930317  0.58133516  1
  O  O251  1  0.91021731  0.72622773  0.90958675  1
  O  O252  1  0.08875285  0.47606416  0.08936793  1
  O  O253  1  0.09459387  0.48858454  0.42982646  1
  O  O254  1  0.08451836  0.47958589  0.75495416  1
  O  O255  1  0.08183863  0.97898052  0.08483505  1
  O  O256  1  0.08517882  0.97554799  0.41763209  1
  O  O257  1  0.08149982  0.97194964  0.75076902  1
  O  O258  1  0.41909033  0.47314486  0.08055088  1
  O  O259  1  0.42001548  0.48315401  0.41996313  1
  O  O260  1  0.41549961  0.48627738  0.74785447  1
  O  O261  1  0.41919603  0.98622352  0.08354049  1
  O  O262  1  0.41541772  0.97304995  0.41518205  1
  O  O263  1  0.40920392  0.98178532  0.74023725  1
  O  O264  1  0.74994416  0.47709167  0.08207130  1
  O  O265  1  0.74263259  0.48783814  0.41122177  1
  O  O266  1  0.74731156  0.50242544  0.74807167  1
  O  O267  1  0.74521120  0.98345591  0.07289949  1
  O  O268  1  0.74765095  0.97802265  0.41056674  1
  O  O269  1  0.74218341  0.98656322  0.74043310  1
  O  O270  1  0.24643228  0.27744158  0.09025109  1
  O  O271  1  0.25025219  0.27067696  0.42560162  1
  O  O272  1  0.24308775  0.27153942  0.76259690  1
  O  O273  1  0.24538490  0.75655820  0.09030483  1
  O  O274  1  0.25434581  0.77613488  0.42144304  1
  O  O275  1  0.24963391  0.77017473  0.74832235  1
  O  O276  1  0.58005669  0.27349158  0.09023813  1
  O  O277  1  0.57268772  0.26389255  0.42790873  1
  O  O278  1  0.57024150  0.26247507  0.76431310  1
  O  O279  1  0.58772920  0.77101446  0.07849296  1
  O  O280  1  0.58720985  0.77670344  0.41283016  1
  O  O281  1  0.58415408  0.77809506  0.74409743  1
  O  O282  1  0.91569667  0.26599460  0.08051450  1
  O  O283  1  0.91336438  0.25534116  0.41441497  1
  O  O284  1  0.92339489  0.25704883  0.74265875  1
  O  O285  1  0.92744694  0.76485884  0.07394291  1
  O  O286  1  0.92001679  0.77252690  0.41239621  1
  O  O287  1  0.91804964  0.77149466  0.74093360  1
  O  O288  1  0.25199948  0.48041483  0.08385291  1
  O  O289  1  0.25523581  0.47889968  0.41860502  1
  O  O290  1  0.24759905  0.48067875  0.75180748  1
  O  O291  1  0.24423847  0.98328316  0.09501158  1
  O  O292  1  0.25044229  0.97226119  0.42719076  1
  O  O293  1  0.24348938  0.97766736  0.75831981  1
  O  O294  1  0.58582016  0.47219470  0.08165523  1
  O  O295  1  0.58137184  0.47999454  0.41491334  1
  O  O296  1  0.57595904  0.48594265  0.75318479  1
  O  O297  1  0.58251665  0.98064648  0.08629938  1
  O  O298  1  0.57913321  0.97755478  0.42414074  1
  O  O299  1  0.57535435  0.97544547  0.75594006  1
  O  O300  1  0.92631506  0.48747678  0.07061143  1
  O  O301  1  0.91944612  0.49697310  0.41203691  1
  O  O302  1  0.92397538  0.49150833  0.74167601  1
  O  O303  1  0.91754604  0.98449695  0.08063519  1
  O  O304  1  0.91798820  0.97809525  0.41591576  1
  O  O305  1  0.91634275  0.97672930  0.74368071  1
  O  O306  1  0.08270787  0.27200802  0.08263431  1
  O  O307  1  0.08991990  0.26467895  0.42305257  1
  O  O308  1  0.08325380  0.27488106  0.75125480  1
  O  O309  1  0.08672353  0.77339331  0.08981102  1
  O  O310  1  0.08463219  0.77722789  0.41882125  1
  O  O311  1  0.08429160  0.77370942  0.75236854  1
  O  O312  1  0.41376681  0.27595674  0.07553950  1
  O  O313  1  0.41449739  0.26953976  0.41173910  1
  O  O314  1  0.40986040  0.26697230  0.74378549  1
  O  O315  1  0.42444783  0.76060338  0.09201343  1
  O  O316  1  0.42086513  0.76935507  0.42337665  1
  O  O317  1  0.41865435  0.76987503  0.74630352  1
  O  O318  1  0.74622936  0.27192072  0.07607005  1
  O  O319  1  0.73967018  0.25811645  0.40202470  1
  O  O320  1  0.74846200  0.24537120  0.74726522  1
  O  O321  1  0.74979761  0.76866082  0.08077026  1
  O  O322  1  0.75000112  0.77385602  0.42295334  1
  O  O323  1  0.74792620  0.77291027  0.74935746  1
  O  O324  1  0.26309388  0.00919115  0.26563982  1
  O  O325  1  0.26340964  0.01188272  0.59796769  1
  O  O326  1  0.26249566  0.01384972  0.92646025  1
  O  O327  1  0.23839179  0.51551247  0.24391432  1
  O  O328  1  0.24529162  0.51534014  0.58179868  1
  O  O329  1  0.24724734  0.50320571  0.91658979  1
  O  O330  1  0.59379716  0.01417172  0.26474124  1
  O  O331  1  0.58773325  0.02205860  0.59335127  1
  O  O332  1  0.58987448  0.02234592  0.92486897  1
  O  O333  1  0.57547277  0.51177713  0.24009060  1
  O  O334  1  0.57597944  0.51704268  0.58046526  1
  O  O335  1  0.57778542  0.51616817  0.91166987  1
  O  O336  1  0.91728166  0.00840826  0.24757670  1
  O  O337  1  0.91942369  0.01144833  0.58468909  1
  O  O338  1  0.91346826  0.01598914  0.90979856  1
  O  O339  1  0.90953713  0.51635489  0.23235170  1
  O  O340  1  0.91867282  0.51545729  0.58289594  1
  O  O341  1  0.91020087  0.52848293  0.90764525  1
  O  O342  1  0.09073387  0.25238731  0.24727578  1
  O  O343  1  0.08014387  0.23972689  0.59244461  1
  O  O344  1  0.08682979  0.24855886  0.91633967  1
  O  O345  1  0.07863105  0.73272083  0.24821709  1
  O  O346  1  0.08240980  0.73294231  0.58664337  1
  O  O347  1  0.07197284  0.73835671  0.92709502  1
  O  O348  1  0.42144199  0.23879715  0.25062714  1
  O  O349  1  0.42366332  0.22429647  0.57897111  1
  O  O350  1  0.42556568  0.23386860  0.90770442  1
  O  O351  1  0.41515902  0.74206584  0.25304435  1
  O  O352  1  0.41343302  0.72325973  0.58768537  1
  O  O353  1  0.41939758  0.73492857  0.91107009  1
  O  O354  1  0.75608310  0.22736287  0.24085851  1
  O  O355  1  0.75124058  0.22913476  0.58022489  1
  O  O356  1  0.75191304  0.22548046  0.91295900  1
  O  O357  1  0.74700809  0.74577929  0.24643336  1
  O  O358  1  0.73539864  0.73566277  0.59245031  1
  O  O359  1  0.74929334  0.73455576  0.90868103  1
