# generated using pymatgen
data_Ba17Sr5La8Pr42Mn72O216
_symmetry_space_group_name_H-M   'P 1'
_cell_length_a   16.67304503
_cell_length_b   15.70059940
_cell_length_c   16.81688487
_cell_angle_alpha   89.99792201
_cell_angle_beta   89.98946101
_cell_angle_gamma   90.02248562
_symmetry_Int_Tables_number   1
_chemical_formula_structural   Ba17Sr5La8Pr42Mn72O216
_chemical_formula_sum   'Ba17 Sr5 La8 Pr42 Mn72 O216'
_cell_volume   4402.26990709
_cell_formula_units_Z   1
loop_
 _symmetry_equiv_pos_site_id
 _symmetry_equiv_pos_as_xyz
  1  'x, y, z'
loop_
 _atom_site_type_symbol
 _atom_site_label
 _atom_site_symmetry_multiplicity
 _atom_site_fract_x
 _atom_site_fract_y
 _atom_site_fract_z
 _atom_site_occupancy
  Ba  Ba0  1  -0.00176621  0.62428676  1.00149038  1
  Ba  Ba1  1  0.66784356  0.12753410  0.99721451  1
  Ba  Ba2  1  0.66800297  0.12536112  0.66382040  1
  Ba  Ba3  1  0.50083761  0.87359915  0.16313194  1
  Ba  Ba4  1  0.16742976  0.37395211  0.16938498  1
  Ba  Ba5  1  0.33117809  0.12603818  0.66686063  1
  Ba  Ba6  1  0.66959435  0.12495932  0.33043407  1
  Ba  Ba7  1  0.66397365  0.62511676  0.66281702  1
  Ba  Ba8  1  0.83482614  0.87515214  0.82983880  1
  Ba  Ba9  1  0.50341418  0.12502674  0.16528866  1
  Ba  Ba10  1  0.16698391  0.12443484  0.17000765  1
  Ba  Ba11  1  0.32945099  0.62565132  0.33745141  1
  Ba  Ba12  1  0.49510291  0.62477536  0.50286573  1
  Ba  Ba13  1  0.49971703  0.87393120  0.83238902  1
  Ba  Ba14  1  0.50264401  0.37667849  0.16357962  1
  Ba  Ba15  1  0.33442565  0.87328475  -0.00008006  1
  Ba  Ba16  1  -0.00414240  0.62655132  0.33375258  1
  Sr  Sr17  1  0.32608658  0.62631222  0.66238358  1
  Sr  Sr18  1  0.16385112  0.12483001  0.50533077  1
  Sr  Sr19  1  0.00134921  0.87679888  0.67283113  1
  Sr  Sr20  1  0.66532627  0.87322399  0.66909990  1
  Sr  Sr21  1  0.16975418  0.37575982  0.83533764  1
  La  La22  1  0.66839753  0.87653109  -0.00188376  1
  La  La23  1  0.00119108  0.12483168  0.33506204  1
  La  La24  1  0.83419142  0.12206496  0.83423683  1
  La  La25  1  0.50143749  0.12510961  0.50178103  1
  La  La26  1  0.33648825  0.87776058  0.33378874  1
  La  La27  1  0.83434869  0.37457658  0.49480840  1
  La  La28  1  0.00286370  0.12713893  1.00150165  1
  La  La29  1  0.83589622  0.37600835  0.83016856  1
  Pr  Pr30  1  0.49006564  0.62568610  0.82905235  1
  Pr  Pr31  1  0.48875010  0.62510712  0.16996772  1
  Pr  Pr32  1  0.16796831  0.12453691  0.84105247  1
  Pr  Pr33  1  0.83523897  0.87515478  0.16359226  1
  Pr  Pr34  1  0.00741883  0.37448933  0.33854357  1
  Pr  Pr35  1  0.66464799  0.37269751  0.33173281  1
  Pr  Pr36  1  -0.00020391  0.12340322  0.66938360  1
  Pr  Pr37  1  0.82812598  0.62992096  0.83328418  1
  Pr  Pr38  1  0.17522931  0.37321007  0.49902795  1
  Pr  Pr39  1  0.83685050  0.12461953  0.50218048  1
  Pr  Pr40  1  0.33695543  0.37471346  0.00416520  1
  Pr  Pr41  1  0.83746735  0.37441280  0.16519170  1
  Pr  Pr42  1  0.00520141  0.37350007  0.66958258  1
  Pr  Pr43  1  0.67648064  0.37622645  0.00051357  1
  Pr  Pr44  1  0.50212564  0.87580117  0.50242189  1
  Pr  Pr45  1  0.00134544  0.87633536  0.00323402  1
  Pr  Pr46  1  0.16845669  0.87129905  0.16780297  1
  Pr  Pr47  1  0.82510237  0.62647595  0.16739131  1
  Pr  Pr48  1  0.16255318  0.62347385  0.83465184  1
  Pr  Pr49  1  0.00591980  0.37446652  0.00555019  1
  Pr  Pr50  1  0.82875904  0.62576715  0.50124157  1
  Pr  Pr51  1  0.33845047  0.12621938  0.99844117  1
  Pr  Pr52  1  0.66378157  0.37755674  0.66226381  1
  Pr  Pr53  1  0.16761397  0.87253614  0.83111140  1
  Pr  Pr54  1  0.15925106  0.62476918  0.50706865  1
  Pr  Pr55  1  0.66146480  0.62325934  0.99256491  1
  Pr  Pr56  1  0.17283182  0.87705988  0.50446605  1
  Pr  Pr57  1  0.83119606  0.87602039  0.50172633  1
  Pr  Pr58  1  0.16216554  0.62710924  0.17306102  1
  Pr  Pr59  1  0.50381387  0.37462640  0.83167640  1
  Pr  Pr60  1  0.33776823  0.37178775  0.33388417  1
  Pr  Pr61  1  0.33504980  0.12588608  0.33069712  1
  Pr  Pr62  1  0.50153491  0.37433929  0.49722630  1
  Pr  Pr63  1  -0.00684386  0.62631697  0.66549588  1
  Pr  Pr64  1  0.50168945  0.12173418  0.83719275  1
  Pr  Pr65  1  0.33633229  0.37720491  0.66942009  1
  Pr  Pr66  1  0.65984119  0.62477073  0.32967890  1
  Pr  Pr67  1  0.32767235  0.62380879  1.00207649  1
  Pr  Pr68  1  0.83472704  0.12355153  0.16861729  1
  Pr  Pr69  1  0.66539019  0.87705533  0.33252762  1
  Pr  Pr70  1  0.00336185  0.87736316  0.34057729  1
  Pr  Pr71  1  0.33543355  0.87186492  0.67393486  1
  Mn  Mn72  1  -0.00007342  -0.00141821  0.17036535  1
  Mn  Mn73  1  0.00019293  -0.00147726  0.50456057  1
  Mn  Mn74  1  0.00248840  0.00106751  0.83568670  1
  Mn  Mn75  1  -0.00133739  0.49982940  0.16856455  1
  Mn  Mn76  1  -0.00059435  0.49972593  0.50276427  1
  Mn  Mn77  1  0.00016770  0.49820654  0.83320523  1
  Mn  Mn78  1  0.33269825  0.00101020  0.16720162  1
  Mn  Mn79  1  0.33300364  0.00011545  0.50160716  1
  Mn  Mn80  1  0.33194662  0.00054471  0.83280007  1
  Mn  Mn81  1  0.33069809  0.49981838  0.16708198  1
  Mn  Mn82  1  0.33055630  0.49916616  0.50255796  1
  Mn  Mn83  1  0.33176186  0.50026893  0.83407861  1
  Mn  Mn84  1  0.66972226  -0.00153410  0.16540076  1
  Mn  Mn85  1  0.66748150  -0.00100324  0.49886721  1
  Mn  Mn86  1  0.66719258  0.00056954  0.83019021  1
  Mn  Mn87  1  0.66818950  0.50138666  0.16257354  1
  Mn  Mn88  1  0.66801010  0.49835796  0.49546863  1
  Mn  Mn89  1  0.66621128  0.49860326  0.83101158  1
  Mn  Mn90  1  -0.00026440  0.24887277  0.16923455  1
  Mn  Mn91  1  0.00133809  0.24941031  0.50376184  1
  Mn  Mn92  1  0.00195653  0.25175584  0.83517909  1
  Mn  Mn93  1  -0.00180938  0.75153107  0.16886714  1
  Mn  Mn94  1  -0.00188939  0.75256746  0.50312846  1
  Mn  Mn95  1  0.00023894  0.74855209  0.83319497  1
  Mn  Mn96  1  0.33443086  0.24989128  0.16659762  1
  Mn  Mn97  1  0.33346609  0.24861636  0.50068231  1
  Mn  Mn98  1  0.33272207  0.25234445  0.83366324  1
  Mn  Mn99  1  0.33024847  0.74903338  0.16769581  1
  Mn  Mn100  1  0.33049431  0.75251932  0.50320177  1
  Mn  Mn101  1  0.33072421  0.74565881  0.83272383  1
  Mn  Mn102  1  0.67082673  0.25250778  0.16446459  1
  Mn  Mn103  1  0.66861287  0.25013325  0.49722250  1
  Mn  Mn104  1  0.66743581  0.25346931  0.82944284  1
  Mn  Mn105  1  0.66798488  0.74762535  0.16323655  1
  Mn  Mn106  1  0.66695068  0.75302038  0.49723077  1
  Mn  Mn107  1  0.66483779  0.74755899  0.83119919  1
  Mn  Mn108  1  0.16856498  0.25019128  0.00051964  1
  Mn  Mn109  1  0.16822379  0.24900176  0.33825211  1
  Mn  Mn110  1  0.16575748  0.25083412  0.66917274  1
  Mn  Mn111  1  0.16497067  0.74948528  0.00088339  1
  Mn  Mn112  1  0.16544062  0.75295870  0.33729798  1
  Mn  Mn113  1  0.16328616  0.75015167  0.66815020  1
  Mn  Mn114  1  0.50067118  0.25230260  -0.00425927  1
  Mn  Mn115  1  0.50081056  0.25108195  0.33362835  1
  Mn  Mn116  1  0.49959699  0.25141908  0.66563567  1
  Mn  Mn117  1  0.50151593  0.74547139  -0.00090280  1
  Mn  Mn118  1  0.49932088  0.75013329  0.33278194  1
  Mn  Mn119  1  0.49743788  0.74960832  0.66561329  1
  Mn  Mn120  1  0.83714119  0.25106393  -0.00208551  1
  Mn  Mn121  1  0.83682891  0.25076141  0.33141766  1
  Mn  Mn122  1  0.83543646  0.25239876  0.66480447  1
  Mn  Mn123  1  0.83362863  0.74979166  0.00002027  1
  Mn  Mn124  1  0.83124378  0.75128239  0.33244181  1
  Mn  Mn125  1  0.83332605  0.74981558  0.66567074  1
  Mn  Mn126  1  0.16717023  -0.00072114  0.00238698  1
  Mn  Mn127  1  0.16796760  -0.00023471  0.33781707  1
  Mn  Mn128  1  0.16566340  0.00114293  0.66954260  1
  Mn  Mn129  1  0.16645629  0.49985395  0.00077034  1
  Mn  Mn130  1  0.16588698  0.49944001  0.33698285  1
  Mn  Mn131  1  0.16437850  0.49752117  0.66834097  1
  Mn  Mn132  1  0.50109754  -0.00011219  -0.00142990  1
  Mn  Mn133  1  0.50048327  -0.00228919  0.33455333  1
  Mn  Mn134  1  0.49948519  0.00182127  0.66649407  1
  Mn  Mn135  1  0.49998947  0.50275012  -0.00300655  1
  Mn  Mn136  1  0.49895330  0.50075515  0.33200757  1
  Mn  Mn137  1  0.49643677  0.49789138  0.66526073  1
  Mn  Mn138  1  0.83543309  -0.00019424  -0.00014234  1
  Mn  Mn139  1  0.83505872  -0.00215544  0.33274642  1
  Mn  Mn140  1  0.83465094  0.00083396  0.66630485  1
  Mn  Mn141  1  0.83488130  0.50012620  -0.00165448  1
  Mn  Mn142  1  0.83288912  0.49974267  0.33048806  1
  Mn  Mn143  1  0.83499633  0.49687394  0.66392738  1
  O  O144  1  0.16733699  0.12467401  0.01381055  1
  O  O145  1  0.16950628  0.12334006  0.35632936  1
  O  O146  1  0.16043026  0.12790322  0.69639476  1
  O  O147  1  0.17164704  0.62436343  0.02812588  1
  O  O148  1  0.16382197  0.62733536  0.36217409  1
  O  O149  1  0.16309224  0.62206747  0.68988684  1
  O  O150  1  0.49656542  0.12813037  0.00509003  1
  O  O151  1  0.49483412  0.12449008  0.35752139  1
  O  O152  1  0.50035125  0.13057895  0.69055170  1
  O  O153  1  0.51328640  0.62293782  0.02574000  1
  O  O154  1  0.50723356  0.62519728  0.34524107  1
  O  O155  1  0.49599268  0.61912322  0.68314641  1
  O  O156  1  0.83997667  0.12632058  0.02471288  1
  O  O157  1  0.83890954  0.12498489  0.35943131  1
  O  O158  1  0.83738972  0.13095507  0.68984896  1
  O  O159  1  0.82762717  0.62303597  0.02341080  1
  O  O160  1  0.82590327  0.62845117  0.35904649  1
  O  O161  1  0.83774518  0.61825077  0.68900566  1
  O  O162  1  0.16197219  0.37360261  0.32658721  1
  O  O163  1  0.15872153  0.37375964  0.64211327  1
  O  O164  1  0.16341804  0.37515809  0.98449887  1
  O  O165  1  0.16283087  0.87715077  0.31257620  1
  O  O166  1  0.16645688  0.87585947  0.64819852  1
  O  O167  1  0.15954731  0.87519512  0.97563906  1
  O  O168  1  0.49744722  0.37774176  0.32190406  1
  O  O169  1  0.49038031  0.37376148  0.64189110  1
  O  O170  1  0.48900203  0.37971999  0.97505491  1
  O  O171  1  0.49981007  0.87210235  0.32056252  1
  O  O172  1  0.49150493  0.87792448  0.64859874  1
  O  O173  1  0.50576767  0.86947567  0.98980495  1
  O  O174  1  0.84323386  0.37268959  0.30889711  1
  O  O175  1  0.84370523  0.37451801  0.63801981  1
  O  O176  1  0.83684898  0.37574167  0.97395294  1
  O  O177  1  0.83646251  0.87385824  0.30685934  1
  O  O178  1  0.83708119  0.87588588  0.64684379  1
  O  O179  1  0.83805531  0.87518211  0.98647254  1
  O  O180  1  -0.00873026  0.37282062  0.19253397  1
  O  O181  1  -0.00561931  0.37492092  0.52658287  1
  O  O182  1  -0.00787118  0.37477778  0.86305169  1
  O  O183  1  -0.00757871  0.87595853  0.19569891  1
  O  O184  1  -0.00886835  0.87567603  0.52515974  1
  O  O185  1  0.00521380  0.87810982  0.85887997  1
  O  O186  1  0.33466191  0.37626634  0.18684474  1
  O  O187  1  0.33108733  0.37278646  0.52453279  1
  O  O188  1  0.33597058  0.37799956  0.86182077  1
  O  O189  1  0.32696850  0.87449023  0.18620723  1
  O  O190  1  0.32862930  0.87808195  0.52909783  1
  O  O191  1  0.32439695  0.87179533  0.84398138  1
  O  O192  1  0.67588456  0.37973990  0.18809559  1
  O  O193  1  0.67023504  0.37374555  0.51692224  1
  O  O194  1  0.66380630  0.37679500  0.85716156  1
  O  O195  1  0.67489669  0.86946371  0.18785800  1
  O  O196  1  0.66916177  0.87652339  0.51823767  1
  O  O197  1  0.66612568  0.86959538  0.85255967  1
  O  O198  1  -0.00488134  0.12274896  0.14523260  1
  O  O199  1  -0.00340255  0.12274091  0.47699691  1
  O  O200  1  0.00610785  0.12861994  0.81294193  1
  O  O201  1  0.00809699  0.62779208  0.15772905  1
  O  O202  1  0.00469895  0.62677790  0.48799293  1
  O  O203  1  0.00742562  0.61896557  0.80944146  1
  O  O204  1  0.33227866  0.12599501  0.14769376  1
  O  O205  1  0.33705214  0.12394879  0.47399874  1
  O  O206  1  0.32908559  0.12774655  0.82175359  1
  O  O207  1  0.32524150  0.62375932  0.14886306  1
  O  O208  1  0.32157658  0.62561568  0.49296775  1
  O  O209  1  0.33083377  0.62120923  0.81030007  1
  O  O210  1  0.67772358  0.12609831  0.15523268  1
  O  O211  1  0.66586681  0.12510435  0.48648772  1
  O  O212  1  0.66750348  0.13285857  0.82060159  1
  O  O213  1  0.67757257  0.62355079  0.13543139  1
  O  O214  1  0.67500144  0.62507613  0.47533132  1
  O  O215  1  0.67849830  0.61964754  0.81971175  1
  O  O216  1  0.07796093  0.01222805  0.26161885  1
  O  O217  1  0.07880039  0.01867438  0.59351139  1
  O  O218  1  0.08284224  0.02213395  0.92115336  1
  O  O219  1  0.07828331  0.50688617  0.25842198  1
  O  O220  1  0.07409709  0.51840113  0.59321505  1
  O  O221  1  0.08533332  0.51370217  0.91590330  1
  O  O222  1  0.41353275  0.01291986  0.25785618  1
  O  O223  1  0.42167531  0.01718271  0.57573295  1
  O  O224  1  0.41608529  0.01780088  0.91222405  1
  O  O225  1  0.41425099  0.51467706  0.24874420  1
  O  O226  1  0.40166112  0.50760330  0.59425724  1
  O  O227  1  0.41164155  0.52834317  0.92234366  1
  O  O228  1  0.76165687  0.01003204  0.24092618  1
  O  O229  1  0.76011409  0.01183961  0.56992356  1
  O  O230  1  0.75652332  0.01330605  0.91104138  1
  O  O231  1  0.74166834  0.52367373  0.25117101  1
  O  O232  1  0.75400261  0.50989812  0.57555206  1
  O  O233  1  0.74416050  0.51183031  0.92537247  1
  O  O234  1  0.25458565  0.23904588  0.25946227  1
  O  O235  1  0.24448232  0.24057502  0.57852739  1
  O  O236  1  0.24962704  0.23301390  0.91584838  1
  O  O237  1  0.24026930  0.73787089  0.24626867  1
  O  O238  1  0.23499905  0.73858640  0.57618043  1
  O  O239  1  0.24773852  0.72579505  0.91451984  1
  O  O240  1  0.58812655  0.24892063  0.25324544  1
  O  O241  1  0.58111838  0.24454495  0.57897269  1
  O  O242  1  0.57359998  0.24245519  0.90280392  1
  O  O243  1  0.58200760  0.72581636  0.23631815  1
  O  O244  1  0.57796840  0.74882655  0.57514783  1
  O  O245  1  0.57793708  0.72263728  0.90921618  1
  O  O246  1  0.91839306  0.22328513  0.25177066  1
  O  O247  1  0.91886704  0.22516092  0.58431661  1
  O  O248  1  0.92085898  0.22584668  0.91812545  1
  O  O249  1  0.90253462  0.73429337  0.23927973  1
  O  O250  1  0.91181301  0.72719117  0.57879446  1
  O  O251  1  0.90924074  0.73141166  0.90876273  1
  O  O252  1  0.08265895  0.48586462  0.08416578  1
  O  O253  1  0.08865438  0.47986120  0.42932007  1
  O  O254  1  0.08479135  0.47631792  0.75306346  1
  O  O255  1  0.08002411  0.97571768  0.08773184  1
  O  O256  1  0.08445832  0.97758146  0.42479000  1
  O  O257  1  0.08927526  0.98308526  0.76025961  1
  O  O258  1  0.41878164  0.49574637  0.08118136  1
  O  O259  1  0.41788260  0.48087914  0.42505144  1
  O  O260  1  0.42140708  0.47923962  0.75907042  1
  O  O261  1  0.41327784  0.99736562  0.07963151  1
  O  O262  1  0.41594565  0.97648327  0.41965438  1
  O  O263  1  0.40984687  0.98795660  0.74457985  1
  O  O264  1  0.75961175  0.47665607  0.08766870  1
  O  O265  1  0.75398593  0.47524239  0.41225272  1
  O  O266  1  0.75368291  0.47343909  0.74593822  1
  O  O267  1  0.75251898  0.97907972  0.08106959  1
  O  O268  1  0.74926822  0.97730935  0.40969257  1
  O  O269  1  0.75053423  0.99268902  0.74420528  1
  O  O270  1  0.25570810  0.26397955  0.07609526  1
  O  O271  1  0.25499138  0.27096238  0.41630813  1
  O  O272  1  0.25319764  0.27286561  0.74783869  1
  O  O273  1  0.24365103  0.76435374  0.08717650  1
  O  O274  1  0.25268084  0.77753534  0.41612762  1
  O  O275  1  0.24841322  0.76637068  0.74622235  1
  O  O276  1  0.59002298  0.26884986  0.07041476  1
  O  O277  1  0.58266329  0.27112198  0.41717231  1
  O  O278  1  0.58494845  0.27879503  0.74352750  1
  O  O279  1  0.60023340  0.76223676  0.06978063  1
  O  O280  1  0.59177995  0.76740853  0.40851539  1
  O  O281  1  0.58315772  0.75403571  0.74720217  1
  O  O282  1  0.91645807  0.27251146  0.08188610  1
  O  O283  1  0.91954988  0.26933033  0.41646748  1
  O  O284  1  0.91821962  0.27091193  0.75300085  1
  O  O285  1  0.92228341  0.76993311  0.07976407  1
  O  O286  1  0.91814371  0.77185233  0.41451489  1
  O  O287  1  0.92290596  0.75359051  0.74378248  1
  O  O288  1  0.25930081  0.48478261  0.07256834  1
  O  O289  1  0.25640673  0.47558883  0.41292574  1
  O  O290  1  0.25411790  0.47897922  0.74212856  1
  O  O291  1  0.24195801  0.98213689  0.09047256  1
  O  O292  1  0.25165260  0.97549287  0.41843536  1
  O  O293  1  0.24767783  0.98058465  0.75092791  1
  O  O294  1  0.59795489  0.48293881  0.06611598  1
  O  O295  1  0.59126234  0.48180747  0.40835206  1
  O  O296  1  0.58420436  0.47602162  0.74237084  1
  O  O297  1  0.59165862  0.98764392  0.07902610  1
  O  O298  1  0.58244317  0.97818123  0.41837163  1
  O  O299  1  0.58183174  0.99342283  0.74744491  1
  O  O300  1  0.92117354  0.47796559  0.07518950  1
  O  O301  1  0.92278571  0.48008638  0.41496384  1
  O  O302  1  0.92204947  0.47708857  0.74286941  1
  O  O303  1  0.91744197  0.97991358  0.08615120  1
  O  O304  1  0.91541639  0.97770777  0.41716675  1
  O  O305  1  0.92270853  0.99728451  0.74971680  1
  O  O306  1  0.07781837  0.26074931  0.07961827  1
  O  O307  1  0.08561910  0.26885906  0.42629918  1
  O  O308  1  0.08107866  0.27300004  0.75336967  1
  O  O309  1  0.08234854  0.77431741  0.08755491  1
  O  O310  1  0.08536882  0.77597627  0.42587473  1
  O  O311  1  0.08920705  0.76697452  0.75679464  1
  O  O312  1  0.41496926  0.26285635  0.07537323  1
  O  O313  1  0.41703356  0.27104534  0.41775581  1
  O  O314  1  0.41740856  0.27440326  0.75236157  1
  O  O315  1  0.41798572  0.74472482  0.08374000  1
  O  O316  1  0.41668404  0.77087545  0.42554162  1
  O  O317  1  0.41261889  0.75794157  0.75126024  1
  O  O318  1  0.75440188  0.27377762  0.07732706  1
  O  O319  1  0.75027814  0.27239641  0.40698002  1
  O  O320  1  0.74960779  0.27773453  0.74157691  1
  O  O321  1  0.75976709  0.76826739  0.09136722  1
  O  O322  1  0.75341859  0.77782054  0.41523947  1
  O  O323  1  0.75182648  0.75633337  0.74898151  1
  O  O324  1  0.25582800  0.01255619  0.25973011  1
  O  O325  1  0.24364700  0.01224940  0.57986751  1
  O  O326  1  0.25063709  0.01844429  0.91803792  1
  O  O327  1  0.23873705  0.51631170  0.24490932  1
  O  O328  1  0.23383761  0.50952051  0.57298330  1
  O  O329  1  0.24575901  0.52261851  0.91298915  1
  O  O330  1  0.58980034  0.00169414  0.25275067  1
  O  O331  1  0.57877535  0.01051244  0.57724994  1
  O  O332  1  0.58146776  0.01211554  0.91134897  1
  O  O333  1  0.58190434  0.52198915  0.23726746  1
  O  O334  1  0.57918112  0.49855979  0.57639235  1
  O  O335  1  0.57136575  0.51958921  0.90503802  1
  O  O336  1  0.91874110  0.02323380  0.25326297  1
  O  O337  1  0.91705043  0.02501110  0.58375460  1
  O  O338  1  0.92105687  0.02214075  0.91974273  1
  O  O339  1  0.90215719  0.51668296  0.23808797  1
  O  O340  1  0.91258761  0.52372645  0.57848685  1
  O  O341  1  0.90444948  0.51864889  0.90314781  1
  O  O342  1  0.07849495  0.23772082  0.26375095  1
  O  O343  1  0.07727405  0.23094168  0.59237083  1
  O  O344  1  0.08510508  0.23189492  0.91700474  1
  O  O345  1  0.08228952  0.74274181  0.25139772  1
  O  O346  1  0.07661024  0.73059269  0.59181629  1
  O  O347  1  0.08685953  0.73287513  0.91568538  1
  O  O348  1  0.41412864  0.23626016  0.25749845  1
  O  O349  1  0.42067843  0.23407126  0.57653640  1
  O  O350  1  0.41395518  0.23195163  0.91469897  1
  O  O351  1  0.41375930  0.73693019  0.24855402  1
  O  O352  1  0.40466653  0.74391910  0.59021897  1
  O  O353  1  0.41393855  0.72408076  0.91841104  1
  O  O354  1  0.76380447  0.24027376  0.24092685  1
  O  O355  1  0.75999426  0.23927748  0.56958094  1
  O  O356  1  0.76025116  0.24228473  0.90670345  1
  O  O357  1  0.74142040  0.72661296  0.25378975  1
  O  O358  1  0.75437434  0.73792590  0.57469361  1
  O  O359  1  0.74392446  0.73299855  0.92245645  1
