# generated using pymatgen
data_Ba17Sr5La8Pr42Mn72O216
_symmetry_space_group_name_H-M   'P 1'
_cell_length_a   16.67302382
_cell_length_b   15.70090313
_cell_length_c   16.81340294
_cell_angle_alpha   89.99337535
_cell_angle_beta   89.97817402
_cell_angle_gamma   89.99213676
_symmetry_Int_Tables_number   1
_chemical_formula_structural   Ba17Sr5La8Pr42Mn72O216
_chemical_formula_sum   'Ba17 Sr5 La8 Pr42 Mn72 O216'
_cell_volume   4401.43798764
_cell_formula_units_Z   1
loop_
 _symmetry_equiv_pos_site_id
 _symmetry_equiv_pos_as_xyz
  1  'x, y, z'
loop_
 _atom_site_type_symbol
 _atom_site_label
 _atom_site_symmetry_multiplicity
 _atom_site_fract_x
 _atom_site_fract_y
 _atom_site_fract_z
 _atom_site_occupancy
  Ba  Ba0  1  0.49658780  0.12644466  0.16815418  1
  Ba  Ba1  1  0.83325522  0.12472799  0.16770958  1
  Ba  Ba2  1  0.83279635  0.12457592  0.50089585  1
  Ba  Ba3  1  0.16640024  0.87438008  0.82985974  1
  Ba  Ba4  1  0.33247242  0.37549393  0.67148760  1
  Ba  Ba5  1  0.49856428  0.62371254  0.16797441  1
  Ba  Ba6  1  0.66992222  0.37687952  0.67015237  1
  Ba  Ba7  1  -0.00108790  0.12592175  0.66323963  1
  Ba  Ba8  1  0.50494773  0.87342385  0.50250670  1
  Ba  Ba9  1  0.16941718  0.87391935  0.16333020  1
  Ba  Ba10  1  0.33038301  0.37395954  0.00297501  1
  Ba  Ba11  1  0.33651818  0.87372496  0.66829666  1
  Ba  Ba12  1  -0.00136155  0.62506992  0.99569928  1
  Ba  Ba13  1  0.66312562  0.12490169  1.00197325  1
  Ba  Ba14  1  0.16685530  0.12496943  0.49681729  1
  Ba  Ba15  1  -0.00134566  0.12551051  0.99701004  1
  Ba  Ba16  1  0.16839311  0.87479181  0.49589602  1
  Sr  Sr17  1  0.50259374  0.87709315  0.82974918  1
  Sr  Sr18  1  0.33024715  0.12425162  1.00250911  1
  Sr  Sr19  1  0.33424960  0.62633532  0.66943066  1
  Sr  Sr20  1  0.83267612  0.37504095  0.83400849  1
  Sr  Sr21  1  0.83413319  0.62655813  0.16868768  1
  La  La22  1  0.66961198  0.87524010  0.00007191  1
  La  La23  1  0.66370943  0.62317753  0.66815227  1
  La  La24  1  0.17284903  0.62540351  0.49993004  1
  La  La25  1  0.83162835  0.37342528  0.50208498  1
  La  La26  1  0.49268772  0.62253329  0.83682486  1
  La  La27  1  0.67224032  0.87401557  0.67104045  1
  La  La28  1  0.16414665  0.37489226  0.49600265  1
  La  La29  1  0.16141442  0.37542127  0.16127707  1
  Pr  Pr30  1  0.66528998  0.37485746  0.00250161  1
  Pr  Pr31  1  0.83822423  0.87542775  0.50169182  1
  Pr  Pr32  1  0.00484057  0.87957370  0.66400702  1
  Pr  Pr33  1  0.17383065  0.62502159  0.83124519  1
  Pr  Pr34  1  0.32946799  0.12168222  0.66775646  1
  Pr  Pr35  1  0.66710662  0.37421791  0.33563187  1
  Pr  Pr36  1  0.15942863  0.37532803  0.82905892  1
  Pr  Pr37  1  0.00295584  0.62576986  0.66275784  1
  Pr  Pr38  1  0.00142132  0.87568423  0.00104348  1
  Pr  Pr39  1  0.00497851  0.12194677  0.32492740  1
  Pr  Pr40  1  0.17139472  0.12480542  0.83238248  1
  Pr  Pr41  1  0.49620824  0.62435823  0.50479799  1
  Pr  Pr42  1  0.82967927  0.12908683  0.84007522  1
  Pr  Pr43  1  0.84052910  0.87481250  0.83452503  1
  Pr  Pr44  1  0.82726460  0.62266511  0.83814288  1
  Pr  Pr45  1  -0.00445889  0.37204287  0.66384242  1
  Pr  Pr46  1  0.16900899  0.12811622  0.16699608  1
  Pr  Pr47  1  0.33406433  0.62838532  0.33440511  1
  Pr  Pr48  1  0.32866767  0.62689599  0.99902384  1
  Pr  Pr49  1  0.66066292  0.62537893  0.99886691  1
  Pr  Pr50  1  0.49787586  0.12603953  0.50293624  1
  Pr  Pr51  1  0.66221221  0.12282583  0.32701255  1
  Pr  Pr52  1  0.32864751  0.12107110  0.33121770  1
  Pr  Pr53  1  0.50365040  0.37117593  0.83297173  1
  Pr  Pr54  1  0.00763724  0.62711203  0.32364095  1
  Pr  Pr55  1  0.33713811  0.37453121  0.33902024  1
  Pr  Pr56  1  -0.00460080  0.87508048  0.33134190  1
  Pr  Pr57  1  -0.00833073  0.37549209  -0.00121172  1
  Pr  Pr58  1  0.49017623  0.12661532  0.84091731  1
  Pr  Pr59  1  0.50256576  0.37564434  0.16553921  1
  Pr  Pr60  1  0.82976663  0.37676021  0.16210881  1
  Pr  Pr61  1  0.33919789  0.87557521  0.34163905  1
  Pr  Pr62  1  -0.00950816  0.37682957  0.33179245  1
  Pr  Pr63  1  0.83402346  0.62419383  0.50409464  1
  Pr  Pr64  1  0.66529909  0.62638258  0.33032769  1
  Pr  Pr65  1  0.50457379  0.87564976  0.16726793  1
  Pr  Pr66  1  0.16985503  0.62256146  0.16476819  1
  Pr  Pr67  1  0.33954316  0.87612987  0.00121344  1
  Pr  Pr68  1  0.67561045  0.87367842  0.33547665  1
  Pr  Pr69  1  0.83697993  0.87453536  0.16277161  1
  Pr  Pr70  1  0.66523863  0.12606681  0.66821670  1
  Pr  Pr71  1  0.50489180  0.37855541  0.50298875  1
  Mn  Mn72  1  0.00151668  -0.00107172  0.16407773  1
  Mn  Mn73  1  0.00022827  -0.00169339  0.49661007  1
  Mn  Mn74  1  -0.00126526  0.00091544  0.83117878  1
  Mn  Mn75  1  -0.00125075  0.50126067  0.16493700  1
  Mn  Mn76  1  -0.00066781  0.50228974  0.49507431  1
  Mn  Mn77  1  -0.00225777  0.50040720  0.82863466  1
  Mn  Mn78  1  0.33415535  -0.00147493  0.16776173  1
  Mn  Mn79  1  0.33641221  0.00239494  0.50044382  1
  Mn  Mn80  1  0.33397530  0.00046482  0.83521415  1
  Mn  Mn81  1  0.33199705  0.49971264  0.17063279  1
  Mn  Mn82  1  0.33411382  0.49809615  0.50240491  1
  Mn  Mn83  1  0.33150874  0.49829878  0.83670445  1
  Mn  Mn84  1  0.66653539  -0.00270922  0.16866867  1
  Mn  Mn85  1  0.66768042  0.00018932  0.50094264  1
  Mn  Mn86  1  0.66666078  -0.00102138  0.83312606  1
  Mn  Mn87  1  0.66780198  0.50188755  0.16840789  1
  Mn  Mn88  1  0.66853203  0.50107938  0.49920349  1
  Mn  Mn89  1  0.66488892  0.50114771  0.83574983  1
  Mn  Mn90  1  -0.00035787  0.25244261  0.16535184  1
  Mn  Mn91  1  -0.00055328  0.25331656  0.49559895  1
  Mn  Mn92  1  -0.00215906  0.25132771  0.83071031  1
  Mn  Mn93  1  0.00076388  0.74869936  0.16401362  1
  Mn  Mn94  1  -0.00017036  0.74686547  0.49503220  1
  Mn  Mn95  1  -0.00189273  0.74852135  0.82877131  1
  Mn  Mn96  1  0.33200780  0.25122780  0.17125025  1
  Mn  Mn97  1  0.33478192  0.25141709  0.50285179  1
  Mn  Mn98  1  0.33066341  0.25172585  0.83638141  1
  Mn  Mn99  1  0.33520710  0.75025965  0.16775480  1
  Mn  Mn100  1  0.33605429  0.74805735  0.50086905  1
  Mn  Mn101  1  0.33473703  0.74946533  0.83477046  1
  Mn  Mn102  1  0.66606307  0.25155669  0.17011901  1
  Mn  Mn103  1  0.66614962  0.25017234  0.49982311  1
  Mn  Mn104  1  0.66637453  0.24974912  0.83446035  1
  Mn  Mn105  1  0.66844039  0.74945296  0.16722506  1
  Mn  Mn106  1  0.66993343  0.74745375  0.50093470  1
  Mn  Mn107  1  0.66545492  0.74957953  0.83456807  1
  Mn  Mn108  1  0.16375138  0.24975545  -0.00257720  1
  Mn  Mn109  1  0.16702909  0.25394070  0.32949652  1
  Mn  Mn110  1  0.16605280  0.25164337  0.66434119  1
  Mn  Mn111  1  0.16697834  0.75049689  -0.00319396  1
  Mn  Mn112  1  0.16892872  0.74924488  0.33004260  1
  Mn  Mn113  1  0.16633375  0.74760215  0.66456165  1
  Mn  Mn114  1  0.49802049  0.25098961  0.00106654  1
  Mn  Mn115  1  0.50014334  0.25255899  0.33764188  1
  Mn  Mn116  1  0.50095611  0.24827142  0.66961205  1
  Mn  Mn117  1  0.49953510  0.75167862  0.00012746  1
  Mn  Mn118  1  0.50240766  0.74876929  0.33447977  1
  Mn  Mn119  1  0.50276650  0.74845691  0.66962667  1
  Mn  Mn120  1  0.83058527  0.25215843  -0.00031342  1
  Mn  Mn121  1  0.83332130  0.25096279  0.33370869  1
  Mn  Mn122  1  0.83235481  0.25020781  0.66876989  1
  Mn  Mn123  1  0.83097195  0.74833847  0.00025692  1
  Mn  Mn124  1  0.83472444  0.74746695  0.33483067  1
  Mn  Mn125  1  0.83513197  0.74796287  0.66902567  1
  Mn  Mn126  1  0.16770513  0.00038548  -0.00241871  1
  Mn  Mn127  1  0.16747198  -0.00144044  0.32881281  1
  Mn  Mn128  1  0.16694019  0.00024192  0.66501062  1
  Mn  Mn129  1  0.16365265  0.49951259  -0.00289356  1
  Mn  Mn130  1  0.16837098  0.49911451  0.33030794  1
  Mn  Mn131  1  0.16490297  0.50083360  0.66371409  1
  Mn  Mn132  1  0.49915484  -0.00137345  -0.00120362  1
  Mn  Mn133  1  0.50170042  -0.00082604  0.33526508  1
  Mn  Mn134  1  0.50344937  0.00254182  0.66980149  1
  Mn  Mn135  1  0.49851554  0.49980483  0.00214065  1
  Mn  Mn136  1  0.50036649  0.49911106  0.33570565  1
  Mn  Mn137  1  0.50007513  0.49952314  0.66987640  1
  Mn  Mn138  1  0.83179968  -0.00124963  -0.00151823  1
  Mn  Mn139  1  0.83399025  -0.00095996  0.33459620  1
  Mn  Mn140  1  0.83251360  -0.00226493  0.66905573  1
  Mn  Mn141  1  0.82971255  0.50130833  0.00050934  1
  Mn  Mn142  1  0.83300800  0.50206472  0.33371219  1
  Mn  Mn143  1  0.83569267  0.50292928  0.66914127  1
  O  O144  1  0.16568585  0.12534273  0.02347167  1
  O  O145  1  0.15622420  0.12798385  0.33993372  1
  O  O146  1  0.16886704  0.12795706  0.68465564  1
  O  O147  1  0.17051617  0.62483021  0.02162970  1
  O  O148  1  0.15871077  0.62171120  0.35496072  1
  O  O149  1  0.15689881  0.62265174  0.68621353  1
  O  O150  1  0.49627047  0.12431208  0.01041791  1
  O  O151  1  0.51049999  0.12953460  0.35706301  1
  O  O152  1  0.51165225  0.12638052  0.69528595  1
  O  O153  1  0.50112796  0.62513811  0.01381208  1
  O  O154  1  0.50573567  0.62173856  0.35913585  1
  O  O155  1  0.50607583  0.62325989  0.69033600  1
  O  O156  1  0.83231475  0.12714912  0.00675170  1
  O  O157  1  0.83481257  0.12187300  0.34451444  1
  O  O158  1  0.82963332  0.11935679  0.69278506  1
  O  O159  1  0.82491688  0.62516065  0.01957178  1
  O  O160  1  0.83049785  0.62457396  0.36166593  1
  O  O161  1  0.84447249  0.62653349  0.69535370  1
  O  O162  1  0.18138278  0.37857920  0.30468705  1
  O  O163  1  0.16396721  0.37897780  0.64097593  1
  O  O164  1  0.16077942  0.37533935  0.97341351  1
  O  O165  1  0.18207486  0.87208174  0.32067992  1
  O  O166  1  0.16133933  0.87068651  0.65462751  1
  O  O167  1  0.16836772  0.87571641  0.98519762  1
  O  O168  1  0.49735595  0.37694804  0.30934281  1
  O  O169  1  0.50079576  0.37362730  0.64665575  1
  O  O170  1  0.50674079  0.37760331  0.97801463  1
  O  O171  1  0.49287183  0.87105375  0.31407759  1
  O  O172  1  0.50747546  0.87549727  0.65939842  1
  O  O173  1  0.49566214  0.87383597  0.97894644  1
  O  O174  1  0.83342088  0.38045994  0.30572616  1
  O  O175  1  0.83659249  0.38217671  0.64447442  1
  O  O176  1  0.82908197  0.37812999  0.98469133  1
  O  O177  1  0.83301227  0.87211034  0.30786778  1
  O  O178  1  0.82452003  0.86906171  0.64330670  1
  O  O179  1  0.83104978  0.87099927  0.97948726  1
  O  O180  1  -0.00307306  0.37810530  0.18757996  1
  O  O181  1  0.00264246  0.38170824  0.51920438  1
  O  O182  1  0.00799069  0.37714338  0.85557131  1
  O  O183  1  -0.00676677  0.87135680  0.18639065  1
  O  O184  1  -0.00441245  0.86604716  0.52054114  1
  O  O185  1  -0.00431701  0.87193121  0.85715314  1
  O  O186  1  0.32771820  0.37641236  0.19486706  1
  O  O187  1  0.32672855  0.37553990  0.51525523  1
  O  O188  1  0.32348858  0.37527919  0.84698241  1
  O  O189  1  0.33789571  0.87298448  0.19558301  1
  O  O190  1  0.33474518  0.87388121  0.50448743  1
  O  O191  1  0.33458369  0.87404788  0.85477993  1
  O  O192  1  0.66799566  0.37804449  0.19102958  1
  O  O193  1  0.66562149  0.37718440  0.51607111  1
  O  O194  1  0.66000528  0.37881155  0.85727974  1
  O  O195  1  0.66703274  0.87149858  0.19055984  1
  O  O196  1  0.67332160  0.86772059  0.52795446  1
  O  O197  1  0.66317154  0.87192615  0.85539605  1
  O  O198  1  0.00715760  0.12788316  0.15722827  1
  O  O199  1  -0.00119670  0.12994594  0.47103655  1
  O  O200  1  -0.01524962  0.12684851  0.81990758  1
  O  O201  1  0.00425963  0.62417461  0.15305746  1
  O  O202  1  -0.00865580  0.62346302  0.46548113  1
  O  O203  1  -0.01352098  0.62443112  0.80651307  1
  O  O204  1  0.33022095  0.12568359  0.15204749  1
  O  O205  1  0.34297161  0.13115436  0.47594870  1
  O  O206  1  0.33652891  0.12869362  0.81438729  1
  O  O207  1  0.33073484  0.62411914  0.14221680  1
  O  O208  1  0.34006743  0.61970741  0.47916139  1
  O  O209  1  0.33617855  0.62195656  0.82155700  1
  O  O210  1  0.66618454  0.12440423  0.16209462  1
  O  O211  1  0.66247223  0.13058892  0.47087727  1
  O  O212  1  0.67569075  0.12152420  0.81358548  1
  O  O213  1  0.66935475  0.62635598  0.14266035  1
  O  O214  1  0.67635602  0.62362099  0.47212432  1
  O  O215  1  0.66872411  0.62642571  0.81412557  1
  O  O216  1  0.08541016  0.01227703  0.24456220  1
  O  O217  1  0.08117060  0.00401134  0.57845587  1
  O  O218  1  0.08393533  0.01518841  0.90806269  1
  O  O219  1  0.09076616  0.51566472  0.24214268  1
  O  O220  1  0.08502218  0.52429290  0.57113384  1
  O  O221  1  0.08895277  0.51797454  0.89961636  1
  O  O222  1  0.40747654  0.01313669  0.26270776  1
  O  O223  1  0.41868256  0.02457318  0.59164384  1
  O  O224  1  0.40940130  0.01385662  0.92341788  1
  O  O225  1  0.41030141  0.51428022  0.26286802  1
  O  O226  1  0.42163707  0.51485531  0.58234085  1
  O  O227  1  0.41381734  0.51673885  0.92427820  1
  O  O228  1  0.74222845  0.00785795  0.26299062  1
  O  O229  1  0.74001929  0.01496572  0.59660003  1
  O  O230  1  0.74564813  0.00704546  0.91781148  1
  O  O231  1  0.75216699  0.52253411  0.25235110  1
  O  O232  1  0.75448497  0.52313193  0.58453145  1
  O  O233  1  0.74276634  0.52161703  0.92202016  1
  O  O234  1  0.25091794  0.22632406  0.25310559  1
  O  O235  1  0.25587266  0.23319596  0.59084247  1
  O  O236  1  0.24838978  0.22883645  0.91819382  1
  O  O237  1  0.24869711  0.72300734  0.24606187  1
  O  O238  1  0.24928803  0.73030425  0.57911387  1
  O  O239  1  0.24839831  0.72754172  0.91528121  1
  O  O240  1  0.58520790  0.24247869  0.25690511  1
  O  O241  1  0.58109036  0.22902972  0.58043921  1
  O  O242  1  0.57700805  0.23777312  0.90960158  1
  O  O243  1  0.58471481  0.73622985  0.25119518  1
  O  O244  1  0.58463994  0.72276181  0.57646032  1
  O  O245  1  0.57762148  0.72935833  0.91098359  1
  O  O246  1  0.92825829  0.23966928  0.25810042  1
  O  O247  1  0.91505489  0.24974565  0.58097072  1
  O  O248  1  0.91385966  0.24775403  0.91413082  1
  O  O249  1  0.92006159  0.73207179  0.25573749  1
  O  O250  1  0.91702102  0.72618074  0.57934901  1
  O  O251  1  0.90436798  0.73608726  0.90735896  1
  O  O252  1  0.07697934  0.47860001  0.07272611  1
  O  O253  1  0.08131819  0.47639693  0.40517882  1
  O  O254  1  0.07615550  0.48051621  0.73775117  1
  O  O255  1  0.07871276  0.98320427  0.07530814  1
  O  O256  1  0.07749543  0.98400650  0.40232886  1
  O  O257  1  0.07842728  0.99040497  0.74500735  1
  O  O258  1  0.42049469  0.48073888  0.09441347  1
  O  O259  1  0.41948643  0.47716621  0.42202963  1
  O  O260  1  0.42000874  0.48603978  0.76277202  1
  O  O261  1  0.42153332  0.97534862  0.09251633  1
  O  O262  1  0.42325474  0.99269822  0.42085800  1
  O  O263  1  0.42534612  0.99665402  0.75893708  1
  O  O264  1  0.74694224  0.47789587  0.08416966  1
  O  O265  1  0.74903439  0.47759268  0.41452384  1
  O  O266  1  0.75333185  0.49705344  0.75613698  1
  O  O267  1  0.75279984  0.97828572  0.08876385  1
  O  O268  1  0.75593314  0.97545266  0.42488790  1
  O  O269  1  0.75694543  0.97467482  0.75777591  1
  O  O270  1  0.23743386  0.26350994  0.09276247  1
  O  O271  1  0.24807483  0.26844216  0.41392500  1
  O  O272  1  0.23971381  0.26006034  0.75875741  1
  O  O273  1  0.26253938  0.76303277  0.07552395  1
  O  O274  1  0.25703955  0.75004182  0.40878226  1
  O  O275  1  0.25137629  0.74881709  0.75116606  1
  O  O276  1  0.58429854  0.27316112  0.08485698  1
  O  O277  1  0.58350689  0.27779987  0.41747433  1
  O  O278  1  0.58326070  0.26537713  0.75263929  1
  O  O279  1  0.58728664  0.77045481  0.07668168  1
  O  O280  1  0.59594182  0.76255477  0.40882441  1
  O  O281  1  0.59705715  0.76048172  0.74110744  1
  O  O282  1  0.91212598  0.27240580  0.08679386  1
  O  O283  1  0.91380339  0.27714732  0.41649599  1
  O  O284  1  0.91844597  0.27135492  0.74766294  1
  O  O285  1  0.91623381  0.77019844  0.08055310  1
  O  O286  1  0.91591312  0.77386033  0.41577553  1
  O  O287  1  0.91874524  0.77890905  0.74438665  1
  O  O288  1  0.23989701  0.48708804  0.09317201  1
  O  O289  1  0.24908479  0.48491492  0.41598521  1
  O  O290  1  0.23889944  0.49196644  0.75968464  1
  O  O291  1  0.26122478  0.98504023  0.07649998  1
  O  O292  1  0.25823046  0.99640683  0.40385634  1
  O  O293  1  0.25438900  0.99965738  0.74895575  1
  O  O294  1  0.58412686  0.47954118  0.08324381  1
  O  O295  1  0.58233845  0.47883139  0.41728432  1
  O  O296  1  0.57981658  0.48712369  0.75785701  1
  O  O297  1  0.58648621  0.97612172  0.07908931  1
  O  O298  1  0.59619023  0.98283030  0.40578922  1
  O  O299  1  0.59910963  0.98806853  0.73795747  1
  O  O300  1  0.91140436  0.48084002  0.08486870  1
  O  O301  1  0.91112358  0.47566797  0.41964714  1
  O  O302  1  0.91883959  0.47613935  0.74640088  1
  O  O303  1  0.91693797  0.97829451  0.08134585  1
  O  O304  1  0.91709896  0.97504485  0.41482621  1
  O  O305  1  0.91836789  0.97244225  0.74576378  1
  O  O306  1  0.07387400  0.27460334  0.07431394  1
  O  O307  1  0.08067176  0.27785607  0.40473250  1
  O  O308  1  0.07935308  0.27282102  0.74239739  1
  O  O309  1  0.07946346  0.76554677  0.07210958  1
  O  O310  1  0.07663147  0.76341677  0.40326723  1
  O  O311  1  0.07328340  0.75865343  0.73615057  1
  O  O312  1  0.42002970  0.26991880  0.09665739  1
  O  O313  1  0.42385403  0.27632545  0.42561132  1
  O  O314  1  0.42244160  0.26271511  0.75905799  1
  O  O315  1  0.42255284  0.77346204  0.09103992  1
  O  O316  1  0.42002555  0.75552664  0.41766511  1
  O  O317  1  0.42462738  0.75436378  0.76299405  1
  O  O318  1  0.74766440  0.27192986  0.08612217  1
  O  O319  1  0.74982718  0.27279462  0.41840561  1
  O  O320  1  0.75349474  0.25832175  0.75659945  1
  O  O321  1  0.75373314  0.77285860  0.08824592  1
  O  O322  1  0.75640587  0.77162612  0.42322013  1
  O  O323  1  0.75714615  0.76417759  0.76243894  1
  O  O324  1  0.24618945  0.02205462  0.24374628  1
  O  O325  1  0.25636568  0.01456939  0.58390972  1
  O  O326  1  0.24601001  0.02104294  0.91245200  1
  O  O327  1  0.25143438  0.52979520  0.25329469  1
  O  O328  1  0.24955316  0.52032228  0.58182690  1
  O  O329  1  0.25083122  0.52214523  0.92155038  1
  O  O330  1  0.57853741  0.00580606  0.24793933  1
  O  O331  1  0.58027265  0.02459882  0.57636820  1
  O  O332  1  0.57533625  0.01403410  0.90312328  1
  O  O333  1  0.58901207  0.51294079  0.25667165  1
  O  O334  1  0.58595583  0.52173641  0.58006486  1
  O  O335  1  0.58174908  0.52094077  0.91856177  1
  O  O336  1  0.92302779  0.00871935  0.25456260  1
  O  O337  1  0.91140172  -0.00008820  0.58270386  1
  O  O338  1  0.90791269  0.00708662  0.90775782  1
  O  O339  1  0.92228158  0.51836164  0.25991960  1
  O  O340  1  0.91893189  0.52373459  0.58331634  1
  O  O341  1  0.90895609  0.51106525  0.91161296  1
  O  O342  1  0.09156103  0.24302561  0.23845248  1
  O  O343  1  0.08610931  0.24821404  0.57379055  1
  O  O344  1  0.08973828  0.23422922  0.90179716  1
  O  O345  1  0.08813269  0.73184693  0.24440435  1
  O  O346  1  0.08269892  0.72316500  0.57225966  1
  O  O347  1  0.08501358  0.73109796  0.90243833  1
  O  O348  1  0.40926702  0.23795493  0.26760703  1
  O  O349  1  0.41928735  0.22492525  0.59110191  1
  O  O350  1  0.41488810  0.23952715  0.91794422  1
  O  O351  1  0.40994083  0.73190785  0.25878896  1
  O  O352  1  0.41979452  0.73118495  0.58575652  1
  O  O353  1  0.40836747  0.73346733  0.92866446  1
  O  O354  1  0.74633395  0.24071150  0.25739948  1
  O  O355  1  0.74431001  0.23524648  0.58863008  1
  O  O356  1  0.74785265  0.24096506  0.91668284  1
  O  O357  1  0.74819844  0.73150188  0.25914847  1
  O  O358  1  0.74967506  0.72119313  0.59072424  1
  O  O359  1  0.73889884  0.73077976  0.92546628  1
