# generated using pymatgen
data_Ba17Sr5La8Pr42Mn72O216
_symmetry_space_group_name_H-M   'P 1'
_cell_length_a   16.67146504
_cell_length_b   15.69912988
_cell_length_c   16.82121540
_cell_angle_alpha   90.00218097
_cell_angle_beta   90.01285018
_cell_angle_gamma   89.97166820
_symmetry_Int_Tables_number   1
_chemical_formula_structural   Ba17Sr5La8Pr42Mn72O216
_chemical_formula_sum   'Ba17 Sr5 La8 Pr42 Mn72 O216'
_cell_volume   4402.57391817
_cell_formula_units_Z   1
loop_
 _symmetry_equiv_pos_site_id
 _symmetry_equiv_pos_as_xyz
  1  'x, y, z'
loop_
 _atom_site_type_symbol
 _atom_site_label
 _atom_site_symmetry_multiplicity
 _atom_site_fract_x
 _atom_site_fract_y
 _atom_site_fract_z
 _atom_site_occupancy
  Ba  Ba0  1  0.83069715  0.62605806  0.83585110  1
  Ba  Ba1  1  0.33252113  0.62635966  0.99435244  1
  Ba  Ba2  1  0.83366319  0.12468918  0.50232196  1
  Ba  Ba3  1  0.00299483  0.87364406  0.33514526  1
  Ba  Ba4  1  0.66377152  0.62604279  0.66917450  1
  Ba  Ba5  1  0.66580248  0.37376072  0.00515645  1
  Ba  Ba6  1  0.16649812  0.37265314  0.83073174  1
  Ba  Ba7  1  0.83557622  0.87763184  0.50121173  1
  Ba  Ba8  1  0.16587326  0.37502904  0.49638135  1
  Ba  Ba9  1  0.16564284  0.62391500  0.83406984  1
  Ba  Ba10  1  0.83283159  0.62437575  0.16625557  1
  Ba  Ba11  1  -0.00035847  0.12296730  1.00104086  1
  Ba  Ba12  1  0.66579500  0.37522111  0.33454349  1
  Ba  Ba13  1  0.49956908  0.12328231  0.83196503  1
  Ba  Ba14  1  0.50211956  0.87480968  0.16534193  1
  Ba  Ba15  1  0.33174694  0.12562002  0.33041274  1
  Ba  Ba16  1  -0.00171523  0.62505666  0.67093636  1
  Sr  Sr17  1  0.50179915  0.87569627  0.83154697  1
  Sr  Sr18  1  0.83270522  0.37705712  0.16530567  1
  Sr  Sr19  1  0.16714458  0.12215156  0.49697781  1
  Sr  Sr20  1  0.16924598  0.87358822  0.49425878  1
  Sr  Sr21  1  0.00561268  0.87276387  0.00348233  1
  La  La22  1  0.33234040  0.37222922  0.66647333  1
  La  La23  1  0.83243178  0.37887881  0.50118875  1
  La  La24  1  0.33404257  0.87813729  0.66402088  1
  La  La25  1  0.66517841  0.12186787  0.66768589  1
  La  La26  1  0.83666531  0.37490766  0.83800277  1
  La  La27  1  0.66890012  0.37188990  0.67379999  1
  La  La28  1  0.49996951  0.37710641  0.49940774  1
  La  La29  1  0.00080008  0.37296302  0.66946843  1
  Pr  Pr30  1  0.49875071  0.62303246  0.16668031  1
  Pr  Pr31  1  0.83376499  0.13025318  0.17582863  1
  Pr  Pr32  1  0.33326206  0.12182854  0.99748717  1
  Pr  Pr33  1  0.66413539  0.62639152  0.33505847  1
  Pr  Pr34  1  0.16901281  0.37071507  0.16133356  1
  Pr  Pr35  1  0.33354063  0.12628626  0.65665662  1
  Pr  Pr36  1  0.66749919  0.12290981  0.33501540  1
  Pr  Pr37  1  0.49677295  0.37312533  0.16365896  1
  Pr  Pr38  1  0.66575223  0.12498962  1.00371902  1
  Pr  Pr39  1  0.49941901  0.62593802  0.83603255  1
  Pr  Pr40  1  0.67138748  0.87621956  0.00385001  1
  Pr  Pr41  1  0.17258411  0.87799231  0.16276129  1
  Pr  Pr42  1  0.15732535  0.62708779  0.50304593  1
  Pr  Pr43  1  0.49953694  0.37616350  0.83088595  1
  Pr  Pr44  1  0.16219205  0.12283067  0.16987789  1
  Pr  Pr45  1  0.32701450  0.62466299  0.32546672  1
  Pr  Pr46  1  0.33760301  0.87491438  0.33453815  1
  Pr  Pr47  1  0.00536761  0.87694018  0.66614359  1
  Pr  Pr48  1  0.33335426  0.37515762  -0.00447450  1
  Pr  Pr49  1  0.33701424  0.87456561  -0.00317499  1
  Pr  Pr50  1  0.17032935  0.12412496  0.83130102  1
  Pr  Pr51  1  0.16806623  0.87546399  0.83167550  1
  Pr  Pr52  1  0.32858429  0.62478540  0.66257532  1
  Pr  Pr53  1  0.83017084  0.12333090  0.83927110  1
  Pr  Pr54  1  0.49567261  0.62354197  0.50154397  1
  Pr  Pr55  1  0.33508774  0.37516253  0.33341432  1
  Pr  Pr56  1  0.00075068  0.12546367  0.33232702  1
  Pr  Pr57  1  0.15927044  0.62632349  0.16341930  1
  Pr  Pr58  1  0.50459940  0.87341392  0.49561488  1
  Pr  Pr59  1  0.83984509  0.87453748  0.83409128  1
  Pr  Pr60  1  0.67173550  0.87294347  0.33752643  1
  Pr  Pr61  1  0.83121764  0.62780480  0.50807391  1
  Pr  Pr62  1  0.67312756  0.87720736  0.67296001  1
  Pr  Pr63  1  -0.00500202  0.62548460  0.33638174  1
  Pr  Pr64  1  0.00374141  0.12589590  0.66333191  1
  Pr  Pr65  1  0.66156270  0.62546508  0.99741752  1
  Pr  Pr66  1  0.49953242  0.12746058  0.50335708  1
  Pr  Pr67  1  0.50355492  0.12554218  0.17021483  1
  Pr  Pr68  1  0.84038965  0.87527087  0.16695335  1
  Pr  Pr69  1  -0.00495909  0.62518682  0.99208935  1
  Pr  Pr70  1  -0.00521045  0.37672968  0.33394246  1
  Pr  Pr71  1  0.00123887  0.37887735  0.00352228  1
  Mn  Mn72  1  0.00014388  -0.00104412  0.16665140  1
  Mn  Mn73  1  0.00373951  0.00190979  0.49931027  1
  Mn  Mn74  1  0.00112929  -0.00005741  0.83285024  1
  Mn  Mn75  1  0.00162955  0.50115034  0.16821313  1
  Mn  Mn76  1  -0.00184547  0.49854385  0.50017791  1
  Mn  Mn77  1  -0.00077798  0.49763774  0.83527947  1
  Mn  Mn78  1  0.33423728  -0.00065599  0.16354086  1
  Mn  Mn79  1  0.33481673  -0.00148531  0.49753925  1
  Mn  Mn80  1  0.33354027  -0.00012094  0.83004606  1
  Mn  Mn81  1  0.33166478  0.50029887  0.16415292  1
  Mn  Mn82  1  0.33260470  0.50187709  0.49560713  1
  Mn  Mn83  1  0.33502076  0.49842907  0.82933675  1
  Mn  Mn84  1  0.66916643  -0.00034092  0.16941749  1
  Mn  Mn85  1  0.66505255  0.00022363  0.50167799  1
  Mn  Mn86  1  0.66785835  0.00052482  0.83773072  1
  Mn  Mn87  1  0.66411906  0.50187278  0.16849087  1
  Mn  Mn88  1  0.66471063  0.50001695  0.50279670  1
  Mn  Mn89  1  0.66546914  0.49841953  0.83660331  1
  Mn  Mn90  1  0.00002860  0.25143464  0.16745968  1
  Mn  Mn91  1  0.00028963  0.25019214  0.49981423  1
  Mn  Mn92  1  -0.00137206  0.24634828  0.83340179  1
  Mn  Mn93  1  0.00195452  0.74941232  0.16673635  1
  Mn  Mn94  1  0.00034586  0.75101372  0.50087613  1
  Mn  Mn95  1  0.00123929  0.75453355  0.83626569  1
  Mn  Mn96  1  0.33326731  0.25030041  0.16271287  1
  Mn  Mn97  1  0.33318752  0.25127353  0.49684829  1
  Mn  Mn98  1  0.33440075  0.24690591  0.83073165  1
  Mn  Mn99  1  0.33279218  0.74945769  0.16419049  1
  Mn  Mn100  1  0.33411018  0.74815411  0.49581123  1
  Mn  Mn101  1  0.33479450  0.75333343  0.82854815  1
  Mn  Mn102  1  0.66616062  0.24984270  0.17005562  1
  Mn  Mn103  1  0.66518209  0.24968464  0.50432246  1
  Mn  Mn104  1  0.66661625  0.24894535  0.83726050  1
  Mn  Mn105  1  0.66714979  0.74992751  0.16794691  1
  Mn  Mn106  1  0.66563870  0.75031967  0.50173536  1
  Mn  Mn107  1  0.66536517  0.75232824  0.83646714  1
  Mn  Mn108  1  0.16729630  0.24752816  -0.00173719  1
  Mn  Mn109  1  0.16482969  0.25133757  0.32930467  1
  Mn  Mn110  1  0.16737040  0.24838913  0.66327810  1
  Mn  Mn111  1  0.16701708  0.75229289  -0.00057978  1
  Mn  Mn112  1  0.16783367  0.74719597  0.33164601  1
  Mn  Mn113  1  0.16741207  0.75200126  0.66331349  1
  Mn  Mn114  1  0.49755041  0.24799189  0.00099190  1
  Mn  Mn115  1  0.50018589  0.24971997  0.33395952  1
  Mn  Mn116  1  0.50059374  0.24987096  0.66586654  1
  Mn  Mn117  1  0.50107052  0.75253253  -0.00170766  1
  Mn  Mn118  1  0.49947855  0.74911546  0.33306428  1
  Mn  Mn119  1  0.49829737  0.75173784  0.66564132  1
  Mn  Mn120  1  0.83382803  0.24787946  0.00464648  1
  Mn  Mn121  1  0.83300817  0.25261455  0.33669562  1
  Mn  Mn122  1  0.83411160  0.24940502  0.67099175  1
  Mn  Mn123  1  0.83348434  0.75346830  0.00204939  1
  Mn  Mn124  1  0.83247802  0.74849299  0.33542288  1
  Mn  Mn125  1  0.83367617  0.75190507  0.66847053  1
  Mn  Mn126  1  0.16855718  0.00145547  -0.00183204  1
  Mn  Mn127  1  0.16727969  -0.00017518  0.33227895  1
  Mn  Mn128  1  0.16783042  -0.00085230  0.66387565  1
  Mn  Mn129  1  0.16652714  0.49756744  0.00059824  1
  Mn  Mn130  1  0.16550906  0.50129427  0.32971391  1
  Mn  Mn131  1  0.16669488  0.50033003  0.66338659  1
  Mn  Mn132  1  0.50070752  -0.00047514  0.00007190  1
  Mn  Mn133  1  0.50149994  -0.00077877  0.33381229  1
  Mn  Mn134  1  0.49984137  -0.00166669  0.66417662  1
  Mn  Mn135  1  0.49818491  0.49907825  -0.00014029  1
  Mn  Mn136  1  0.49839569  0.50182186  0.33307297  1
  Mn  Mn137  1  0.49834431  0.50050857  0.66626860  1
  Mn  Mn138  1  0.83379209  0.00005994  0.00355911  1
  Mn  Mn139  1  0.83412368  0.00149145  0.33338300  1
  Mn  Mn140  1  0.83584610  -0.00004426  0.67184177  1
  Mn  Mn141  1  0.83239360  0.49906727  0.00250195  1
  Mn  Mn142  1  0.83145541  0.49999458  0.33610910  1
  Mn  Mn143  1  0.83164527  0.49843734  0.66748958  1
  O  O144  1  0.17806380  0.12513006  0.02620491  1
  O  O145  1  0.16260789  0.12797010  0.34649483  1
  O  O146  1  0.17120379  0.12219565  0.68729728  1
  O  O147  1  0.16450381  0.62328039  0.01943812  1
  O  O148  1  0.17621211  0.62268273  0.35909707  1
  O  O149  1  0.17465257  0.62785527  0.67600941  1
  O  O150  1  0.49267441  0.12417882  0.02605959  1
  O  O151  1  0.50514843  0.12089633  0.35971325  1
  O  O152  1  0.49327043  0.12454332  0.67736190  1
  O  O153  1  0.50417552  0.62704230  0.02075464  1
  O  O154  1  0.49551547  0.62602797  0.35879489  1
  O  O155  1  0.49103015  0.62892219  0.69314504  1
  O  O156  1  0.83102222  0.12242291  0.03119326  1
  O  O157  1  0.83848168  0.12764054  0.34393595  1
  O  O158  1  0.83670618  0.12468723  0.69492680  1
  O  O159  1  0.84306760  0.62691234  0.00875863  1
  O  O160  1  0.83430315  0.62129618  0.36008090  1
  O  O161  1  0.83260398  0.62569752  0.67648201  1
  O  O162  1  0.16289435  0.37841691  0.30493006  1
  O  O163  1  0.16636555  0.37321828  0.65443332  1
  O  O164  1  0.16022598  0.37004565  0.98627620  1
  O  O165  1  0.17248375  0.87029324  0.30754251  1
  O  O166  1  0.16366827  0.87647430  0.64338395  1
  O  O167  1  0.16666309  0.88039326  0.97656423  1
  O  O168  1  0.49483105  0.37940506  0.30689378  1
  O  O169  1  0.50366631  0.37249978  0.64252643  1
  O  O170  1  0.49450583  0.37170244  0.97580480  1
  O  O171  1  0.50105986  0.87342285  0.31917546  1
  O  O172  1  0.49968138  0.87504177  0.63834426  1
  O  O173  1  0.50414381  0.87658261  0.98139660  1
  O  O174  1  0.83720223  0.37643117  0.31565754  1
  O  O175  1  0.83124560  0.37172421  0.64545863  1
  O  O176  1  0.83647501  0.37086904  0.98311680  1
  O  O177  1  0.82395527  0.87714974  0.31239108  1
  O  O178  1  0.82467806  0.87723459  0.65777693  1
  O  O179  1  0.82206769  0.87937841  0.97817039  1
  O  O180  1  0.01066817  0.37696073  0.19164327  1
  O  O181  1  -0.00436456  0.37373528  0.52431995  1
  O  O182  1  -0.00282323  0.36765960  0.85794223  1
  O  O183  1  0.00597395  0.87367983  0.17909423  1
  O  O184  1  0.00568441  0.87665210  0.51939405  1
  O  O185  1  0.00909542  0.87909074  0.85441066  1
  O  O186  1  0.33362089  0.37707910  0.19141292  1
  O  O187  1  0.33838545  0.37891533  0.52164596  1
  O  O188  1  0.34060288  0.37046558  0.85121925  1
  O  O189  1  0.32647161  0.87255634  0.19112654  1
  O  O190  1  0.33606011  0.87133916  0.52014298  1
  O  O191  1  0.32773640  0.87907852  0.85323368  1
  O  O192  1  0.65609029  0.37444989  0.17928896  1
  O  O193  1  0.66164850  0.37214927  0.52749948  1
  O  O194  1  0.65975308  0.37221991  0.84843752  1
  O  O195  1  0.67144851  0.87605285  0.19512463  1
  O  O196  1  0.65769502  0.87544775  0.52621809  1
  O  O197  1  0.66903495  0.87807321  0.85926655  1
  O  O198  1  -0.00675679  0.12533432  0.15708529  1
  O  O199  1  0.00186437  0.12861646  0.47752086  1
  O  O200  1  -0.01002728  0.12214899  0.80715936  1
  O  O201  1  0.00626005  0.62512054  0.13830122  1
  O  O202  1  -0.00125062  0.62224725  0.48211518  1
  O  O203  1  -0.00278829  0.62965375  0.83173035  1
  O  O204  1  0.33356073  0.12629042  0.14114678  1
  O  O205  1  0.34079917  0.12511385  0.48763121  1
  O  O206  1  0.32821211  0.12183277  0.80309113  1
  O  O207  1  0.33888189  0.62404973  0.14917899  1
  O  O208  1  0.34264474  0.62442057  0.46792762  1
  O  O209  1  0.34203373  0.62718134  0.80835879  1
  O  O210  1  0.66710641  0.12401156  0.14772036  1
  O  O211  1  0.65949185  0.12518157  0.47927953  1
  O  O212  1  0.67389872  0.12485364  0.81178337  1
  O  O213  1  0.65973968  0.62671772  0.14218208  1
  O  O214  1  0.66860280  0.62690279  0.48029429  1
  O  O215  1  0.65965465  0.62532048  0.82479717  1
  O  O216  1  0.07847049  0.02001891  0.25322802  1
  O  O217  1  0.08352918  0.02118136  0.58724663  1
  O  O218  1  0.09037485  0.02012975  0.90815751  1
  O  O219  1  0.08278842  0.53021167  0.25040705  1
  O  O220  1  0.08394177  0.51297146  0.57779106  1
  O  O221  1  0.07583907  0.50971274  0.92934369  1
  O  O222  1  0.42107130  0.01434102  0.24563995  1
  O  O223  1  0.41713931  0.01570517  0.58126411  1
  O  O224  1  0.40958601  0.01243155  0.91868306  1
  O  O225  1  0.41488426  0.52069370  0.24884505  1
  O  O226  1  0.41118245  0.52252391  0.58209936  1
  O  O227  1  0.42470250  0.51192602  0.90684627  1
  O  O228  1  0.74931208  0.02548108  0.25167602  1
  O  O229  1  0.74227783  0.01364165  0.59622937  1
  O  O230  1  0.74728012  0.02520166  0.92776278  1
  O  O231  1  0.74296687  0.51744591  0.25972160  1
  O  O232  1  0.74915028  0.50956734  0.58427298  1
  O  O233  1  0.74491945  0.51040662  0.92231964  1
  O  O234  1  0.24297372  0.23849838  0.23612380  1
  O  O235  1  0.25400750  0.23495806  0.58330718  1
  O  O236  1  0.25011035  0.22679552  0.91331233  1
  O  O237  1  0.24245181  0.72534907  0.24131583  1
  O  O238  1  0.24850051  0.72831535  0.57000678  1
  O  O239  1  0.24627593  0.74791374  0.90952991  1
  O  O240  1  0.58577208  0.22548090  0.25666633  1
  O  O241  1  0.58330784  0.22608472  0.58660466  1
  O  O242  1  0.58508601  0.23004896  0.92695404  1
  O  O243  1  0.57659049  0.72537746  0.24744125  1
  O  O244  1  0.57061813  0.73330322  0.57236555  1
  O  O245  1  0.57890266  0.73058028  0.91348801  1
  O  O246  1  0.91987567  0.23812657  0.25331524  1
  O  O247  1  0.92237680  0.23458869  0.59428238  1
  O  O248  1  0.90955641  0.23194966  0.91186300  1
  O  O249  1  0.91719932  0.73805543  0.25044482  1
  O  O250  1  0.91269823  0.74004559  0.57979881  1
  O  O251  1  0.91212887  0.75172000  0.91602814  1
  O  O252  1  0.08803068  0.47970780  0.08972516  1
  O  O253  1  0.07616646  0.48940190  0.40820742  1
  O  O254  1  0.07711072  0.48698768  0.74955236  1
  O  O255  1  0.09293316  0.99081045  0.09009399  1
  O  O256  1  0.09256214  0.99058765  0.41887426  1
  O  O257  1  0.08459869  0.98273945  0.74581495  1
  O  O258  1  0.41249709  0.47633739  0.08000165  1
  O  O259  1  0.41790039  0.47700793  0.41597062  1
  O  O260  1  0.41849657  0.47395278  0.74611311  1
  O  O261  1  0.41320390  0.98295259  0.07728896  1
  O  O262  1  0.42014476  0.97733553  0.41658823  1
  O  O263  1  0.41529341  0.98059237  0.74387054  1
  O  O264  1  0.75170266  0.49261179  0.08613124  1
  O  O265  1  0.75382782  0.48614647  0.42600844  1
  O  O266  1  0.74888595  0.47816255  0.75351264  1
  O  O267  1  0.75473957  0.97653716  0.09094453  1
  O  O268  1  0.74404603  0.98998846  0.41245224  1
  O  O269  1  0.75673178  0.98359405  0.76227740  1
  O  O270  1  0.25520503  0.27341163  0.07730460  1
  O  O271  1  0.25221406  0.26807780  0.40486884  1
  O  O272  1  0.25649468  0.26027767  0.74243832  1
  O  O273  1  0.25328534  0.77400712  0.07727228  1
  O  O274  1  0.26293677  0.76492982  0.40222853  1
  O  O275  1  0.25468769  0.77132026  0.74032228  1
  O  O276  1  0.57272995  0.25628810  0.09476209  1
  O  O277  1  0.57563860  0.26489245  0.42838114  1
  O  O278  1  0.58354505  0.26594820  0.74764600  1
  O  O279  1  0.59508289  0.76531470  0.07469055  1
  O  O280  1  0.58858699  0.76680164  0.41093581  1
  O  O281  1  0.58794942  0.77187006  0.74512047  1
  O  O282  1  0.92167291  0.27139218  0.08345881  1
  O  O283  1  0.91446129  0.27345569  0.42065833  1
  O  O284  1  0.91552080  0.27446361  0.75234571  1
  O  O285  1  0.91913194  0.76852025  0.08248410  1
  O  O286  1  0.91991280  0.75346424  0.41663183  1
  O  O287  1  0.92267022  0.77476955  0.74892563  1
  O  O288  1  0.25016261  0.47539341  0.08147012  1
  O  O289  1  0.25820084  0.48310980  0.40286484  1
  O  O290  1  0.25961718  0.48866666  0.73804155  1
  O  O291  1  0.25550509  0.97630032  0.07544403  1
  O  O292  1  0.25749685  0.98128905  0.40875627  1
  O  O293  1  0.24706431  0.97728637  0.74992117  1
  O  O294  1  0.57057673  0.48913354  0.09246223  1
  O  O295  1  0.57874689  0.48969233  0.42095948  1
  O  O296  1  0.58103278  0.48203428  0.75402057  1
  O  O297  1  0.59275550  0.99038294  0.08175607  1
  O  O298  1  0.58468135  0.97699504  0.41525716  1
  O  O299  1  0.59021223  0.98534583  0.74142962  1
  O  O300  1  0.92336936  0.48194415  0.08288141  1
  O  O301  1  0.91668259  0.47838656  0.41751254  1
  O  O302  1  0.91474955  0.47692244  0.74922863  1
  O  O303  1  0.91807948  0.97779241  0.08248587  1
  O  O304  1  0.92017838  0.99581153  0.41207120  1
  O  O305  1  0.92083851  0.97316409  0.75074565  1
  O  O306  1  0.08558429  0.26458150  0.08499708  1
  O  O307  1  0.07476611  0.26608901  0.40408954  1
  O  O308  1  0.07617945  0.25488717  0.74101781  1
  O  O309  1  0.09552968  0.76416827  0.09464727  1
  O  O310  1  0.09218399  0.75312882  0.42180846  1
  O  O311  1  0.08761528  0.77174410  0.75458472  1
  O  O312  1  0.41382018  0.27559173  0.08074656  1
  O  O313  1  0.41559691  0.27247777  0.41173224  1
  O  O314  1  0.42052442  0.27109972  0.74873972  1
  O  O315  1  0.41628641  0.76593660  0.07730438  1
  O  O316  1  0.42312763  0.77175243  0.42116803  1
  O  O317  1  0.41613220  0.77584592  0.74452142  1
  O  O318  1  0.75303491  0.25708833  0.09264542  1
  O  O319  1  0.75016885  0.26377561  0.42680642  1
  O  O320  1  0.75503236  0.26941572  0.75652166  1
  O  O321  1  0.75732419  0.77311471  0.09167122  1
  O  O322  1  0.74699444  0.76442928  0.41836995  1
  O  O323  1  0.75243588  0.77047760  0.75924136  1
  O  O324  1  0.24075843  0.01393944  0.23709516  1
  O  O325  1  0.25530504  0.01397238  0.58678609  1
  O  O326  1  0.24986756  0.02361873  0.91297952  1
  O  O327  1  0.24613317  0.52157415  0.24204930  1
  O  O328  1  0.24952119  0.52336160  0.57120119  1
  O  O329  1  0.25277129  0.50137511  0.91596434  1
  O  O330  1  0.58563118  0.02263588  0.25246496  1
  O  O331  1  0.57869863  0.02170367  0.57980929  1
  O  O332  1  0.58699142  0.01849467  0.92223043  1
  O  O333  1  0.57961066  0.52775312  0.25370644  1
  O  O334  1  0.57326391  0.51691119  0.57922385  1
  O  O335  1  0.58248280  0.51836600  0.92025436  1
  O  O336  1  0.91060488  0.01198076  0.24438681  1
  O  O337  1  0.92274162  0.01134874  0.59323161  1
  O  O338  1  0.90694720  0.01171455  0.91052394  1
  O  O339  1  0.92302283  0.51459061  0.25760846  1
  O  O340  1  0.90896841  0.51122501  0.57603560  1
  O  O341  1  0.91692002  0.50286072  0.91957550  1
  O  O342  1  0.08312453  0.22819026  0.24645758  1
  O  O343  1  0.08503317  0.23074121  0.58081721  1
  O  O344  1  0.08756020  0.22651600  0.90781636  1
  O  O345  1  0.07979588  0.72216903  0.25624674  1
  O  O346  1  0.08260207  0.73672852  0.58349645  1
  O  O347  1  0.07563489  0.73790484  0.92949863  1
  O  O348  1  0.42319461  0.23577759  0.23864857  1
  O  O349  1  0.41938977  0.23665513  0.58241511  1
  O  O350  1  0.40978584  0.23124814  0.92170887  1
  O  O351  1  0.41084566  0.73229527  0.25435982  1
  O  O352  1  0.40955775  0.72661247  0.58310126  1
  O  O353  1  0.42028113  0.74060810  0.90806133  1
  O  O354  1  0.74849027  0.23108937  0.25480063  1
  O  O355  1  0.74302933  0.23429071  0.59655948  1
  O  O356  1  0.75023831  0.22669330  0.92400187  1
  O  O357  1  0.73913331  0.73226353  0.26034186  1
  O  O358  1  0.74747551  0.73925422  0.58336298  1
  O  O359  1  0.73804666  0.73899538  0.93265553  1
