# generated using pymatgen
data_Ba17Sr5La8Pr42Mn72O216
_symmetry_space_group_name_H-M   'P 1'
_cell_length_a   16.67476165
_cell_length_b   15.70447309
_cell_length_c   16.81978502
_cell_angle_alpha   90.00703513
_cell_angle_beta   89.99963225
_cell_angle_gamma   90.01541152
_symmetry_Int_Tables_number   1
_chemical_formula_structural   Ba17Sr5La8Pr42Mn72O216
_chemical_formula_sum   'Ba17 Sr5 La8 Pr42 Mn72 O216'
_cell_volume   4404.56908446
_cell_formula_units_Z   1
loop_
 _symmetry_equiv_pos_site_id
 _symmetry_equiv_pos_as_xyz
  1  'x, y, z'
loop_
 _atom_site_type_symbol
 _atom_site_label
 _atom_site_symmetry_multiplicity
 _atom_site_fract_x
 _atom_site_fract_y
 _atom_site_fract_z
 _atom_site_occupancy
  Ba  Ba0  1  0.16923206  0.87597390  0.50080876  1
  Ba  Ba1  1  0.33439988  0.87475786  0.67081319  1
  Ba  Ba2  1  0.66754094  0.12403732  0.32970742  1
  Ba  Ba3  1  0.16447188  0.12493788  0.83745053  1
  Ba  Ba4  1  0.00139749  0.62538777  0.99833788  1
  Ba  Ba5  1  0.66439953  0.62531652  0.99936910  1
  Ba  Ba6  1  -0.00342901  0.12482104  0.99705386  1
  Ba  Ba7  1  -0.00042952  0.12714456  0.66751127  1
  Ba  Ba8  1  0.33680368  0.62516699  0.33568080  1
  Ba  Ba9  1  0.33298220  0.37504749  0.33464568  1
  Ba  Ba10  1  0.16484591  0.12510306  0.50267789  1
  Ba  Ba11  1  0.16475387  0.37551309  0.16789493  1
  Ba  Ba12  1  0.50317630  0.62414278  0.49983008  1
  Ba  Ba13  1  0.83530138  0.62386345  0.49851847  1
  Ba  Ba14  1  0.67112774  0.62506537  0.33078733  1
  Ba  Ba15  1  0.83505994  0.87440424  0.49852610  1
  Ba  Ba16  1  0.49883931  0.37184047  0.16559002  1
  Sr  Sr17  1  0.16933796  0.87322773  0.16807696  1
  Sr  Sr18  1  0.83211288  0.37561279  0.49664403  1
  Sr  Sr19  1  0.49391056  0.12375458  0.16805861  1
  Sr  Sr20  1  0.32640291  0.12600715  1.00396297  1
  Sr  Sr21  1  0.66859807  0.62329647  0.65956759  1
  La  La22  1  0.66366611  0.12654970  0.66113855  1
  La  La23  1  0.65802129  0.12628221  0.99760612  1
  La  La24  1  0.50102584  0.62748185  0.83184837  1
  La  La25  1  0.49452557  0.12773805  0.50069706  1
  La  La26  1  0.16930299  0.62456276  0.17081554  1
  La  La27  1  0.32793628  0.12372308  0.66852940  1
  La  La28  1  0.67185836  0.87006339  0.66447538  1
  La  La29  1  0.00393401  0.62466247  0.66374558  1
  Pr  Pr30  1  0.66665319  0.87449018  -0.00213495  1
  Pr  Pr31  1  0.33579226  0.62241439  1.00514649  1
  Pr  Pr32  1  0.82683412  0.12579687  0.83688100  1
  Pr  Pr33  1  0.83681545  0.87182244  0.82890408  1
  Pr  Pr34  1  0.83280794  0.12674969  0.50349614  1
  Pr  Pr35  1  0.50353077  0.87491742  0.16753317  1
  Pr  Pr36  1  0.00274882  0.62843524  0.33053582  1
  Pr  Pr37  1  0.82771715  0.37469685  0.16350813  1
  Pr  Pr38  1  0.17371571  0.62368058  0.50334306  1
  Pr  Pr39  1  0.50366201  0.37647533  0.49496371  1
  Pr  Pr40  1  0.32724457  0.36949492  0.01028470  1
  Pr  Pr41  1  0.83591271  0.12420675  0.16710510  1
  Pr  Pr42  1  0.32818156  0.12391877  0.33196522  1
  Pr  Pr43  1  0.33223219  0.37627234  0.67087783  1
  Pr  Pr44  1  0.66116902  0.37552335  0.00204268  1
  Pr  Pr45  1  0.16163491  0.37289915  0.49567901  1
  Pr  Pr46  1  0.67035999  0.37955353  0.66325249  1
  Pr  Pr47  1  -0.00262209  0.37575587  0.33544060  1
  Pr  Pr48  1  0.83216135  0.62445577  0.83341373  1
  Pr  Pr49  1  -0.00025878  0.87714787  0.00220811  1
  Pr  Pr50  1  0.17451985  0.62688609  0.83872361  1
  Pr  Pr51  1  0.00183189  0.12071048  0.33260737  1
  Pr  Pr52  1  0.83237226  0.87499034  0.16471647  1
  Pr  Pr53  1  0.50423601  0.87390119  0.49849105  1
  Pr  Pr54  1  -0.00803995  0.37206353  0.00470290  1
  Pr  Pr55  1  0.50069528  0.37408495  0.83412953  1
  Pr  Pr56  1  0.50461006  0.87577650  0.82934095  1
  Pr  Pr57  1  0.84008471  0.62480596  0.17127641  1
  Pr  Pr58  1  0.33813409  0.87662930  0.34133090  1
  Pr  Pr59  1  0.15957842  0.37406033  0.83731955  1
  Pr  Pr60  1  0.15992191  0.87657594  0.83253481  1
  Pr  Pr61  1  0.00338112  0.87411439  0.33700792  1
  Pr  Pr62  1  0.34106138  0.62770805  0.66302308  1
  Pr  Pr63  1  0.83261445  0.37777449  0.83301360  1
  Pr  Pr64  1  0.16606678  0.12642317  0.16933282  1
  Pr  Pr65  1  0.33200495  0.87880371  0.00262247  1
  Pr  Pr66  1  0.66271898  0.37337601  0.33419195  1
  Pr  Pr67  1  0.00141516  0.87591665  0.66485589  1
  Pr  Pr68  1  -0.00400679  0.37382725  0.66416231  1
  Pr  Pr69  1  0.66885703  0.87628253  0.33523212  1
  Pr  Pr70  1  0.50401595  0.62397368  0.17563923  1
  Pr  Pr71  1  0.48752868  0.12285681  0.83873060  1
  Mn  Mn72  1  0.00099040  -0.00129854  0.16647988  1
  Mn  Mn73  1  -0.00112057  -0.00019881  0.49940004  1
  Mn  Mn74  1  -0.00404054  -0.00122607  0.83416848  1
  Mn  Mn75  1  -0.00080860  0.49940622  0.16604483  1
  Mn  Mn76  1  0.00178622  0.50116328  0.49915673  1
  Mn  Mn77  1  -0.00044227  0.49937374  0.83181968  1
  Mn  Mn78  1  0.33233654  -0.00223291  0.16980812  1
  Mn  Mn79  1  0.33610646  0.00102365  0.50196378  1
  Mn  Mn80  1  0.33165147  -0.00113076  0.83788038  1
  Mn  Mn81  1  0.33422394  0.50044586  0.16607712  1
  Mn  Mn82  1  0.33363318  0.49934691  0.50615415  1
  Mn  Mn83  1  0.33444676  0.49960767  0.83671848  1
  Mn  Mn84  1  0.66710317  -0.00023447  0.16382166  1
  Mn  Mn85  1  0.66665722  0.00216280  0.49907660  1
  Mn  Mn86  1  0.66581993  0.00141134  0.83003837  1
  Mn  Mn87  1  0.66771046  0.49921106  0.16445653  1
  Mn  Mn88  1  0.66899160  0.49856333  0.49934334  1
  Mn  Mn89  1  0.66496069  0.49877531  0.83097264  1
  Mn  Mn90  1  -0.00156603  0.24871560  0.16734430  1
  Mn  Mn91  1  -0.00285901  0.25175620  0.49890422  1
  Mn  Mn92  1  -0.00393746  0.25285463  0.83416164  1
  Mn  Mn93  1  0.00129002  0.75231111  0.16565028  1
  Mn  Mn94  1  0.00355322  0.74807883  0.49917477  1
  Mn  Mn95  1  -0.00069944  0.74796616  0.83190109  1
  Mn  Mn96  1  0.33211666  0.24667685  0.16768079  1
  Mn  Mn97  1  0.33346959  0.25077578  0.50458853  1
  Mn  Mn98  1  0.33193577  0.25434949  0.83743292  1
  Mn  Mn99  1  0.33530738  0.75366811  0.16748429  1
  Mn  Mn100  1  0.33592340  0.75097985  0.50210155  1
  Mn  Mn101  1  0.33474013  0.74790874  0.83769647  1
  Mn  Mn102  1  0.66689359  0.24806161  0.16469157  1
  Mn  Mn103  1  0.66729775  0.24938637  0.49859662  1
  Mn  Mn104  1  0.66405138  0.25110654  0.83009958  1
  Mn  Mn105  1  0.66869022  0.75278236  0.16419822  1
  Mn  Mn106  1  0.66848567  0.75085549  0.49946727  1
  Mn  Mn107  1  0.66678380  0.74925949  0.83117163  1
  Mn  Mn108  1  0.16378792  0.25019428  0.00174334  1
  Mn  Mn109  1  0.16516738  0.24989062  0.33481035  1
  Mn  Mn110  1  0.16719421  0.25490853  0.66751793  1
  Mn  Mn111  1  0.16857029  0.75064409  0.00127294  1
  Mn  Mn112  1  0.16899269  0.75014029  0.33291345  1
  Mn  Mn113  1  0.16633810  0.74842132  0.67132243  1
  Mn  Mn114  1  0.49682456  0.24737413  -0.00197718  1
  Mn  Mn115  1  0.49914150  0.24802842  0.33393352  1
  Mn  Mn116  1  0.49933852  0.25061839  0.66788567  1
  Mn  Mn117  1  0.49753332  0.75185956  0.00045133  1
  Mn  Mn118  1  0.50273077  0.75226861  0.33121190  1
  Mn  Mn119  1  0.50328787  0.75163753  0.66714394  1
  Mn  Mn120  1  0.82730979  0.24972416  -0.00092941  1
  Mn  Mn121  1  0.83573366  0.24958100  0.33188016  1
  Mn  Mn122  1  0.83192945  0.25229837  0.66732567  1
  Mn  Mn123  1  0.83253304  0.74996020  -0.00190592  1
  Mn  Mn124  1  0.83641752  0.75091094  0.32961682  1
  Mn  Mn125  1  0.83495148  0.74891419  0.66655106  1
  Mn  Mn126  1  0.16566335  -0.00355357  0.00287472  1
  Mn  Mn127  1  0.16748557  -0.00092899  0.33139074  1
  Mn  Mn128  1  0.16561451  -0.00082234  0.66931895  1
  Mn  Mn129  1  0.16680040  0.50195269  0.00001274  1
  Mn  Mn130  1  0.16584470  0.50051988  0.33529866  1
  Mn  Mn131  1  0.16751585  0.49898943  0.66962975  1
  Mn  Mn132  1  0.49731177  -0.00140212  -0.00094702  1
  Mn  Mn133  1  0.49952533  0.00096150  0.33290980  1
  Mn  Mn134  1  0.50226988  0.00320185  0.66763497  1
  Mn  Mn135  1  0.49757502  0.50182825  -0.00145006  1
  Mn  Mn136  1  0.50195946  0.49875670  0.33299743  1
  Mn  Mn137  1  0.50064646  0.49529916  0.66743361  1
  Mn  Mn138  1  0.82891600  -0.00165691  -0.00234436  1
  Mn  Mn139  1  0.83615493  0.00105576  0.33110879  1
  Mn  Mn140  1  0.83284075  0.00052726  0.66802240  1
  Mn  Mn141  1  0.83086596  0.50128536  -0.00127679  1
  Mn  Mn142  1  0.83569768  0.49777261  0.33044317  1
  Mn  Mn143  1  0.83454416  0.49844836  0.66618403  1
  O  O144  1  0.16328907  0.11847302  0.02270194  1
  O  O145  1  0.16536192  0.12564692  0.34580542  1
  O  O146  1  0.17125085  0.12852598  0.68014665  1
  O  O147  1  0.16733790  0.62868808  0.02471750  1
  O  O148  1  0.15939283  0.62390723  0.35672564  1
  O  O149  1  0.15884458  0.62159615  0.69814167  1
  O  O150  1  0.50633044  0.12209043  0.01668649  1
  O  O151  1  0.49415325  0.12380943  0.35572248  1
  O  O152  1  0.50829487  0.12861115  0.69737069  1
  O  O153  1  0.49458101  0.63271414  0.03098442  1
  O  O154  1  0.50449751  0.62609031  0.33808919  1
  O  O155  1  0.50013216  0.62030570  0.68840983  1
  O  O156  1  0.82445654  0.12509992  0.02327472  1
  O  O157  1  0.84070277  0.12646867  0.35990680  1
  O  O158  1  0.82648851  0.12864654  0.69284439  1
  O  O159  1  0.83130742  0.62729725  0.02671293  1
  O  O160  1  0.83890078  0.62431413  0.34019546  1
  O  O161  1  0.83630831  0.62199128  0.68969548  1
  O  O162  1  0.16204006  0.37521480  0.32475585  1
  O  O163  1  0.17627840  0.37963206  0.63969951  1
  O  O164  1  0.17778386  0.38124108  0.98302225  1
  O  O165  1  0.16814044  0.87511981  0.31686629  1
  O  O166  1  0.16134193  0.87123299  0.65916872  1
  O  O167  1  0.17132859  0.87031993  0.97738469  1
  O  O168  1  0.50589300  0.37209752  0.32518028  1
  O  O169  1  0.48883351  0.37003266  0.63907444  1
  O  O170  1  0.50013295  0.37074379  0.97785079  1
  O  O171  1  0.49546736  0.87774506  0.31171891  1
  O  O172  1  0.50335245  0.88217147  0.64404908  1
  O  O173  1  0.49481040  0.87483778  0.97106218  1
  O  O174  1  0.84230780  0.37242009  0.30555996  1
  O  O175  1  0.83550049  0.37443156  0.64634010  1
  O  O176  1  0.83297267  0.37471778  0.97733617  1
  O  O177  1  0.83986378  0.87630766  0.30882117  1
  O  O178  1  0.83366904  0.87549816  0.65556166  1
  O  O179  1  0.83320764  0.87276998  0.97226781  1
  O  O180  1  -0.00955764  0.37269127  0.19077086  1
  O  O181  1  0.00356259  0.37864263  0.52007603  1
  O  O182  1  -0.00539659  0.37877776  0.85955520  1
  O  O183  1  -0.00740119  0.87654546  0.19405066  1
  O  O184  1  0.00034845  0.87112752  0.51879941  1
  O  O185  1  -0.00697023  0.87071092  0.85658760  1
  O  O186  1  0.33138568  0.37260909  0.17185063  1
  O  O187  1  0.33197999  0.37532954  0.52641594  1
  O  O188  1  0.34428960  0.37960692  0.86681332  1
  O  O189  1  0.33401622  0.87550570  0.19800965  1
  O  O190  1  0.34185031  0.87519844  0.51174346  1
  O  O191  1  0.34253132  0.86847969  0.85858440  1
  O  O192  1  0.67424772  0.37205816  0.18814874  1
  O  O193  1  0.66300177  0.37108838  0.51812450  1
  O  O194  1  0.66641240  0.37335780  0.86032146  1
  O  O195  1  0.66806702  0.87753412  0.19030950  1
  O  O196  1  0.66107704  0.88110035  0.51961349  1
  O  O197  1  0.66566338  0.87868337  0.85507487  1
  O  O198  1  0.00347228  0.12296464  0.15013620  1
  O  O199  1  -0.00807626  0.12774923  0.47901630  1
  O  O200  1  -0.00866934  0.12730604  0.82388722  1
  O  O201  1  -0.00208650  0.62610206  0.15263395  1
  O  O202  1  0.00819847  0.62375697  0.47649362  1
  O  O203  1  -0.00076499  0.62158486  0.80759144  1
  O  O204  1  0.33054046  0.12041798  0.15294496  1
  O  O205  1  0.33890768  0.12599751  0.47852848  1
  O  O206  1  0.33595680  0.13122720  0.81191857  1
  O  O207  1  0.34180976  0.62942006  0.14831921  1
  O  O208  1  0.32909004  0.62572371  0.49425934  1
  O  O209  1  0.32939415  0.62229688  0.80582296  1
  O  O210  1  0.67555852  0.12207142  0.14118964  1
  O  O211  1  0.67570353  0.12569468  0.48666857  1
  O  O212  1  0.67206036  0.12701272  0.80359255  1
  O  O213  1  0.66437546  0.62786090  0.15548591  1
  O  O214  1  0.66834347  0.62185378  0.49083600  1
  O  O215  1  0.66272105  0.62066712  0.81011834  1
  O  O216  1  0.08227924  0.01802634  0.24913747  1
  O  O217  1  0.07648743  0.00317473  0.58811149  1
  O  O218  1  0.07522182  -0.00318322  0.92008299  1
  O  O219  1  0.08424107  0.51970506  0.24624809  1
  O  O220  1  0.09277104  0.51951145  0.57771140  1
  O  O221  1  0.09443336  0.51154643  0.90393232  1
  O  O222  1  0.40514081  0.01475287  0.26323687  1
  O  O223  1  0.41774351  0.02663878  0.59206630  1
  O  O224  1  0.41017677  0.01888120  0.92385554  1
  O  O225  1  0.42328019  0.51130206  0.24255878  1
  O  O226  1  0.41230691  0.51329824  0.59362552  1
  O  O227  1  0.41821242  0.53000554  0.91339708  1
  O  O228  1  0.76056804  0.01358968  0.24194044  1
  O  O229  1  0.74550404  0.01731543  0.59106955  1
  O  O230  1  0.73736782  0.02310811  0.91871996  1
  O  O231  1  0.76388419  0.50961848  0.23503259  1
  O  O232  1  0.75163801  0.50417908  0.58359583  1
  O  O233  1  0.75419109  0.51463944  0.90692914  1
  O  O234  1  0.24949697  0.23003949  0.25250403  1
  O  O235  1  0.25840224  0.23801576  0.59411457  1
  O  O236  1  0.25137612  0.24447581  0.92020591  1
  O  O237  1  0.24665772  0.73262769  0.24478833  1
  O  O238  1  0.25034725  0.72903925  0.59394603  1
  O  O239  1  0.25542913  0.72564810  0.92276348  1
  O  O240  1  0.58478668  0.23731196  0.24344009  1
  O  O241  1  0.57814796  0.23143521  0.58165050  1
  O  O242  1  0.57640281  0.22978368  0.90456068  1
  O  O243  1  0.58391251  0.74522095  0.24433884  1
  O  O244  1  0.58602250  0.74606051  0.58563996  1
  O  O245  1  0.57636790  0.73957865  0.90990529  1
  O  O246  1  0.92081412  0.22289069  0.25195772  1
  O  O247  1  0.90877076  0.23713565  0.57681011  1
  O  O248  1  0.90147000  0.23942154  0.91082452  1
  O  O249  1  0.92151037  0.73149290  0.24899773  1
  O  O250  1  0.92647776  0.73565483  0.59137671  1
  O  O251  1  0.91251483  0.73075195  0.90953611  1
  O  O252  1  0.07192515  0.48105336  0.07406072  1
  O  O253  1  0.07866171  0.47912477  0.41380783  1
  O  O254  1  0.07800485  0.47149047  0.74212954  1
  O  O255  1  0.08207183  0.97432854  0.08449090  1
  O  O256  1  0.08205077  0.98881883  0.40986329  1
  O  O257  1  0.08110837  0.98024583  0.75591435  1
  O  O258  1  0.40750216  0.48679089  0.07131495  1
  O  O259  1  0.41954615  0.48597843  0.42589122  1
  O  O260  1  0.41690703  0.47716862  0.75404927  1
  O  O261  1  0.41845697  0.97710301  0.09289178  1
  O  O262  1  0.42602700  0.98241956  0.42510429  1
  O  O263  1  0.42836800  0.98969695  0.76082443  1
  O  O264  1  0.74462682  0.47709937  0.07678774  1
  O  O265  1  0.74811301  0.47808455  0.40474575  1
  O  O266  1  0.74750749  0.47721247  0.74893676  1
  O  O267  1  0.75145383  0.97196514  0.07915265  1
  O  O268  1  0.75026440  0.98429773  0.40845523  1
  O  O269  1  0.75736013  0.98111035  0.75876143  1
  O  O270  1  0.24562427  0.25398496  0.08541348  1
  O  O271  1  0.24552172  0.26351920  0.42624027  1
  O  O272  1  0.25062755  0.27925327  0.75672065  1
  O  O273  1  0.25602150  0.76821349  0.08295363  1
  O  O274  1  0.25498401  0.76158774  0.41322257  1
  O  O275  1  0.24080401  0.76281038  0.76512864  1
  O  O276  1  0.58844660  0.26047616  0.06960902  1
  O  O277  1  0.58482774  0.26462987  0.41610475  1
  O  O278  1  0.58610593  0.27903955  0.74287488  1
  O  O279  1  0.58302721  0.77692281  0.08018560  1
  O  O280  1  0.58472341  0.77428751  0.41293686  1
  O  O281  1  0.58589727  0.77316407  0.74850742  1
  O  O282  1  0.90990403  0.26691124  0.08501377  1
  O  O283  1  0.91810993  0.27216536  0.41269502  1
  O  O284  1  0.91685973  0.27387055  0.74742755  1
  O  O285  1  0.91430254  0.77369135  0.08394361  1
  O  O286  1  0.92277663  0.76068018  0.40807579  1
  O  O287  1  0.91552051  0.76695034  0.75131019  1
  O  O288  1  0.24871038  0.49713209  0.08395045  1
  O  O289  1  0.24177897  0.48951368  0.43381257  1
  O  O290  1  0.24681592  0.47462717  0.76042204  1
  O  O291  1  0.25489094  0.97877178  0.08436779  1
  O  O292  1  0.26107409  0.99072151  0.40465718  1
  O  O293  1  0.24881729  0.98638021  0.75809826  1
  O  O294  1  0.58406467  0.48579315  0.07854884  1
  O  O295  1  0.58561509  0.48005744  0.41725828  1
  O  O296  1  0.58233201  0.47005551  0.74885076  1
  O  O297  1  0.58595028  0.97696069  0.07173673  1
  O  O298  1  0.58477511  0.97901392  0.41040982  1
  O  O299  1  0.59364295  0.97844879  0.74044634  1
  O  O300  1  0.91001055  0.47977683  0.08700254  1
  O  O301  1  0.91692543  0.48240897  0.41456324  1
  O  O302  1  0.91303591  0.47818569  0.75284389  1
  O  O303  1  0.91738446  0.97924956  0.08261944  1
  O  O304  1  0.92512207  0.98528759  0.40624944  1
  O  O305  1  0.92092867  0.97822794  0.74501309  1
  O  O306  1  0.07304226  0.26861883  0.07918962  1
  O  O307  1  0.07826346  0.26806705  0.41473823  1
  O  O308  1  0.08354948  0.27652991  0.74825235  1
  O  O309  1  0.07905365  0.77217270  0.07935122  1
  O  O310  1  0.08169436  0.76477158  0.40972003  1
  O  O311  1  0.07533287  0.77079713  0.74592915  1
  O  O312  1  0.41037627  0.25761605  0.07798218  1
  O  O313  1  0.42179612  0.26455988  0.43083564  1
  O  O314  1  0.41759059  0.27369060  0.75391909  1
  O  O315  1  0.41643935  0.78101878  0.08292808  1
  O  O316  1  0.42235582  0.76869565  0.41492906  1
  O  O317  1  0.42495585  0.75949902  0.75954612  1
  O  O318  1  0.74631671  0.27437930  0.07883333  1
  O  O319  1  0.75051868  0.26953898  0.40846020  1
  O  O320  1  0.75121782  0.27642471  0.75359837  1
  O  O321  1  0.74673726  0.77579999  0.07830142  1
  O  O322  1  0.74765263  0.76687735  0.40442925  1
  O  O323  1  0.75186016  0.76662182  0.75026022  1
  O  O324  1  0.24452071  0.02113781  0.24483625  1
  O  O325  1  0.25522841  0.01186182  0.58644640  1
  O  O326  1  0.24758209  0.00469263  0.92129295  1
  O  O327  1  0.24798042  0.51610231  0.25005110  1
  O  O328  1  0.25416561  0.52502036  0.59728484  1
  O  O329  1  0.25521457  0.52520845  0.92021569  1
  O  O330  1  0.57390457  0.00902747  0.24187332  1
  O  O331  1  0.57705863  0.02504484  0.57959263  1
  O  O332  1  0.57521853  0.01766967  0.90149351  1
  O  O333  1  0.58825748  0.50669963  0.24633192  1
  O  O334  1  0.58443697  0.49992553  0.58796275  1
  O  O335  1  0.57674875  0.51118379  0.90933035  1
  O  O336  1  0.91847036  0.02436589  0.24778979  1
  O  O337  1  0.90601354  0.01751427  0.57698051  1
  O  O338  1  0.90051966  0.01175258  0.90603859  1
  O  O339  1  0.92401896  0.51919661  0.25327627  1
  O  O340  1  0.92978422  0.51330236  0.59132850  1
  O  O341  1  0.91256867  0.51646362  0.91310614  1
  O  O342  1  0.08357184  0.23104424  0.24790612  1
  O  O343  1  0.08173302  0.25116139  0.58239662  1
  O  O344  1  0.08121972  0.25301284  0.91762596  1
  O  O345  1  0.08500058  0.73208762  0.24873080  1
  O  O346  1  0.08938431  0.72633174  0.58327396  1
  O  O347  1  0.09169384  0.73807678  0.90478229  1
  O  O348  1  0.41242749  0.23226617  0.25588116  1
  O  O349  1  0.41559289  0.22286802  0.59186428  1
  O  O350  1  0.41570645  0.23025512  0.91590976  1
  O  O351  1  0.42577707  0.73983126  0.24133349  1
  O  O352  1  0.41760265  0.73764117  0.59046867  1
  O  O353  1  0.41477602  0.72223301  0.92047798  1
  O  O354  1  0.76241599  0.23390633  0.24020630  1
  O  O355  1  0.74641730  0.23435364  0.58703440  1
  O  O356  1  0.74103365  0.22814658  0.91831073  1
  O  O357  1  0.76283182  0.74157401  0.23561419  1
  O  O358  1  0.75191532  0.74293035  0.58620660  1
  O  O359  1  0.75248785  0.73440512  0.90885091  1
