# generated using pymatgen
data_Ba17Sr5La8Pr42Mn72O216
_symmetry_space_group_name_H-M   'P 1'
_cell_length_a   16.67344792
_cell_length_b   15.70246302
_cell_length_c   16.81415060
_cell_angle_alpha   90.00569883
_cell_angle_beta   89.94591225
_cell_angle_gamma   90.00467015
_symmetry_Int_Tables_number   1
_chemical_formula_structural   Ba17Sr5La8Pr42Mn72O216
_chemical_formula_sum   'Ba17 Sr5 La8 Pr42 Mn72 O216'
_cell_volume   4402.18137731
_cell_formula_units_Z   1
loop_
 _symmetry_equiv_pos_site_id
 _symmetry_equiv_pos_as_xyz
  1  'x, y, z'
loop_
 _atom_site_type_symbol
 _atom_site_label
 _atom_site_symmetry_multiplicity
 _atom_site_fract_x
 _atom_site_fract_y
 _atom_site_fract_z
 _atom_site_occupancy
  Ba  Ba0  1  0.49924347  0.62495803  0.83328461  1
  Ba  Ba1  1  0.00183838  0.87538243  0.00511363  1
  Ba  Ba2  1  0.00085540  0.37418477  0.66931386  1
  Ba  Ba3  1  0.66639829  0.87527507  0.00454696  1
  Ba  Ba4  1  0.50015956  0.87494816  0.16389295  1
  Ba  Ba5  1  0.83377253  0.37580485  0.83236291  1
  Ba  Ba6  1  0.16916713  0.37510209  0.16425509  1
  Ba  Ba7  1  0.49883562  0.12493298  0.50272922  1
  Ba  Ba8  1  0.00105373  0.37596748  0.33576455  1
  Ba  Ba9  1  0.16529367  0.37473192  0.49830446  1
  Ba  Ba10  1  0.66756803  0.87397642  0.33359452  1
  Ba  Ba11  1  0.16835665  0.87472223  0.16450239  1
  Ba  Ba12  1  0.83354837  0.87514311  0.16746119  1
  Ba  Ba13  1  0.50134473  0.37348676  0.50080703  1
  Ba  Ba14  1  0.66590571  0.37457138  0.00088185  1
  Ba  Ba15  1  0.33488201  0.62415435  0.33073035  1
  Ba  Ba16  1  -0.00011048  0.87572510  0.66971597  1
  Sr  Sr17  1  0.33473229  0.87351713  0.00061988  1
  Sr  Sr18  1  0.16344815  0.62747080  0.83168578  1
  Sr  Sr19  1  0.00264554  0.87478433  0.33680285  1
  Sr  Sr20  1  0.83822691  0.62441666  0.83717546  1
  Sr  Sr21  1  0.83201205  0.12350042  0.50019918  1
  La  La22  1  0.49988369  0.87327623  0.83653416  1
  La  La23  1  0.83203608  0.62584322  0.16684957  1
  La  La24  1  0.83471518  0.62788602  0.50180058  1
  La  La25  1  0.15962335  0.62344901  0.50115324  1
  La  La26  1  0.49833461  0.12642330  0.83480013  1
  La  La27  1  0.33078085  0.62547136  0.65977392  1
  La  La28  1  0.66752186  0.37377217  0.33613301  1
  La  La29  1  0.16313899  0.12262712  0.16652439  1
  Pr  Pr30  1  0.33851865  0.87494971  0.33174364  1
  Pr  Pr31  1  0.00298632  0.62291770  0.33264844  1
  Pr  Pr32  1  0.83193334  0.87397506  0.83371301  1
  Pr  Pr33  1  0.50104857  0.62554286  0.16361400  1
  Pr  Pr34  1  0.66526309  0.62405097  0.33257225  1
  Pr  Pr35  1  0.50336929  0.87523513  0.49492944  1
  Pr  Pr36  1  0.83994768  0.37451250  0.16279444  1
  Pr  Pr37  1  0.83559789  0.12532060  0.83472212  1
  Pr  Pr38  1  0.32945134  0.12206687  0.99592456  1
  Pr  Pr39  1  0.00411974  0.62698810  1.00021425  1
  Pr  Pr40  1  0.67188939  0.62108531  0.66761046  1
  Pr  Pr41  1  0.17033320  0.37605475  0.82407156  1
  Pr  Pr42  1  0.82923307  0.12381809  0.17051084  1
  Pr  Pr43  1  0.00144519  0.37826571  0.00181412  1
  Pr  Pr44  1  -0.01023870  0.12676602  0.66357640  1
  Pr  Pr45  1  0.33327591  0.37552630  0.33633410  1
  Pr  Pr46  1  0.15690767  0.12560472  0.50007256  1
  Pr  Pr47  1  0.17519466  0.87336869  0.83225804  1
  Pr  Pr48  1  0.16404366  0.62775790  0.16578756  1
  Pr  Pr49  1  -0.00672238  0.12837578  0.33293249  1
  Pr  Pr50  1  0.67223697  0.62996957  0.99682777  1
  Pr  Pr51  1  0.32993908  0.62806016  0.99531822  1
  Pr  Pr52  1  0.84010938  0.87704832  0.49315765  1
  Pr  Pr53  1  0.66402264  0.37234684  0.67292861  1
  Pr  Pr54  1  0.15789807  0.12123284  0.83280673  1
  Pr  Pr55  1  0.66325009  0.87896772  0.67100294  1
  Pr  Pr56  1  0.33723689  0.37664653  -0.00492627  1
  Pr  Pr57  1  0.83343588  0.37407114  0.50032494  1
  Pr  Pr58  1  0.33190802  0.12928529  0.32856681  1
  Pr  Pr59  1  0.66948495  0.12178252  1.00197823  1
  Pr  Pr60  1  0.66457434  0.12446020  0.33408057  1
  Pr  Pr61  1  0.49917611  0.12329705  0.16780084  1
  Pr  Pr62  1  0.50327899  0.37756789  0.82749975  1
  Pr  Pr63  1  -0.00355147  0.62338425  0.66869713  1
  Pr  Pr64  1  0.50191109  0.62846511  0.50543461  1
  Pr  Pr65  1  -0.00076402  0.12407164  1.00447541  1
  Pr  Pr66  1  0.49837030  0.37583229  0.16657342  1
  Pr  Pr67  1  0.32663890  0.12425751  0.65853142  1
  Pr  Pr68  1  0.33729812  0.87555329  0.66398467  1
  Pr  Pr69  1  0.67104815  0.12821152  0.66428062  1
  Pr  Pr70  1  0.33549565  0.37462123  0.66522844  1
  Pr  Pr71  1  0.17153757  0.87427820  0.49128740  1
  Mn  Mn72  1  -0.00078573  0.00225261  0.17011652  1
  Mn  Mn73  1  0.00039635  0.00017686  0.50199097  1
  Mn  Mn74  1  -0.00055528  -0.00138299  0.83462506  1
  Mn  Mn75  1  0.00119150  0.50037959  0.16651340  1
  Mn  Mn76  1  -0.00273189  0.50142479  0.50109700  1
  Mn  Mn77  1  0.00254938  0.50231788  0.83528881  1
  Mn  Mn78  1  0.33307205  0.00204315  0.16330498  1
  Mn  Mn79  1  0.33063950  -0.00011412  0.49758138  1
  Mn  Mn80  1  0.33415706  0.00016657  0.82852523  1
  Mn  Mn81  1  0.33484584  0.49853205  0.16245477  1
  Mn  Mn82  1  0.33431293  0.50007510  0.49789595  1
  Mn  Mn83  1  0.33170109  0.50075617  0.83072113  1
  Mn  Mn84  1  0.66637734  0.00250016  0.16706089  1
  Mn  Mn85  1  0.66789374  0.00068987  0.50358224  1
  Mn  Mn86  1  0.66615324  0.00073763  0.83436724  1
  Mn  Mn87  1  0.66636329  0.49898907  0.16850086  1
  Mn  Mn88  1  0.66793675  0.50023517  0.50023537  1
  Mn  Mn89  1  0.66715518  0.50211262  0.83453791  1
  Mn  Mn90  1  0.00041258  0.25080351  0.16621965  1
  Mn  Mn91  1  -0.00297838  0.24889816  0.50038515  1
  Mn  Mn92  1  0.00198438  0.24664290  0.83527360  1
  Mn  Mn93  1  -0.00020130  0.74785237  0.16906400  1
  Mn  Mn94  1  0.00067532  0.75018321  0.50230348  1
  Mn  Mn95  1  0.00050242  0.75138315  0.83562678  1
  Mn  Mn96  1  0.33421035  0.25118413  0.16200324  1
  Mn  Mn97  1  0.33131883  0.24860666  0.49754733  1
  Mn  Mn98  1  0.33209644  0.24729125  0.82949406  1
  Mn  Mn99  1  0.33457965  0.74838738  0.16278388  1
  Mn  Mn100  1  0.33363039  0.75022646  0.49773964  1
  Mn  Mn101  1  0.33294213  0.75107074  0.82991772  1
  Mn  Mn102  1  0.66597514  0.25075519  0.16977065  1
  Mn  Mn103  1  0.66818851  0.25018845  0.50161267  1
  Mn  Mn104  1  0.66548784  0.24650431  0.83469539  1
  Mn  Mn105  1  0.66683298  0.74615573  0.16608693  1
  Mn  Mn106  1  0.66791476  0.74946792  0.50426839  1
  Mn  Mn107  1  0.66780350  0.75129005  0.83351274  1
  Mn  Mn108  1  0.16751112  0.24949115  -0.00481319  1
  Mn  Mn109  1  0.16784297  0.24801648  0.33231361  1
  Mn  Mn110  1  0.16719514  0.24719165  0.66631367  1
  Mn  Mn111  1  0.16842177  0.74880929  -0.00168291  1
  Mn  Mn112  1  0.16750403  0.75016134  0.33234793  1
  Mn  Mn113  1  0.16652704  0.75111194  0.66532212  1
  Mn  Mn114  1  0.49817416  0.24953050  -0.00017739  1
  Mn  Mn115  1  0.50043189  0.24843566  0.33146492  1
  Mn  Mn116  1  0.49768964  0.24861017  0.67012176  1
  Mn  Mn117  1  0.49851751  0.74810907  -0.00042938  1
  Mn  Mn118  1  0.50061353  0.74847979  0.33427404  1
  Mn  Mn119  1  0.50031072  0.75149489  0.66619268  1
  Mn  Mn120  1  0.83448238  0.25048979  0.00156581  1
  Mn  Mn121  1  0.83138531  0.25099265  0.33456882  1
  Mn  Mn122  1  0.83132091  0.24983270  0.66654889  1
  Mn  Mn123  1  0.83552455  0.74849437  0.00026055  1
  Mn  Mn124  1  0.83439746  0.74848130  0.33614855  1
  Mn  Mn125  1  0.83118832  0.75082967  0.66852717  1
  Mn  Mn126  1  0.16792321  0.00179393  -0.00097753  1
  Mn  Mn127  1  0.16764343  0.00102264  0.33358266  1
  Mn  Mn128  1  0.16651046  -0.00134786  0.66497877  1
  Mn  Mn129  1  0.16814416  0.49925537  -0.00497701  1
  Mn  Mn130  1  0.16867652  0.50155400  0.33172398  1
  Mn  Mn131  1  0.16755572  0.50226223  0.66658731  1
  Mn  Mn132  1  0.49759506  0.00446388  0.00005291  1
  Mn  Mn133  1  0.49914217  0.00078347  0.33453046  1
  Mn  Mn134  1  0.49882510  -0.00024125  0.66832533  1
  Mn  Mn135  1  0.49889357  0.49853828  -0.00042573  1
  Mn  Mn136  1  0.50173735  0.50045197  0.33247664  1
  Mn  Mn137  1  0.49935681  0.50110719  0.66675418  1
  Mn  Mn138  1  0.83439903  0.00370497  0.00125203  1
  Mn  Mn139  1  0.83409951  0.00055375  0.33624331  1
  Mn  Mn140  1  0.83060124  -0.00234281  0.66687587  1
  Mn  Mn141  1  0.83459263  0.49890632  0.00142128  1
  Mn  Mn142  1  0.83138752  0.50051636  0.33468302  1
  Mn  Mn143  1  0.83245110  0.50229410  0.66763363  1
  O  O144  1  0.17355184  0.12868512  0.02091947  1
  O  O145  1  0.17834052  0.12308489  0.35585345  1
  O  O146  1  0.17540682  0.12142336  0.69049884  1
  O  O147  1  0.17108598  0.62081825  0.02069261  1
  O  O148  1  0.16335374  0.62731219  0.35445614  1
  O  O149  1  0.17026671  0.62716947  0.68333460  1
  O  O150  1  0.48556141  0.12972285  0.02249819  1
  O  O151  1  0.49671710  0.12394708  0.34720776  1
  O  O152  1  0.48765213  0.12523193  0.69002634  1
  O  O153  1  0.48629386  0.61784581  0.01883438  1
  O  O154  1  0.50505023  0.62401363  0.36110840  1
  O  O155  1  0.48785136  0.62770566  0.67639589  1
  O  O156  1  0.82925702  0.13050148  0.02487916  1
  O  O157  1  0.83167062  0.12618582  0.35204394  1
  O  O158  1  0.82883419  0.12238927  0.68927431  1
  O  O159  1  0.82889410  0.61860094  0.02064814  1
  O  O160  1  0.82482905  0.62277425  0.35906212  1
  O  O161  1  0.82845909  0.62748095  0.68818292  1
  O  O162  1  0.17326198  0.37421762  0.32155079  1
  O  O163  1  0.17268251  0.37424177  0.65524179  1
  O  O164  1  0.16454444  0.37261246  0.96851636  1
  O  O165  1  0.16433782  0.87578281  0.32204757  1
  O  O166  1  0.17095851  0.87559698  0.63604751  1
  O  O167  1  0.17001240  0.87662719  0.97724684  1
  O  O168  1  0.50531868  0.37339758  0.30965243  1
  O  O169  1  0.50946189  0.37374365  0.65822704  1
  O  O170  1  0.49702255  0.37178743  0.97064227  1
  O  O171  1  0.49607421  0.87677736  0.32175970  1
  O  O172  1  0.50652539  0.87401495  0.63939710  1
  O  O173  1  0.50022118  0.88149967  0.98015976  1
  O  O174  1  0.82806071  0.37711616  0.30606866  1
  O  O175  1  0.82739942  0.37665777  0.64529541  1
  O  O176  1  0.84287218  0.37350159  0.98808786  1
  O  O177  1  0.83861231  0.87494886  0.32544490  1
  O  O178  1  0.82559677  0.87404363  0.63813527  1
  O  O179  1  0.83548204  0.88042307  0.97894417  1
  O  O180  1  -0.00547305  0.37544851  0.17976098  1
  O  O181  1  -0.00816107  0.37681938  0.51234580  1
  O  O182  1  0.00897535  0.37050803  0.85682808  1
  O  O183  1  -0.00002857  0.87478837  0.18468950  1
  O  O184  1  -0.00143203  0.87546844  0.51300039  1
  O  O185  1  -0.01080244  0.87715147  0.84933385  1
  O  O186  1  0.33795784  0.37337415  0.19263812  1
  O  O187  1  0.33029891  0.37461597  0.51912971  1
  O  O188  1  0.32140706  0.37038139  0.85317711  1
  O  O189  1  0.33245984  0.87628952  0.18733951  1
  O  O190  1  0.32351915  0.87543945  0.52094159  1
  O  O191  1  0.32615466  0.87756116  0.85145477  1
  O  O192  1  0.65701923  0.37503713  0.19366848  1
  O  O193  1  0.67238441  0.37763390  0.52829591  1
  O  O194  1  0.65619933  0.37255266  0.84163289  1
  O  O195  1  0.66497475  0.87480268  0.17520069  1
  O  O196  1  0.66135873  0.87471612  0.52702087  1
  O  O197  1  0.66525533  0.87691272  0.84957584  1
  O  O198  1  -0.00178885  0.13021740  0.14945005  1
  O  O199  1  0.00064583  0.12263560  0.48009610  1
  O  O200  1  0.00476508  0.12029032  0.80626669  1
  O  O201  1  0.00473015  0.62049795  0.14615463  1
  O  O202  1  -0.00371914  0.62653755  0.47961976  1
  O  O203  1  0.00255934  0.63035773  0.81117574  1
  O  O204  1  0.33833609  0.12995771  0.13988389  1
  O  O205  1  0.33005072  0.12199757  0.47497149  1
  O  O206  1  0.34252747  0.12354914  0.80006472  1
  O  O207  1  0.34170021  0.61972412  0.13970309  1
  O  O208  1  0.34797979  0.62572070  0.48968959  1
  O  O209  1  0.33302328  0.62839454  0.80394828  1
  O  O210  1  0.67452513  0.13005734  0.14761907  1
  O  O211  1  0.67035651  0.12509731  0.47889060  1
  O  O212  1  0.67118856  0.12201484  0.80747577  1
  O  O213  1  0.67122397  0.61828025  0.14278185  1
  O  O214  1  0.66790223  0.62300278  0.47578054  1
  O  O215  1  0.67136966  0.62980343  0.81146580  1
  O  O216  1  0.07886895  0.02507922  0.26008163  1
  O  O217  1  0.07771105  0.02519986  0.59274435  1
  O  O218  1  0.08155546  0.02223075  0.92295062  1
  O  O219  1  0.08334114  0.52106661  0.24959086  1
  O  O220  1  0.07971718  0.52161450  0.58801561  1
  O  O221  1  0.08167070  0.52116659  0.92001785  1
  O  O222  1  0.41117283  0.02050777  0.24977146  1
  O  O223  1  0.40254282  0.00958529  0.58927068  1
  O  O224  1  0.41569911  0.02096773  0.91288785  1
  O  O225  1  0.42561148  0.51147341  0.24063475  1
  O  O226  1  0.41373322  0.50905078  0.58673521  1
  O  O227  1  0.40779514  0.50850235  0.91883281  1
  O  O228  1  0.74805571  0.02060637  0.25369571  1
  O  O229  1  0.74560960  0.01917676  0.58948812  1
  O  O230  1  0.75115213  0.02385674  0.91477899  1
  O  O231  1  0.74646962  0.52029544  0.25500750  1
  O  O232  1  0.75164478  0.52392476  0.57989329  1
  O  O233  1  0.75056888  0.51456981  0.92063667  1
  O  O234  1  0.24958851  0.22801071  0.24259873  1
  O  O235  1  0.24241343  0.22605098  0.57774286  1
  O  O236  1  0.24605659  0.22242658  0.90400034  1
  O  O237  1  0.24592366  0.73227438  0.23946534  1
  O  O238  1  0.24837059  0.72898913  0.57447245  1
  O  O239  1  0.24937916  0.73271554  0.91092501  1
  O  O240  1  0.58266593  0.22392785  0.24990036  1
  O  O241  1  0.58746397  0.23494820  0.59449107  1
  O  O242  1  0.58299583  0.22273909  0.92141292  1
  O  O243  1  0.58642539  0.72577793  0.25203225  1
  O  O244  1  0.58632924  0.72464450  0.58805188  1
  O  O245  1  0.58782133  0.73445802  0.92154216  1
  O  O246  1  0.91101465  0.23179049  0.24856683  1
  O  O247  1  0.91403972  0.23302990  0.58657977  1
  O  O248  1  0.91939790  0.22440917  0.91538590  1
  O  O249  1  0.91796074  0.72327281  0.25307242  1
  O  O250  1  0.91567606  0.72957733  0.58803133  1
  O  O251  1  0.92169023  0.72932265  0.92168728  1
  O  O252  1  0.08252362  0.48533835  0.07525595  1
  O  O253  1  0.08050445  0.50002374  0.41971463  1
  O  O254  1  0.09224619  0.48802376  0.75616399  1
  O  O255  1  0.08499657  1.00275798  0.09063502  1
  O  O256  1  0.09430287  0.99013919  0.43064814  1
  O  O257  1  0.09745793  0.98188683  0.76024914  1
  O  O258  1  0.41770486  0.47022150  0.08140244  1
  O  O259  1  0.41639014  0.48092871  0.40893744  1
  O  O260  1  0.41619103  0.47565085  0.75234870  1
  O  O261  1  0.41442535  0.99117710  0.08003660  1
  O  O262  1  0.41599565  0.97716981  0.42154710  1
  O  O263  1  0.41980218  0.97142279  0.75206395  1
  O  O264  1  0.75577105  0.48030489  0.09479776  1
  O  O265  1  0.75023964  0.47473199  0.41843821  1
  O  O266  1  0.74245851  0.48680876  0.74020888  1
  O  O267  1  0.75005572  0.99905869  0.08376513  1
  O  O268  1  0.75733432  0.98414496  0.42599561  1
  O  O269  1  0.74783179  0.97657336  0.74989138  1
  O  O270  1  0.25876913  0.26668491  0.06753036  1
  O  O271  1  0.25783453  0.26224019  0.40484857  1
  O  O272  1  0.25860089  0.26572220  0.73943444  1
  O  O273  1  0.25481983  0.75371955  0.07548275  1
  O  O274  1  0.25490996  0.76991052  0.41042674  1
  O  O275  1  0.25400443  0.77360348  0.74228776  1
  O  O276  1  0.57963463  0.25964730  0.09145039  1
  O  O277  1  0.59154364  0.26083867  0.41152814  1
  O  O278  1  0.57708414  0.25728114  0.75784444  1
  O  O279  1  0.58112251  0.74357701  0.08555792  1
  O  O280  1  0.57890119  0.76146183  0.42882854  1
  O  O281  1  0.58169864  0.77114629  0.75043620  1
  O  O282  1  0.92177683  0.26804927  0.08129896  1
  O  O283  1  0.91109751  0.26225010  0.41794916  1
  O  O284  1  0.91640286  0.25133376  0.75153436  1
  O  O285  1  0.91683000  0.74883042  0.08766970  1
  O  O286  1  0.91814641  0.76174468  0.42224944  1
  O  O287  1  0.90799632  0.76510581  0.75639732  1
  O  O288  1  0.25885695  0.48283757  0.06837256  1
  O  O289  1  0.25533162  0.48928333  0.41084691  1
  O  O290  1  0.25640502  0.48193178  0.74233316  1
  O  O291  1  0.25468091  0.99426635  0.07484079  1
  O  O292  1  0.25724404  0.97700496  0.40803537  1
  O  O293  1  0.25735991  0.97889955  0.73775374  1
  O  O294  1  0.57643660  0.48657360  0.09297307  1
  O  O295  1  0.59104119  0.48478626  0.41111648  1
  O  O296  1  0.58213399  0.48954659  0.74897056  1
  O  O297  1  0.58225787  1.00847344  0.08344750  1
  O  O298  1  0.58302421  0.98681182  0.42536680  1
  O  O299  1  0.58128105  0.98204414  0.75736782  1
  O  O300  1  0.91703864  0.48406624  0.08590844  1
  O  O301  1  0.90721876  0.48893251  0.42385823  1
  O  O302  1  0.91997700  0.49613760  0.75091618  1
  O  O303  1  0.91691765  1.00100150  0.08471119  1
  O  O304  1  0.92150539  0.98763558  0.41654986  1
  O  O305  1  0.90646927  0.98836203  0.75556343  1
  O  O306  1  0.08226994  0.26186951  0.07676979  1
  O  O307  1  0.08509611  0.24849995  0.41722690  1
  O  O308  1  0.09508179  0.25910840  0.76045591  1
  O  O309  1  0.08667955  0.74973172  0.08690864  1
  O  O310  1  0.09066072  0.76135994  0.42642968  1
  O  O311  1  0.08997233  0.76928057  0.75977369  1
  O  O312  1  0.41803257  0.27824880  0.08203356  1
  O  O313  1  0.41492721  0.26424106  0.40766017  1
  O  O314  1  0.41794398  0.27731364  0.75492690  1
  O  O315  1  0.41425258  0.75948834  0.07879714  1
  O  O316  1  0.41584291  0.77281832  0.41800636  1
  O  O317  1  0.41754945  0.77658615  0.74715261  1
  O  O318  1  0.75591010  0.26795520  0.09786045  1
  O  O319  1  0.75268897  0.27539626  0.41839605  1
  O  O320  1  0.74181796  0.26214335  0.74247816  1
  O  O321  1  0.74944304  0.75069576  0.08285706  1
  O  O322  1  0.75573994  0.76564760  0.42932597  1
  O  O323  1  0.74654926  0.77608257  0.74743573  1
  O  O324  1  0.24872537  0.02361383  0.24311240  1
  O  O325  1  0.24055671  0.02108516  0.57245554  1
  O  O326  1  0.24810228  0.02280199  0.90393338  1
  O  O327  1  0.24760011  0.51687247  0.23660403  1
  O  O328  1  0.24681629  0.52158523  0.57987281  1
  O  O329  1  0.24794241  0.51951555  0.90965293  1
  O  O330  1  0.58447198  0.02272218  0.24988848  1
  O  O331  1  0.58698932  0.01814164  0.59498040  1
  O  O332  1  0.58297310  0.02730354  0.91844568  1
  O  O333  1  0.58468465  0.52646825  0.25093319  1
  O  O334  1  0.58453435  0.52387586  0.58206794  1
  O  O335  1  0.58700374  0.51759107  0.92526665  1
  O  O336  1  0.91444757  0.02416526  0.25145933  1
  O  O337  1  0.91473547  0.01637356  0.58599111  1
  O  O338  1  0.91488846  0.02885079  0.91918065  1
  O  O339  1  0.91452099  0.52301244  0.25432568  1
  O  O340  1  0.91580231  0.52335875  0.58637607  1
  O  O341  1  0.92362683  0.51454436  0.92462923  1
  O  O342  1  0.08214640  0.22759711  0.25183590  1
  O  O343  1  0.07913118  0.22679300  0.59098767  1
  O  O344  1  0.08091754  0.22073460  0.91929606  1
  O  O345  1  0.08039381  0.72739318  0.25426007  1
  O  O346  1  0.07916612  0.72692438  0.58803319  1
  O  O347  1  0.08225868  0.73311883  0.92208633  1
  O  O348  1  0.41733441  0.23079810  0.24556262  1
  O  O349  1  0.40645780  0.24000847  0.59298996  1
  O  O350  1  0.41014306  0.22973270  0.91461740  1
  O  O351  1  0.42025171  0.73496883  0.24359400  1
  O  O352  1  0.41742275  0.74291682  0.58135092  1
  O  O353  1  0.41315970  0.74133514  0.91483549  1
  O  O354  1  0.74338780  0.23053451  0.25852679  1
  O  O355  1  0.74953746  0.23218489  0.58389206  1
  O  O356  1  0.74962979  0.22968702  0.91631778  1
  O  O357  1  0.74884036  0.72829652  0.25095138  1
  O  O358  1  0.74772359  0.72546226  0.58706884  1
  O  O359  1  0.75356850  0.73657691  0.91455749  1
