# generated using pymatgen
data_Ba17Sr5La8Pr42Mn72O216
_symmetry_space_group_name_H-M   'P 1'
_cell_length_a   16.67642581
_cell_length_b   15.70545714
_cell_length_c   16.81931403
_cell_angle_alpha   89.99943168
_cell_angle_beta   89.99592995
_cell_angle_gamma   89.96961841
_symmetry_Int_Tables_number   1
_chemical_formula_structural   Ba17Sr5La8Pr42Mn72O216
_chemical_formula_sum   'Ba17 Sr5 La8 Pr42 Mn72 O216'
_cell_volume   4405.16088895
_cell_formula_units_Z   1
loop_
 _symmetry_equiv_pos_site_id
 _symmetry_equiv_pos_as_xyz
  1  'x, y, z'
loop_
 _atom_site_type_symbol
 _atom_site_label
 _atom_site_symmetry_multiplicity
 _atom_site_fract_x
 _atom_site_fract_y
 _atom_site_fract_z
 _atom_site_occupancy
  Ba  Ba0  1  0.83212186  0.12450250  0.49990575  1
  Ba  Ba1  1  0.00195133  0.87451732  -0.00030545  1
  Ba  Ba2  1  0.16770785  0.87344139  0.49736464  1
  Ba  Ba3  1  0.66601064  0.62518191  0.33360571  1
  Ba  Ba4  1  -0.00015369  0.37615943  0.66548713  1
  Ba  Ba5  1  0.66627123  0.37467869  0.00314580  1
  Ba  Ba6  1  0.83230415  0.12553023  0.83421996  1
  Ba  Ba7  1  -0.00000517  0.12446258  0.99930142  1
  Ba  Ba8  1  0.66237107  0.62503261  1.00013922  1
  Ba  Ba9  1  0.16862628  0.37514077  0.82962118  1
  Ba  Ba10  1  -0.00207212  0.12674417  0.66493794  1
  Ba  Ba11  1  0.33599221  0.37475088  0.66933643  1
  Ba  Ba12  1  0.33602477  0.87719104  0.33650527  1
  Ba  Ba13  1  -0.00216779  0.62445487  0.66326710  1
  Ba  Ba14  1  0.83194194  0.87467988  0.83474270  1
  Ba  Ba15  1  0.66732169  0.87595993  0.00080502  1
  Ba  Ba16  1  0.83006019  0.37427854  0.83360069  1
  Sr  Sr17  1  0.83591684  0.37808124  0.16230510  1
  Sr  Sr18  1  0.32862997  0.12473101  0.33244730  1
  Sr  Sr19  1  0.50439775  0.37418900  0.16912139  1
  Sr  Sr20  1  0.16761159  0.37645785  0.49919228  1
  Sr  Sr21  1  0.66466309  0.12687531  1.00072617  1
  La  La22  1  0.50599787  0.37365051  0.49909322  1
  La  La23  1  0.49944297  0.12626433  0.16891323  1
  La  La24  1  0.16825456  0.87665304  0.82926579  1
  La  La25  1  0.84047592  0.37501496  0.49910909  1
  La  La26  1  0.00085225  0.87894568  0.66909420  1
  La  La27  1  0.17177934  0.87739462  0.16360589  1
  La  La28  1  0.33963528  0.87561892  0.66922033  1
  La  La29  1  0.66358102  0.62596569  0.66475446  1
  Pr  Pr30  1  0.50935492  0.87568192  0.83545861  1
  Pr  Pr31  1  0.50473038  0.37470189  0.83449224  1
  Pr  Pr32  1  0.00080257  0.12780606  0.32924745  1
  Pr  Pr33  1  0.32717025  0.12442515  1.00010263  1
  Pr  Pr34  1  0.17140398  0.37310688  0.16100990  1
  Pr  Pr35  1  -0.00271488  0.37139904  -0.00130200  1
  Pr  Pr36  1  0.49539425  0.12591136  0.83980405  1
  Pr  Pr37  1  0.66543733  0.12570914  0.33014522  1
  Pr  Pr38  1  0.15992042  0.13061813  0.83242869  1
  Pr  Pr39  1  0.67210500  0.87812703  0.67029732  1
  Pr  Pr40  1  0.82940511  0.62387103  0.50236801  1
  Pr  Pr41  1  0.82724217  0.62582118  0.16661122  1
  Pr  Pr42  1  0.67222840  0.87486912  0.33492735  1
  Pr  Pr43  1  0.32572034  0.62387130  0.66857318  1
  Pr  Pr44  1  0.32621167  0.62504085  0.99957496  1
  Pr  Pr45  1  0.49290737  0.12387162  0.50447805  1
  Pr  Pr46  1  0.00570934  0.37497201  0.33509123  1
  Pr  Pr47  1  0.33773386  0.37509440  0.00365088  1
  Pr  Pr48  1  0.32447861  0.12660829  0.66624887  1
  Pr  Pr49  1  0.34019663  0.37334746  0.34085328  1
  Pr  Pr50  1  0.16862956  0.62587012  0.49990284  1
  Pr  Pr51  1  0.15721786  0.62055107  0.83228216  1
  Pr  Pr52  1  -0.00646781  0.62244949  0.99390698  1
  Pr  Pr53  1  0.66825742  0.37221867  0.67065736  1
  Pr  Pr54  1  0.49355362  0.62659495  0.50555748  1
  Pr  Pr55  1  0.83297927  0.62231570  0.83253204  1
  Pr  Pr56  1  0.83693244  0.87091207  0.15879319  1
  Pr  Pr57  1  0.00063629  0.62348161  0.33064831  1
  Pr  Pr58  1  0.67792661  0.37570861  0.33385880  1
  Pr  Pr59  1  0.49311623  0.62406474  0.83982038  1
  Pr  Pr60  1  0.82804391  0.12362592  0.16765985  1
  Pr  Pr61  1  0.16246534  0.62545527  0.16570234  1
  Pr  Pr62  1  0.49894713  0.62262868  0.17044175  1
  Pr  Pr63  1  0.83941022  0.87437904  0.49987480  1
  Pr  Pr64  1  0.32880329  0.62578588  0.33262216  1
  Pr  Pr65  1  0.16524355  0.12323190  0.49916064  1
  Pr  Pr66  1  0.00195620  0.87582066  0.33284140  1
  Pr  Pr67  1  0.33842972  0.87429827  0.00585680  1
  Pr  Pr68  1  0.50792109  0.87545811  0.16824330  1
  Pr  Pr69  1  0.66583607  0.12494861  0.66673384  1
  Pr  Pr70  1  0.16090231  0.12462603  0.16787344  1
  Pr  Pr71  1  0.50627946  0.87597443  0.49854708  1
  Mn  Mn72  1  0.00078928  0.00072244  0.16827569  1
  Mn  Mn73  1  0.00058529  -0.00125023  0.49732804  1
  Mn  Mn74  1  0.00062400  -0.00113005  0.83318165  1
  Mn  Mn75  1  0.00228907  0.50049409  0.16377359  1
  Mn  Mn76  1  0.00102476  0.50068417  0.49457057  1
  Mn  Mn77  1  -0.00242912  0.50029227  0.83195653  1
  Mn  Mn78  1  0.33422621  0.00071355  0.16760063  1
  Mn  Mn79  1  0.33461282  0.00176954  0.50188634  1
  Mn  Mn80  1  0.33375425  -0.00069062  0.83493812  1
  Mn  Mn81  1  0.33453077  0.49955459  0.16962506  1
  Mn  Mn82  1  0.33480771  0.49909965  0.50020880  1
  Mn  Mn83  1  0.33385884  0.50140499  0.83556192  1
  Mn  Mn84  1  0.66778713  0.00103353  0.16872098  1
  Mn  Mn85  1  0.66535152  -0.00022713  0.49918067  1
  Mn  Mn86  1  0.66448953  0.00187074  0.83412014  1
  Mn  Mn87  1  0.66576904  0.50001884  0.16860099  1
  Mn  Mn88  1  0.66532711  0.49997776  0.50062811  1
  Mn  Mn89  1  0.66245230  0.50131512  0.83095031  1
  Mn  Mn90  1  0.00000523  0.25243787  0.16667871  1
  Mn  Mn91  1  0.00294715  0.25173699  0.49574108  1
  Mn  Mn92  1  -0.00111400  0.25092992  0.83278437  1
  Mn  Mn93  1  0.00276060  0.74699992  0.16589129  1
  Mn  Mn94  1  -0.00100179  0.74909583  0.49659256  1
  Mn  Mn95  1  0.00031047  0.74980079  0.83169112  1
  Mn  Mn96  1  0.33403656  0.24981126  0.16931590  1
  Mn  Mn97  1  0.33380783  0.24912165  0.50040830  1
  Mn  Mn98  1  0.33486319  0.24762765  0.83490083  1
  Mn  Mn99  1  0.33460605  0.74887121  0.16710759  1
  Mn  Mn100  1  0.33556318  0.74952493  0.50182219  1
  Mn  Mn101  1  0.33274606  0.75186973  0.83544894  1
  Mn  Mn102  1  0.66748934  0.24972561  0.16784970  1
  Mn  Mn103  1  0.66602179  0.25032615  0.49942247  1
  Mn  Mn104  1  0.66339401  0.24876858  0.83442236  1
  Mn  Mn105  1  0.66588615  0.74904661  0.16848502  1
  Mn  Mn106  1  0.66557879  0.75081465  0.49997528  1
  Mn  Mn107  1  0.66385941  0.74870525  0.83038500  1
  Mn  Mn108  1  0.16853194  0.25207641  -0.00049777  1
  Mn  Mn109  1  0.16890437  0.25183305  0.33110974  1
  Mn  Mn110  1  0.16655923  0.24957020  0.66436103  1
  Mn  Mn111  1  0.16849921  0.74816194  -0.00252253  1
  Mn  Mn112  1  0.16632324  0.74766526  0.33083617  1
  Mn  Mn113  1  0.16783837  0.74976552  0.66530405  1
  Mn  Mn114  1  0.49710767  0.24912236  0.00377891  1
  Mn  Mn115  1  0.50202527  0.24929904  0.33526533  1
  Mn  Mn116  1  0.50011317  0.24724575  0.66886249  1
  Mn  Mn117  1  0.49629268  0.75044621  0.00350491  1
  Mn  Mn118  1  0.50037491  0.74937680  0.33601627  1
  Mn  Mn119  1  0.49920779  0.75057385  0.66967536  1
  Mn  Mn120  1  0.83282946  0.25065477  0.00291628  1
  Mn  Mn121  1  0.83523029  0.25069445  0.33150763  1
  Mn  Mn122  1  0.83069402  0.24983432  0.66475696  1
  Mn  Mn123  1  0.83264949  0.74809755  -0.00035243  1
  Mn  Mn124  1  0.83637245  0.75099479  0.33237016  1
  Mn  Mn125  1  0.83135674  0.74974908  0.66396443  1
  Mn  Mn126  1  0.16958957  -0.00053105  -0.00361355  1
  Mn  Mn127  1  0.16612816  0.00172928  0.33210046  1
  Mn  Mn128  1  0.16757358  -0.00130689  0.66511616  1
  Mn  Mn129  1  0.16700186  0.49888962  0.00017673  1
  Mn  Mn130  1  0.16896008  0.49967787  0.32952776  1
  Mn  Mn131  1  0.16698261  0.50061938  0.66423063  1
  Mn  Mn132  1  0.49742851  0.00048332  0.00339786  1
  Mn  Mn133  1  0.50231807  0.00166765  0.33544487  1
  Mn  Mn134  1  0.49927147  0.00070603  0.66914349  1
  Mn  Mn135  1  0.49592794  0.49987827  0.00412736  1
  Mn  Mn136  1  0.50068256  0.49864035  0.33572398  1
  Mn  Mn137  1  0.49964533  0.50093032  0.66901085  1
  Mn  Mn138  1  0.83262038  0.00025619  0.00176177  1
  Mn  Mn139  1  0.83487486  -0.00098876  0.33282716  1
  Mn  Mn140  1  0.83157680  0.00049741  0.66486897  1
  Mn  Mn141  1  0.83266833  0.50044450  0.00089290  1
  Mn  Mn142  1  0.83648243  0.50052696  0.33098203  1
  Mn  Mn143  1  0.82913550  0.50150765  0.66498606  1
  O  O144  1  0.17303768  0.13003350  0.02480411  1
  O  O145  1  0.15924230  0.12958482  0.35464197  1
  O  O146  1  0.17304766  0.12002809  0.68680349  1
  O  O147  1  0.17011217  0.62196538  0.02438868  1
  O  O148  1  0.16689799  0.62224558  0.35587125  1
  O  O149  1  0.17481210  0.62778541  0.68604649  1
  O  O150  1  0.49135765  0.12395849  0.02456623  1
  O  O151  1  0.51251558  0.12528999  0.36118315  1
  O  O152  1  0.50853469  0.12305783  0.69657657  1
  O  O153  1  0.48790678  0.62759780  0.02548794  1
  O  O154  1  0.49673794  0.62222647  0.36130765  1
  O  O155  1  0.50677573  0.63054045  0.69683795  1
  O  O156  1  0.83152270  0.12583459  0.02152074  1
  O  O157  1  0.83239574  0.12381730  0.34617309  1
  O  O158  1  0.82667393  0.12378687  0.67282427  1
  O  O159  1  0.84146727  0.62435444  0.02118035  1
  O  O160  1  0.84122190  0.62867950  0.36027207  1
  O  O161  1  0.82770805  0.62679869  0.68480384  1
  O  O162  1  0.16722506  0.37758502  0.30389754  1
  O  O163  1  0.16877838  0.37807556  0.65145720  1
  O  O164  1  0.17681004  0.37715808  0.98501307  1
  O  O165  1  0.15958747  0.87168655  0.30803053  1
  O  O166  1  0.16299898  0.87332307  0.65468506  1
  O  O167  1  0.17752769  0.86914448  0.97423952  1
  O  O168  1  0.49010618  0.37359232  0.31760625  1
  O  O169  1  0.50319823  0.37029204  0.64203437  1
  O  O170  1  0.49072243  0.37325872  0.97906857  1
  O  O171  1  0.50427880  0.87791112  0.31194531  1
  O  O172  1  0.49208860  0.87539528  0.64065344  1
  O  O173  1  0.49130936  0.87513573  0.98033116  1
  O  O174  1  0.83451560  0.37335423  0.31193626  1
  O  O175  1  0.81956136  0.37749088  0.64601054  1
  O  O176  1  0.83674441  0.37786054  0.99284192  1
  O  O177  1  0.83697919  0.87589563  0.30323550  1
  O  O178  1  0.82299531  0.87339894  0.64506915  1
  O  O179  1  0.83334887  0.87180987  0.99638723  1
  O  O180  1  0.00367616  0.37777750  0.19278768  1
  O  O181  1  -0.00087993  0.37780120  0.50657600  1
  O  O182  1  0.00015064  0.38015906  0.85154392  1
  O  O183  1  -0.00246213  0.87296247  0.18987050  1
  O  O184  1  -0.00218080  0.86965626  0.52221263  1
  O  O185  1  0.00944513  0.87143151  0.83993705  1
  O  O186  1  0.32401341  0.37678960  0.19786376  1
  O  O187  1  0.33685951  0.37414528  0.51218039  1
  O  O188  1  0.33851913  0.37476843  0.85842770  1
  O  O189  1  0.32150260  0.87293581  0.18098300  1
  O  O190  1  0.34033522  0.87617756  0.52361837  1
  O  O191  1  0.32359005  0.87569446  0.86284623  1
  O  O192  1  0.66611143  0.37383507  0.18895334  1
  O  O193  1  0.66117026  0.37881783  0.52751997  1
  O  O194  1  0.65865530  0.37621894  0.84491117  1
  O  O195  1  0.66359392  0.87566384  0.18998681  1
  O  O196  1  0.65960533  0.87451920  0.52689242  1
  O  O197  1  0.66134056  0.87464731  0.84403536  1
  O  O198  1  0.00857497  0.12787520  0.15453140  1
  O  O199  1  0.00594892  0.12696424  0.47454705  1
  O  O200  1  0.00781845  0.12229366  0.82545748  1
  O  O201  1  0.01239759  0.62258028  0.13635891  1
  O  O202  1  -0.01002644  0.62540280  0.47410920  1
  O  O203  1  -0.00186913  0.62640957  0.82222511  1
  O  O204  1  0.33920844  0.12508576  0.14357026  1
  O  O205  1  0.33711370  0.12616815  0.48202628  1
  O  O206  1  0.34602803  0.11913378  0.80822852  1
  O  O207  1  0.34561433  0.62458824  0.14283548  1
  O  O208  1  0.33865933  0.62263243  0.47670837  1
  O  O209  1  0.34547753  0.63035105  0.81145034  1
  O  O210  1  0.67284551  0.12366252  0.15332074  1
  O  O211  1  0.66133261  0.12111180  0.47235262  1
  O  O212  1  0.65227122  0.12424495  0.81186858  1
  O  O213  1  0.66603881  0.62580861  0.15957782  1
  O  O214  1  0.66437675  0.62573353  0.48658618  1
  O  O215  1  0.65154909  0.62565021  0.80991789  1
  O  O216  1  0.08254250  0.01981853  0.25140778  1
  O  O217  1  0.08666725  0.01401481  0.57465152  1
  O  O218  1  0.09200628  0.00798315  0.91129887  1
  O  O219  1  0.08349688  0.52334827  0.24804355  1
  O  O220  1  0.08674314  0.51762454  0.56997524  1
  O  O221  1  0.07875481  0.51840140  0.92196948  1
  O  O222  1  0.42067960  0.01859957  0.25488075  1
  O  O223  1  0.41253989  0.02393006  0.59684223  1
  O  O224  1  0.40762940  0.01844572  0.92495656  1
  O  O225  1  0.41214777  0.52100258  0.25811585  1
  O  O226  1  0.41438235  0.52489869  0.59313448  1
  O  O227  1  0.40700586  0.52020870  0.92720826  1
  O  O228  1  0.74764108  0.01771987  0.25597880  1
  O  O229  1  0.73731953  0.01257596  0.58762298  1
  O  O230  1  0.74072145  0.01253985  0.91917666  1
  O  O231  1  0.75408659  0.51262650  0.25203021  1
  O  O232  1  0.74503343  0.52317515  0.58317709  1
  O  O233  1  0.74905753  0.51878667  0.90758560  1
  O  O234  1  0.24315878  0.22851015  0.24111148  1
  O  O235  1  0.24683072  0.22815844  0.57818871  1
  O  O236  1  0.24973488  0.22519817  0.91337492  1
  O  O237  1  0.24618053  0.72598967  0.24179089  1
  O  O238  1  0.24978410  0.72836090  0.57903281  1
  O  O239  1  0.24252054  0.72215086  0.90625770  1
  O  O240  1  0.58180504  0.22904049  0.25035155  1
  O  O241  1  0.57538090  0.22602725  0.58025737  1
  O  O242  1  0.57104283  0.23552799  0.91166825  1
  O  O243  1  0.57262690  0.73734612  0.24462738  1
  O  O244  1  0.57370848  0.73196638  0.57986551  1
  O  O245  1  0.56794583  0.73930705  0.90891677  1
  O  O246  1  0.91362778  0.22791923  0.24531882  1
  O  O247  1  0.91062299  0.25114108  0.57498397  1
  O  O248  1  0.91753847  0.24868770  0.92034558  1
  O  O249  1  0.91948643  0.72421164  0.24932823  1
  O  O250  1  0.90419887  0.73725296  0.56978585  1
  O  O251  1  0.91285153  0.73070438  0.91326145  1
  O  O252  1  0.08932053  0.47467891  0.08570366  1
  O  O253  1  0.08427403  0.48571093  0.40736079  1
  O  O254  1  0.08531399  0.49941232  0.75182934  1
  O  O255  1  0.09285168  0.98575090  0.09165353  1
  O  O256  1  0.07747629  0.98454471  0.40779120  1
  O  O257  1  0.08696254  0.98463112  0.74850632  1
  O  O258  1  0.41494510  0.47611628  0.08971756  1
  O  O259  1  0.42480735  0.48057018  0.42524690  1
  O  O260  1  0.42667058  0.48712411  0.76510033  1
  O  O261  1  0.42024427  0.97673684  0.09137099  1
  O  O262  1  0.42980612  0.98898385  0.43012041  1
  O  O263  1  0.42119944  0.97346649  0.76065925  1
  O  O264  1  0.75576867  0.49696946  0.08905083  1
  O  O265  1  0.75316514  0.48018086  0.42304705  1
  O  O266  1  0.74118084  0.49420758  0.74210861  1
  O  O267  1  0.75626443  0.98650904  0.09632122  1
  O  O268  1  0.75345305  0.97333626  0.41834362  1
  O  O269  1  0.74491712  0.99191156  0.74584046  1
  O  O270  1  0.25515724  0.27050970  0.08023491  1
  O  O271  1  0.25673925  0.26642351  0.40490984  1
  O  O272  1  0.25608931  0.24938559  0.74865648  1
  O  O273  1  0.26092154  0.76020309  0.07075597  1
  O  O274  1  0.25162177  0.75253253  0.40972093  1
  O  O275  1  0.26196185  0.76860989  0.74453257  1
  O  O276  1  0.58106109  0.25431405  0.08640371  1
  O  O277  1  0.59207902  0.27508663  0.41065118  1
  O  O278  1  0.58466555  0.27075527  0.74541836  1
  O  O279  1  0.57943229  0.76332610  0.08564384  1
  O  O280  1  0.58964465  0.77349618  0.41297726  1
  O  O281  1  0.58510032  0.77627089  0.74244221  1
  O  O282  1  0.92442802  0.26900061  0.08286977  1
  O  O283  1  0.92455913  0.26650112  0.40625082  1
  O  O284  1  0.91331460  0.25725538  0.74592283  1
  O  O285  1  0.91926999  0.75808155  0.08973477  1
  O  O286  1  0.91883865  0.77861166  0.41151964  1
  O  O287  1  0.92093770  0.76619709  0.73656322  1
  O  O288  1  0.25497068  0.48264965  0.08288581  1
  O  O289  1  0.25796104  0.48529225  0.40489561  1
  O  O290  1  0.25819135  0.50020595  0.75051475  1
  O  O291  1  0.25666527  0.98456413  0.07152386  1
  O  O292  1  0.24763513  0.99672689  0.41328080  1
  O  O293  1  0.25756509  0.97972670  0.74691696  1
  O  O294  1  0.57735429  0.49379776  0.08449895  1
  O  O295  1  0.58936246  0.47468751  0.41239224  1
  O  O296  1  0.58415093  0.47714210  0.74381853  1
  O  O297  1  0.58018153  0.98934351  0.09077489  1
  O  O298  1  0.59031747  0.97409631  0.41244118  1
  O  O299  1  0.58450476  0.97681470  0.74426164  1
  O  O300  1  0.92956888  0.48495046  0.07641859  1
  O  O301  1  0.92185943  0.47986481  0.40726394  1
  O  O302  1  0.91021766  0.49603320  0.74910015  1
  O  O303  1  0.91519873  0.98980380  0.09468659  1
  O  O304  1  0.91731626  0.97583491  0.41447623  1
  O  O305  1  0.92137441  0.98521145  0.74294636  1
  O  O306  1  0.08750032  0.27325553  0.08561852  1
  O  O307  1  0.08750084  0.27232483  0.41095712  1
  O  O308  1  0.08644051  0.25311482  0.74858037  1
  O  O309  1  0.09837172  0.76646019  0.09209966  1
  O  O310  1  0.07704169  0.75956593  0.40705444  1
  O  O311  1  0.09283496  0.75940729  0.75546576  1
  O  O312  1  0.41559452  0.27113580  0.08836111  1
  O  O313  1  0.42704664  0.26346226  0.42605992  1
  O  O314  1  0.42739536  0.26288647  0.76352708  1
  O  O315  1  0.42220073  0.77557675  0.09470468  1
  O  O316  1  0.42932723  0.76384328  0.43137151  1
  O  O317  1  0.42340720  0.77556916  0.76231075  1
  O  O318  1  0.75699714  0.25690152  0.09466414  1
  O  O319  1  0.75645291  0.27369116  0.41880440  1
  O  O320  1  0.74255451  0.25708789  0.74498618  1
  O  O321  1  0.75528937  0.75719144  0.09036198  1
  O  O322  1  0.75498712  0.77413792  0.41732739  1
  O  O323  1  0.74505726  0.75825413  0.74201557  1
  O  O324  1  0.24320198  0.01846148  0.24052749  1
  O  O325  1  0.24929498  0.01991567  0.58227906  1
  O  O326  1  0.24843422  0.02899251  0.90701623  1
  O  O327  1  0.24843248  0.52932197  0.24471407  1
  O  O328  1  0.24928458  0.52228651  0.57702297  1
  O  O329  1  0.24564347  0.52478222  0.91364264  1
  O  O330  1  0.58415552  0.02122726  0.25144840  1
  O  O331  1  0.57544139  0.01952914  0.57785162  1
  O  O332  1  0.57132576  0.01308244  0.91141158  1
  O  O333  1  0.57441087  0.51186450  0.24733175  1
  O  O334  1  0.57695714  0.52094324  0.57819061  1
  O  O335  1  0.56928246  0.51215785  0.90879638  1
  O  O336  1  0.91957178  0.02133646  0.25332688  1
  O  O337  1  0.91411227  -0.00139012  0.57985965  1
  O  O338  1  0.91724658  0.00331415  0.91598434  1
  O  O339  1  0.91929077  0.52763104  0.24124818  1
  O  O340  1  0.90557523  0.51000204  0.57167902  1
  O  O341  1  0.91320744  0.52004330  0.91420174  1
  O  O342  1  0.08113538  0.23378962  0.25203089  1
  O  O343  1  0.08764972  0.23608328  0.57310995  1
  O  O344  1  0.08816385  0.24215991  0.91710892  1
  O  O345  1  0.08253722  0.72405565  0.24993654  1
  O  O346  1  0.08495133  0.73113088  0.57306443  1
  O  O347  1  0.08138608  0.72646344  0.92412816  1
  O  O348  1  0.41662850  0.23095238  0.25610542  1
  O  O349  1  0.41394378  0.22456963  0.59451134  1
  O  O350  1  0.40897637  0.22760273  0.92547506  1
  O  O351  1  0.41203777  0.72924161  0.25903693  1
  O  O352  1  0.41206218  0.72607246  0.59733341  1
  O  O353  1  0.40407186  0.73364340  0.92902065  1
  O  O354  1  0.74459193  0.23362168  0.25859475  1
  O  O355  1  0.73712406  0.23607288  0.58794043  1
  O  O356  1  0.74101820  0.23897192  0.91963877  1
  O  O357  1  0.75622828  0.73836695  0.24942945  1
  O  O358  1  0.74515347  0.73059809  0.58242493  1
  O  O359  1  0.74859124  0.73077565  0.90745504  1
