# generated using pymatgen
data_Ba17Sr5La8Pr42Mn72O216
_symmetry_space_group_name_H-M   'P 1'
_cell_length_a   16.67279440
_cell_length_b   15.70287389
_cell_length_c   16.81909596
_cell_angle_alpha   89.99860383
_cell_angle_beta   90.03233798
_cell_angle_gamma   89.98600926
_symmetry_Int_Tables_number   1
_chemical_formula_structural   Ba17Sr5La8Pr42Mn72O216
_chemical_formula_sum   'Ba17 Sr5 La8 Pr42 Mn72 O216'
_cell_volume   4403.41993018
_cell_formula_units_Z   1
loop_
 _symmetry_equiv_pos_site_id
 _symmetry_equiv_pos_as_xyz
  1  'x, y, z'
loop_
 _atom_site_type_symbol
 _atom_site_label
 _atom_site_symmetry_multiplicity
 _atom_site_fract_x
 _atom_site_fract_y
 _atom_site_fract_z
 _atom_site_occupancy
  Ba  Ba0  1  0.49845585  0.87493002  0.50049196  1
  Ba  Ba1  1  0.50188505  0.12466615  0.50092545  1
  Ba  Ba2  1  0.66365718  0.62560807  0.33272404  1
  Ba  Ba3  1  -0.00038742  0.87634784  0.66697357  1
  Ba  Ba4  1  0.00141026  0.12487737  1.00074735  1
  Ba  Ba5  1  0.32770329  0.62488845  0.33240046  1
  Ba  Ba6  1  0.33475939  0.87334057  0.66866418  1
  Ba  Ba7  1  0.66671864  0.12433925  1.00174394  1
  Ba  Ba8  1  0.50485438  0.37482032  0.83587088  1
  Ba  Ba9  1  0.66983751  0.37632156  0.66909762  1
  Ba  Ba10  1  0.16214792  0.62678228  0.16766999  1
  Ba  Ba11  1  0.66819654  0.12429791  0.33236124  1
  Ba  Ba12  1  0.50336262  0.12552345  0.83592068  1
  Ba  Ba13  1  0.33126305  0.37525328  0.33219887  1
  Ba  Ba14  1  0.16601977  0.87495460  0.82971973  1
  Ba  Ba15  1  0.16543695  0.37529807  0.83197501  1
  Ba  Ba16  1  -0.00247766  0.62530338  1.00039109  1
  Sr  Sr17  1  -0.00246997  0.37703742  0.33283472  1
  Sr  Sr18  1  -0.00229318  0.62415529  0.32766342  1
  Sr  Sr19  1  0.32677368  0.62305027  0.66476352  1
  Sr  Sr20  1  0.50569530  0.12830250  0.16909180  1
  Sr  Sr21  1  0.66762722  0.37273512  0.00013418  1
  La  La22  1  0.50173181  0.37561910  0.49940825  1
  La  La23  1  0.33623745  0.12668949  0.66944309  1
  La  La24  1  0.66161338  0.62270454  0.66116517  1
  La  La25  1  0.83403333  0.62321536  0.50123230  1
  La  La26  1  0.50086680  0.87395769  0.16865055  1
  La  La27  1  0.83005985  0.87356721  0.16783102  1
  La  La28  1  0.17096953  0.12105834  0.83452321  1
  La  La29  1  0.00284310  0.62517637  0.66685543  1
  Pr  Pr30  1  0.16678038  0.38015824  0.16118325  1
  Pr  Pr31  1  0.83397716  0.12498277  0.83665520  1
  Pr  Pr32  1  0.66675380  0.87800327  -0.00075366  1
  Pr  Pr33  1  0.66431229  0.37342166  0.33502650  1
  Pr  Pr34  1  0.66499345  0.87693109  0.33689675  1
  Pr  Pr35  1  0.32925868  0.87448143  0.34010761  1
  Pr  Pr36  1  0.83672899  0.12606179  0.17123669  1
  Pr  Pr37  1  0.33629178  0.12540467  0.99677869  1
  Pr  Pr38  1  0.83542109  0.87587977  0.83355631  1
  Pr  Pr39  1  -0.00101455  0.37368605  0.00730773  1
  Pr  Pr40  1  0.83908815  0.12755849  0.50474481  1
  Pr  Pr41  1  -0.00096724  0.87246744  0.33668006  1
  Pr  Pr42  1  0.17269675  0.12753815  0.49942486  1
  Pr  Pr43  1  0.01032942  0.12517877  0.66645962  1
  Pr  Pr44  1  -0.00006248  0.87702609  0.00114689  1
  Pr  Pr45  1  0.82914417  0.37688335  0.49672273  1
  Pr  Pr46  1  0.34230678  0.12468761  0.33036835  1
  Pr  Pr47  1  0.49236523  0.62159521  0.83223079  1
  Pr  Pr48  1  -0.00087349  0.37395369  0.66673692  1
  Pr  Pr49  1  0.00613632  0.12437887  0.32906941  1
  Pr  Pr50  1  0.83499332  0.37429213  0.83617230  1
  Pr  Pr51  1  0.66987277  0.12927872  0.66393077  1
  Pr  Pr52  1  0.34057393  0.37387412  0.66991551  1
  Pr  Pr53  1  0.16733398  0.63113242  0.83466084  1
  Pr  Pr54  1  0.34021945  0.37258860  0.00598983  1
  Pr  Pr55  1  0.33594109  0.87507826  -0.00005958  1
  Pr  Pr56  1  0.48788653  0.62254029  0.50397796  1
  Pr  Pr57  1  0.16246256  0.62312770  0.49682996  1
  Pr  Pr58  1  0.83254090  0.62341532  0.17162325  1
  Pr  Pr59  1  0.16569787  0.87319812  0.49964977  1
  Pr  Pr60  1  0.16310570  0.37657621  0.49443864  1
  Pr  Pr61  1  0.16569506  0.87195951  0.16350727  1
  Pr  Pr62  1  0.83037592  0.62523789  0.83538189  1
  Pr  Pr63  1  0.32682586  0.62182048  0.99837454  1
  Pr  Pr64  1  0.66221180  0.62634080  0.99744854  1
  Pr  Pr65  1  0.83186759  0.87239333  0.49709363  1
  Pr  Pr66  1  0.17590824  0.12484759  0.16834733  1
  Pr  Pr67  1  0.82939918  0.37580843  0.16650289  1
  Pr  Pr68  1  0.50336615  0.37685625  0.16382428  1
  Pr  Pr69  1  0.66765617  0.87576337  0.66758390  1
  Pr  Pr70  1  0.50461449  0.87498557  0.82807937  1
  Pr  Pr71  1  0.49472997  0.62252866  0.17054812  1
  Mn  Mn72  1  0.00049900  -0.00003461  0.16867827  1
  Mn  Mn73  1  0.00023379  0.00131540  0.49863817  1
  Mn  Mn74  1  -0.00090220  0.00167577  0.83340856  1
  Mn  Mn75  1  -0.00204662  0.49864241  0.16796467  1
  Mn  Mn76  1  -0.00122805  0.50063851  0.49878394  1
  Mn  Mn77  1  -0.00159027  0.49889251  0.83288925  1
  Mn  Mn78  1  0.33554768  -0.00141751  0.16752440  1
  Mn  Mn79  1  0.33144943  0.00149593  0.49997529  1
  Mn  Mn80  1  0.33583606  -0.00060142  0.83493182  1
  Mn  Mn81  1  0.33252862  0.49975120  0.16556376  1
  Mn  Mn82  1  0.32930670  0.49878963  0.50240550  1
  Mn  Mn83  1  0.33229443  0.49908890  0.83229654  1
  Mn  Mn84  1  0.66781702  -0.00192057  0.16772774  1
  Mn  Mn85  1  0.67049828  0.00035221  0.50144595  1
  Mn  Mn86  1  0.66940060  -0.00217228  0.83246342  1
  Mn  Mn87  1  0.66681496  0.50092018  0.16480971  1
  Mn  Mn88  1  0.66615981  0.50083823  0.49852972  1
  Mn  Mn89  1  0.66891652  0.50281907  0.83341391  1
  Mn  Mn90  1  0.00116681  0.24932096  0.16870825  1
  Mn  Mn91  1  -0.00034153  0.24982451  0.49887349  1
  Mn  Mn92  1  -0.00024027  0.25082745  0.83360313  1
  Mn  Mn93  1  -0.00313079  0.75302127  0.16779211  1
  Mn  Mn94  1  -0.00052516  0.74908250  0.49841621  1
  Mn  Mn95  1  -0.00283525  0.74849888  0.83253226  1
  Mn  Mn96  1  0.33505406  0.24904072  0.16677861  1
  Mn  Mn97  1  0.33183376  0.25102305  0.50114481  1
  Mn  Mn98  1  0.33380661  0.25216361  0.83487662  1
  Mn  Mn99  1  0.33344706  0.75335906  0.16688247  1
  Mn  Mn100  1  0.32969206  0.74968221  0.50020219  1
  Mn  Mn101  1  0.33546765  0.74666488  0.83407887  1
  Mn  Mn102  1  0.66880137  0.25060956  0.16792674  1
  Mn  Mn103  1  0.66909130  0.25075824  0.50004182  1
  Mn  Mn104  1  0.67030184  0.25032843  0.83385081  1
  Mn  Mn105  1  0.66589233  0.75063386  0.16427039  1
  Mn  Mn106  1  0.66661728  0.74867826  0.50009530  1
  Mn  Mn107  1  0.66745319  0.74800913  0.83166996  1
  Mn  Mn108  1  0.16719939  0.24943138  -0.00021249  1
  Mn  Mn109  1  0.16534102  0.24952294  0.33207578  1
  Mn  Mn110  1  0.16770050  0.25180547  0.66412364  1
  Mn  Mn111  1  0.16628219  0.75143041  -0.00099817  1
  Mn  Mn112  1  0.16311630  0.75196903  0.33187493  1
  Mn  Mn113  1  0.16613513  0.74692093  0.66549587  1
  Mn  Mn114  1  0.50176458  0.24989302  0.00282270  1
  Mn  Mn115  1  0.50047856  0.25207426  0.33274138  1
  Mn  Mn116  1  0.50244467  0.24904186  0.66720579  1
  Mn  Mn117  1  0.49932439  0.74917398  -0.00097577  1
  Mn  Mn118  1  0.49763126  0.74958383  0.33296930  1
  Mn  Mn119  1  0.50057198  0.74859156  0.66698161  1
  Mn  Mn120  1  0.83306721  0.25051323  0.00136858  1
  Mn  Mn121  1  0.83553285  0.25049429  0.33541138  1
  Mn  Mn122  1  0.83728720  0.25024272  0.66867523  1
  Mn  Mn123  1  0.83080747  0.75049284  0.00067173  1
  Mn  Mn124  1  0.83256460  0.74974637  0.33269573  1
  Mn  Mn125  1  0.83337743  0.74928956  0.66799457  1
  Mn  Mn126  1  0.16758502  -0.00098245  0.00114767  1
  Mn  Mn127  1  0.16640254  0.00154469  0.33209643  1
  Mn  Mn128  1  0.16851128  0.00288542  0.66500230  1
  Mn  Mn129  1  0.16584383  0.50024789  -0.00397169  1
  Mn  Mn130  1  0.16170215  0.49757075  0.33107364  1
  Mn  Mn131  1  0.16590891  0.49848401  0.66385484  1
  Mn  Mn132  1  0.49951745  -0.00350139  0.00077278  1
  Mn  Mn133  1  0.49957964  -0.00022436  0.33133749  1
  Mn  Mn134  1  0.50275527  -0.00021611  0.66850919  1
  Mn  Mn135  1  0.50103619  0.50241475  0.00177859  1
  Mn  Mn136  1  0.49854597  0.49973224  0.33335998  1
  Mn  Mn137  1  0.49858935  0.50099467  0.66707429  1
  Mn  Mn138  1  0.83341527  -0.00191146  0.00144892  1
  Mn  Mn139  1  0.83610413  -0.00017389  0.33551106  1
  Mn  Mn140  1  0.83421281  0.00086417  0.66743595  1
  Mn  Mn141  1  0.83095587  0.50109488  0.00093380  1
  Mn  Mn142  1  0.83237255  0.49952015  0.33296772  1
  Mn  Mn143  1  0.83677212  0.50045592  0.66868805  1
  O  O144  1  0.17568645  0.12264863  0.02481799  1
  O  O145  1  0.16201798  0.12361713  0.35760555  1
  O  O146  1  0.16505648  0.13002665  0.68811727  1
  O  O147  1  0.17373007  0.62666628  0.01139110  1
  O  O148  1  0.15961190  0.62744520  0.35177870  1
  O  O149  1  0.16384917  0.61826948  0.68960347  1
  O  O150  1  0.49395578  0.12189409  0.01905475  1
  O  O151  1  0.49636012  0.12601811  0.34337513  1
  O  O152  1  0.50318483  0.12277836  0.67691833  1
  O  O153  1  0.50898178  0.62840310  0.02950478  1
  O  O154  1  0.49861805  0.62378687  0.35781414  1
  O  O155  1  0.50344124  0.62571913  0.68588836  1
  O  O156  1  0.83362608  0.12119666  0.02665278  1
  O  O157  1  0.84111299  0.12314582  0.35933367  1
  O  O158  1  0.82592010  0.12399471  0.69310863  1
  O  O159  1  0.82703780  0.62706146  0.02832433  1
  O  O160  1  0.83713531  0.62461149  0.35468706  1
  O  O161  1  0.84139757  0.62227001  0.69207208  1
  O  O162  1  0.16223340  0.36801511  0.30669612  1
  O  O163  1  0.15933973  0.37401039  0.63741832  1
  O  O164  1  0.16108360  0.37474167  0.98851885  1
  O  O165  1  0.16675458  0.88283838  0.30771706  1
  O  O166  1  0.16687203  0.87812782  0.64465380  1
  O  O167  1  0.16255417  0.87546109  0.98632691  1
  O  O168  1  0.50283048  0.37718542  0.31047344  1
  O  O169  1  0.49475446  0.37697756  0.64709017  1
  O  O170  1  0.49136195  0.37851988  0.99215956  1
  O  O171  1  0.49208682  0.87409575  0.31392934  1
  O  O172  1  0.50756373  0.87251667  0.65825990  1
  O  O173  1  0.49320205  0.86875790  0.97093849  1
  O  O174  1  0.82909479  0.37636238  0.31206011  1
  O  O175  1  0.84325916  0.37619326  0.63914001  1
  O  O176  1  0.83598925  0.37763223  0.97976730  1
  O  O177  1  0.83404038  0.87538893  0.31326733  1
  O  O178  1  0.82947157  0.87795636  0.63965767  1
  O  O179  1  0.82737170  0.87317897  0.97661223  1
  O  O180  1  0.00547314  0.37117903  0.18292165  1
  O  O181  1  0.00067536  0.37370540  0.52495191  1
  O  O182  1  -0.00410343  0.37520748  0.86252791  1
  O  O183  1  0.00342499  0.87941005  0.19255837  1
  O  O184  1  0.00309472  0.87572609  0.51284999  1
  O  O185  1  -0.00541597  0.87270886  0.85453573  1
  O  O186  1  0.33646452  0.37394542  0.17464588  1
  O  O187  1  0.32195398  0.37469131  0.52591584  1
  O  O188  1  0.33361916  0.37625266  0.85886018  1
  O  O189  1  0.33589473  0.87849182  0.19611878  1
  O  O190  1  0.32193162  0.87614926  0.51093009  1
  O  O191  1  0.34210978  0.86977979  0.85480600  1
  O  O192  1  0.67256154  0.37709185  0.18996800  1
  O  O193  1  0.67107649  0.37660100  0.51269348  1
  O  O194  1  0.67646066  0.38148143  0.85007695  1
  O  O195  1  0.67105305  0.87228820  0.19214708  1
  O  O196  1  0.67664087  0.87344070  0.52319043  1
  O  O197  1  0.66522565  0.86781582  0.85701612  1
  O  O198  1  -0.01163000  0.12343354  0.15540105  1
  O  O199  1  -0.00605830  0.12544668  0.47175654  1
  O  O200  1  -0.01110400  0.12953426  0.81052563  1
  O  O201  1  -0.01194048  0.62666121  0.15688391  1
  O  O202  1  0.00137842  0.62615897  0.47588020  1
  O  O203  1  -0.01016484  0.62261334  0.81170534  1
  O  O204  1  0.32758099  0.12183727  0.14012122  1
  O  O205  1  0.32618810  0.12672174  0.47402577  1
  O  O206  1  0.32950721  0.12921605  0.81637023  1
  O  O207  1  0.33813108  0.62759776  0.14300257  1
  O  O208  1  0.33575162  0.62376540  0.48855879  1
  O  O209  1  0.33490314  0.62245413  0.81469771  1
  O  O210  1  0.67026516  0.12382413  0.15814433  1
  O  O211  1  0.67628037  0.12645839  0.48903028  1
  O  O212  1  0.67788085  0.11981306  0.81027816  1
  O  O213  1  0.66651558  0.62728905  0.14072182  1
  O  O214  1  0.67334519  0.62407524  0.48857705  1
  O  O215  1  0.67730409  0.62913271  0.80504687  1
  O  O216  1  0.09406385  0.02449302  0.24480933  1
  O  O217  1  0.08870131  0.02327734  0.57472597  1
  O  O218  1  0.08881761  0.01579841  0.91023922  1
  O  O219  1  0.07602838  0.50831515  0.25154573  1
  O  O220  1  0.08238075  0.52239715  0.57978194  1
  O  O221  1  0.08484886  0.51858864  0.90784997  1
  O  O222  1  0.41802253  0.02044151  0.24508798  1
  O  O223  1  0.41458322  0.01202388  0.58782945  1
  O  O224  1  0.41070840  0.01264277  0.92619871  1
  O  O225  1  0.41697433  0.51433764  0.24813211  1
  O  O226  1  0.41283895  0.51272901  0.58742061  1
  O  O227  1  0.41510376  0.52286567  0.92449577  1
  O  O228  1  0.76596769  0.01283263  0.24369384  1
  O  O229  1  0.75892042  0.02227048  0.58097705  1
  O  O230  1  0.75837741  0.01043441  0.90795672  1
  O  O231  1  0.75132264  0.51696348  0.24548926  1
  O  O232  1  0.75358064  0.51879531  0.58813038  1
  O  O233  1  0.74454293  0.52607906  0.92245566  1
  O  O234  1  0.25367447  0.22517803  0.25162502  1
  O  O235  1  0.25140390  0.22612940  0.58446672  1
  O  O236  1  0.25115862  0.22965701  0.91805906  1
  O  O237  1  0.24524534  0.74842179  0.24696026  1
  O  O238  1  0.24049998  0.73282254  0.57366882  1
  O  O239  1  0.25278861  0.73223946  0.91563957  1
  O  O240  1  0.58844118  0.24859715  0.25182208  1
  O  O241  1  0.59139015  0.23964437  0.58552432  1
  O  O242  1  0.58545797  0.24581045  0.92226825  1
  O  O243  1  0.57618259  0.73782887  0.23606602  1
  O  O244  1  0.57941667  0.72815215  0.57936947  1
  O  O245  1  0.58022780  0.72443458  0.90501465  1
  O  O246  1  0.92375184  0.23315681  0.25893928  1
  O  O247  1  0.92352410  0.22501438  0.59112661  1
  O  O248  1  0.91359983  0.23708063  0.91525777  1
  O  O249  1  0.90874216  0.74033746  0.24362955  1
  O  O250  1  0.91440189  0.73037792  0.57749203  1
  O  O251  1  0.90633055  0.73720707  0.91170185  1
  O  O252  1  0.08296502  0.48299489  0.08297928  1
  O  O253  1  0.08215468  0.47987548  0.42008835  1
  O  O254  1  0.07720039  0.48464261  0.73856255  1
  O  O255  1  0.08042209  0.98051631  0.08129188  1
  O  O256  1  0.07761373  0.98269096  0.40309306  1
  O  O257  1  0.08052591  1.00087844  0.74438286  1
  O  O258  1  0.42102516  0.48795772  0.08799436  1
  O  O259  1  0.42138171  0.48432147  0.42893048  1
  O  O260  1  0.41770775  0.48712316  0.75099901  1
  O  O261  1  0.41522297  0.97294859  0.08300658  1
  O  O262  1  0.40497114  0.98994887  0.40762518  1
  O  O263  1  0.42416277  0.98747081  0.75773784  1
  O  O264  1  0.75487487  0.48184205  0.08762316  1
  O  O265  1  0.75077275  0.48154782  0.41518436  1
  O  O266  1  0.76296916  0.48854313  0.75960574  1
  O  O267  1  0.74704955  0.97694489  0.07949706  1
  O  O268  1  0.75021197  0.97667969  0.41383127  1
  O  O269  1  0.74789573  0.97352581  0.74544894  1
  O  O270  1  0.24947967  0.26984163  0.08637779  1
  O  O271  1  0.23920198  0.26478726  0.42414626  1
  O  O272  1  0.25464706  0.26654821  0.74277488  1
  O  O273  1  0.25392513  0.77414536  0.08292783  1
  O  O274  1  0.24492884  0.76978294  0.41402941  1
  O  O275  1  0.25122029  0.75203546  0.75025934  1
  O  O276  1  0.58051770  0.26752782  0.09039450  1
  O  O277  1  0.58219974  0.27157582  0.41827324  1
  O  O278  1  0.59105762  0.25284587  0.74971227  1
  O  O279  1  0.58763017  0.77600023  0.07421842  1
  O  O280  1  0.58805383  0.76868301  0.40715000  1
  O  O281  1  0.59371136  0.76691054  0.74599324  1
  O  O282  1  0.91441382  0.27084390  0.08806551  1
  O  O283  1  0.90701183  0.26931010  0.42954306  1
  O  O284  1  0.91768324  0.27575770  0.75191803  1
  O  O285  1  0.91865808  0.77674591  0.08144955  1
  O  O286  1  0.91771887  0.77065419  0.41554156  1
  O  O287  1  0.91181514  0.76644528  0.75245079  1
  O  O288  1  0.25608900  0.48291040  0.07471611  1
  O  O289  1  0.24223657  0.48743571  0.41935460  1
  O  O290  1  0.25424525  0.48016931  0.73702026  1
  O  O291  1  0.24883518  0.97527583  0.09037005  1
  O  O292  1  0.23807044  0.98056630  0.41869911  1
  O  O293  1  0.25191157  0.99841153  0.75009505  1
  O  O294  1  0.58609186  0.48060929  0.08142733  1
  O  O295  1  0.58362157  0.47855668  0.41120882  1
  O  O296  1  0.58763489  0.49903478  0.74759430  1
  O  O297  1  0.58026483  0.97420427  0.08171037  1
  O  O298  1  0.58640195  0.98434269  0.41418937  1
  O  O299  1  0.58710913  0.97863047  0.75312163  1
  O  O300  1  0.91784750  0.47824000  0.08204267  1
  O  O301  1  0.91102731  0.48236692  0.42326301  1
  O  O302  1  0.91954537  0.47271798  0.74839120  1
  O  O303  1  0.91238416  0.97458166  0.08695218  1
  O  O304  1  0.91092455  0.97694577  0.42338716  1
  O  O305  1  0.90648130  0.98680376  0.75848743  1
  O  O306  1  0.08175690  0.26553899  0.08232667  1
  O  O307  1  0.07708033  0.26727288  0.41329968  1
  O  O308  1  0.07561073  0.26298317  0.73844648  1
  O  O309  1  0.08133974  0.77053135  0.08613445  1
  O  O310  1  0.08514976  0.77327740  0.41848667  1
  O  O311  1  0.08035614  0.74971652  0.74819804  1
  O  O312  1  0.41729267  0.26570158  0.08562608  1
  O  O313  1  0.41751632  0.26684250  0.42308181  1
  O  O314  1  0.41383180  0.26223209  0.74853702  1
  O  O315  1  0.41665948  0.77453272  0.08507661  1
  O  O316  1  0.40847394  0.76350183  0.41451998  1
  O  O317  1  0.43007039  0.75812995  0.76310080  1
  O  O318  1  0.75170308  0.26855319  0.08469764  1
  O  O319  1  0.74720704  0.27088189  0.41237828  1
  O  O320  1  0.76002216  0.26485831  0.75313654  1
  O  O321  1  0.74953147  0.77333336  0.08355678  1
  O  O322  1  0.75315049  0.76909973  0.41849548  1
  O  O323  1  0.75182194  0.77341928  0.75725880  1
  O  O324  1  0.25458316  0.02422210  0.25820922  1
  O  O325  1  0.25109842  0.02644216  0.58355688  1
  O  O326  1  0.25315611  0.01597503  0.92135113  1
  O  O327  1  0.24357007  0.50230975  0.24041804  1
  O  O328  1  0.24049402  0.51879241  0.57630083  1
  O  O329  1  0.24759547  0.52099558  0.91067815  1
  O  O330  1  0.58487479  -0.00038707  0.25025464  1
  O  O331  1  0.59676905  0.00998034  0.59377125  1
  O  O332  1  0.58597755  0.00009936  0.91827468  1
  O  O333  1  0.57680542  0.51322177  0.23943427  1
  O  O334  1  0.57554127  0.51733597  0.57689930  1
  O  O335  1  0.58072521  0.52558242  0.91443385  1
  O  O336  1  0.92586152  0.01579307  0.26157501  1
  O  O337  1  0.92073434  0.02638037  0.59109080  1
  O  O338  1  0.91728126  0.00786618  0.92115989  1
  O  O339  1  0.90908589  0.51036340  0.24570775  1
  O  O340  1  0.91854119  0.52292807  0.58408372  1
  O  O341  1  0.90440782  0.51564922  0.91073133  1
  O  O342  1  0.08885601  0.22301551  0.24451507  1
  O  O343  1  0.08694608  0.22640773  0.57511448  1
  O  O344  1  0.08825123  0.23107321  0.90681916  1
  O  O345  1  0.07434105  0.74620701  0.25656546  1
  O  O346  1  0.08141968  0.72788063  0.58043995  1
  O  O347  1  0.08299848  0.73503777  0.91066198  1
  O  O348  1  0.41546492  0.23355524  0.25009316  1
  O  O349  1  0.41073549  0.24013476  0.58764272  1
  O  O350  1  0.41089224  0.23858571  0.92663571  1
  O  O351  1  0.41880395  0.73372264  0.24406833  1
  O  O352  1  0.41503698  0.73418773  0.58393361  1
  O  O353  1  0.41402916  0.72002263  0.92384495  1
  O  O354  1  0.76340227  0.23722457  0.24250291  1
  O  O355  1  0.75886455  0.23424192  0.58120837  1
  O  O356  1  0.75659445  0.23556069  0.91289639  1
  O  O357  1  0.75121613  0.73489563  0.24446787  1
  O  O358  1  0.74936938  0.72865111  0.59071795  1
  O  O359  1  0.74149044  0.72769187  0.91880676  1
