# generated using pymatgen
data_Ba17Sr5La8Pr42Mn72O216
_symmetry_space_group_name_H-M   'P 1'
_cell_length_a   16.67457225
_cell_length_b   15.70166190
_cell_length_c   16.82606348
_cell_angle_alpha   90.00741952
_cell_angle_beta   90.00408286
_cell_angle_gamma   89.98218963
_symmetry_Int_Tables_number   1
_chemical_formula_structural   Ba17Sr5La8Pr42Mn72O216
_chemical_formula_sum   'Ba17 Sr5 La8 Pr42 Mn72 O216'
_cell_volume   4405.37436833
_cell_formula_units_Z   1
loop_
 _symmetry_equiv_pos_site_id
 _symmetry_equiv_pos_as_xyz
  1  'x, y, z'
loop_
 _atom_site_type_symbol
 _atom_site_label
 _atom_site_symmetry_multiplicity
 _atom_site_fract_x
 _atom_site_fract_y
 _atom_site_fract_z
 _atom_site_occupancy
  Ba  Ba0  1  -0.00325983  0.12573918  0.33081469  1
  Ba  Ba1  1  0.00239311  0.62573462  0.99773737  1
  Ba  Ba2  1  0.32896905  0.87583419  0.33466014  1
  Ba  Ba3  1  0.16979914  0.37356576  0.82890783  1
  Ba  Ba4  1  0.66356409  0.37582238  0.33732672  1
  Ba  Ba5  1  0.50480263  0.62595702  0.83572172  1
  Ba  Ba6  1  0.49631414  0.37644556  0.50073638  1
  Ba  Ba7  1  0.83174537  0.37654591  0.49834426  1
  Ba  Ba8  1  0.16886683  0.12354109  0.83078159  1
  Ba  Ba9  1  0.00000049  0.37879789  0.66474801  1
  Ba  Ba10  1  0.83456254  0.37420924  0.83046510  1
  Ba  Ba11  1  0.83329656  0.12543263  0.83241685  1
  Ba  Ba12  1  0.33211892  0.37474857  -0.00089828  1
  Ba  Ba13  1  0.83439929  0.87610641  0.83505594  1
  Ba  Ba14  1  0.00175433  0.87332344  -0.00116622  1
  Ba  Ba15  1  0.33268123  0.12186916  0.33528172  1
  Ba  Ba16  1  0.66609868  0.87371129  0.33374100  1
  Sr  Sr17  1  0.66701731  0.87546161  0.00627444  1
  Sr  Sr18  1  0.67134889  0.62586568  0.66989502  1
  Sr  Sr19  1  -0.00075205  0.62203691  0.32847242  1
  Sr  Sr20  1  0.33293018  0.37506472  0.66989351  1
  Sr  Sr21  1  -0.00030289  0.62530425  0.66422399  1
  La  La22  1  0.50100225  0.87350464  0.83578459  1
  La  La23  1  -0.00030385  0.12455405  0.99539726  1
  La  La24  1  0.33808287  0.62408366  0.99586155  1
  La  La25  1  0.50012442  0.12430840  0.83479481  1
  La  La26  1  0.50385988  0.62685915  0.16672703  1
  La  La27  1  0.49815102  0.37577148  0.82871648  1
  La  La28  1  0.49414210  0.37232462  0.16862664  1
  La  La29  1  0.33148779  0.87479592  0.66922739  1
  Pr  Pr30  1  0.50191992  0.12449828  0.17191087  1
  Pr  Pr31  1  0.82888168  0.12257454  0.16758809  1
  Pr  Pr32  1  0.15821158  0.37425673  0.16367312  1
  Pr  Pr33  1  0.83297277  0.87593707  0.15786488  1
  Pr  Pr34  1  0.82556812  0.12595013  0.50099975  1
  Pr  Pr35  1  -0.00703303  0.37716970  0.33720806  1
  Pr  Pr36  1  0.16925279  0.62021395  0.83297101  1
  Pr  Pr37  1  0.32680534  0.37486667  0.33823600  1
  Pr  Pr38  1  0.83015077  0.62362250  0.49992057  1
  Pr  Pr39  1  0.16925518  0.62782130  0.50288680  1
  Pr  Pr40  1  0.83610851  0.87145558  0.49672858  1
  Pr  Pr41  1  0.66804821  0.62162660  0.33486801  1
  Pr  Pr42  1  -0.00164128  0.87279956  0.33049627  1
  Pr  Pr43  1  0.66594260  0.12330459  0.99950133  1
  Pr  Pr44  1  0.33774105  0.62049369  0.66591251  1
  Pr  Pr45  1  0.83903612  0.62329747  0.83363417  1
  Pr  Pr46  1  0.49130389  0.87823003  0.16548567  1
  Pr  Pr47  1  0.67517676  0.62730143  0.99590777  1
  Pr  Pr48  1  0.33166733  0.87414940  0.00288869  1
  Pr  Pr49  1  0.16880459  0.62548266  0.16903187  1
  Pr  Pr50  1  0.16495281  0.12110109  0.50512120  1
  Pr  Pr51  1  0.50817799  0.62755378  0.50579516  1
  Pr  Pr52  1  0.66530407  0.87421085  0.67329460  1
  Pr  Pr53  1  0.33679597  0.62701002  0.33266656  1
  Pr  Pr54  1  0.00391324  0.37362670  -0.00650468  1
  Pr  Pr55  1  0.16365249  0.87251138  0.83231004  1
  Pr  Pr56  1  0.66673879  0.37634789  0.67195303  1
  Pr  Pr57  1  0.33325422  0.13025257  0.66240169  1
  Pr  Pr58  1  -0.00356595  0.12925125  0.66246155  1
  Pr  Pr59  1  0.66630323  0.37537767  0.00333498  1
  Pr  Pr60  1  0.33537889  0.12420909  0.99809444  1
  Pr  Pr61  1  0.83385299  0.37576012  0.16372612  1
  Pr  Pr62  1  0.83618124  0.62916630  0.16696391  1
  Pr  Pr63  1  0.66342354  0.12866442  0.33510156  1
  Pr  Pr64  1  0.67014181  0.12472167  0.66800443  1
  Pr  Pr65  1  0.15878895  0.87436718  0.49677053  1
  Pr  Pr66  1  0.16425226  0.87690262  0.16543687  1
  Pr  Pr67  1  0.16741898  0.12550520  0.16964259  1
  Pr  Pr68  1  0.50167132  0.12140633  0.50329779  1
  Pr  Pr69  1  0.49518099  0.87242370  0.49797063  1
  Pr  Pr70  1  0.00009356  0.87554828  0.66974937  1
  Pr  Pr71  1  0.16140992  0.37530426  0.49931742  1
  Mn  Mn72  1  -0.00072305  0.00103794  0.16508400  1
  Mn  Mn73  1  -0.00213711  -0.00145505  0.49821854  1
  Mn  Mn74  1  0.00164837  -0.00003991  0.83093256  1
  Mn  Mn75  1  -0.00075373  0.49953928  0.16531005  1
  Mn  Mn76  1  0.00091782  0.50389677  0.49582083  1
  Mn  Mn77  1  0.00241035  0.50178833  0.83050791  1
  Mn  Mn78  1  0.33148513  -0.00019834  0.16477135  1
  Mn  Mn79  1  0.33284219  -0.00009635  0.50327007  1
  Mn  Mn80  1  0.33497700  -0.00194620  0.83398344  1
  Mn  Mn81  1  0.33303495  0.50225457  0.16901781  1
  Mn  Mn82  1  0.33080532  0.50100762  0.49899238  1
  Mn  Mn83  1  0.33625797  0.50100339  0.83173183  1
  Mn  Mn84  1  0.66608474  0.00019162  0.16908329  1
  Mn  Mn85  1  0.66644082  -0.00312444  0.50299859  1
  Mn  Mn86  1  0.66604898  -0.00121961  0.83571199  1
  Mn  Mn87  1  0.66568429  0.50030624  0.16637305  1
  Mn  Mn88  1  0.66570789  0.50208330  0.50252504  1
  Mn  Mn89  1  0.66865473  0.50069508  0.83552328  1
  Mn  Mn90  1  -0.00265709  0.25180411  0.16368681  1
  Mn  Mn91  1  -0.00015692  0.24981423  0.49560511  1
  Mn  Mn92  1  0.00164279  0.24846135  0.83017886  1
  Mn  Mn93  1  0.00129661  0.74771374  0.16770173  1
  Mn  Mn94  1  -0.00028606  0.74825502  0.49775568  1
  Mn  Mn95  1  0.00188628  0.75004357  0.82902949  1
  Mn  Mn96  1  0.33198280  0.24997944  0.16803269  1
  Mn  Mn97  1  0.33094371  0.25109573  0.49986670  1
  Mn  Mn98  1  0.33595452  0.24709429  0.83193603  1
  Mn  Mn99  1  0.33275202  0.74911169  0.16585664  1
  Mn  Mn100  1  0.33236512  0.74917695  0.50152727  1
  Mn  Mn101  1  0.33418029  0.75167652  0.83442265  1
  Mn  Mn102  1  0.66657127  0.25035800  0.16774005  1
  Mn  Mn103  1  0.66362623  0.24800450  0.50179493  1
  Mn  Mn104  1  0.66512239  0.24811179  0.83606531  1
  Mn  Mn105  1  0.66581181  0.74897816  0.16747329  1
  Mn  Mn106  1  0.66770829  0.75187074  0.50358791  1
  Mn  Mn107  1  0.66869107  0.75167598  0.83520703  1
  Mn  Mn108  1  0.16704015  0.24972623  0.00194350  1
  Mn  Mn109  1  0.16508044  0.25092147  0.33193138  1
  Mn  Mn110  1  0.16761471  0.24937601  0.66379408  1
  Mn  Mn111  1  0.17015346  0.74868877  -0.00029397  1
  Mn  Mn112  1  0.16434805  0.74850939  0.33412035  1
  Mn  Mn113  1  0.16873865  0.75076032  0.66551916  1
  Mn  Mn114  1  0.50076872  0.24839334  0.00127810  1
  Mn  Mn115  1  0.49645195  0.24920799  0.33480827  1
  Mn  Mn116  1  0.50135526  0.24849308  0.66844264  1
  Mn  Mn117  1  0.50251113  0.75167492  0.00345179  1
  Mn  Mn118  1  0.49952307  0.74966227  0.33506314  1
  Mn  Mn119  1  0.50040898  0.75080211  0.66687303  1
  Mn  Mn120  1  0.83383604  0.25162359  0.00163127  1
  Mn  Mn121  1  0.83043463  0.24819704  0.33152147  1
  Mn  Mn122  1  0.83225951  0.24963595  0.66479766  1
  Mn  Mn123  1  0.83376177  0.74933008  0.00009333  1
  Mn  Mn124  1  0.83311890  0.75042674  0.33167974  1
  Mn  Mn125  1  0.83357367  0.74968641  0.66405152  1
  Mn  Mn126  1  0.16863413  -0.00006990  0.00087874  1
  Mn  Mn127  1  0.16308255  0.00001716  0.33374611  1
  Mn  Mn128  1  0.16727940  -0.00211391  0.66558296  1
  Mn  Mn129  1  0.16783567  0.49992336  0.00159264  1
  Mn  Mn130  1  0.16640467  0.50118448  0.33265526  1
  Mn  Mn131  1  0.16892357  0.50304780  0.66482536  1
  Mn  Mn132  1  0.50050860  0.00038076  0.00232469  1
  Mn  Mn133  1  0.50023872  -0.00219245  0.33544717  1
  Mn  Mn134  1  0.50008399  -0.00175454  0.66875155  1
  Mn  Mn135  1  0.50268840  0.49779327  0.00278548  1
  Mn  Mn136  1  0.49682555  0.50380107  0.33424174  1
  Mn  Mn137  1  0.50182069  0.50148153  0.66704628  1
  Mn  Mn138  1  0.83355782  0.00130170  0.00146108  1
  Mn  Mn139  1  0.83150829  -0.00207305  0.33267769  1
  Mn  Mn140  1  0.83321889  -0.00021470  0.66223652  1
  Mn  Mn141  1  0.83431818  0.49784572  -0.00075675  1
  Mn  Mn142  1  0.83227080  0.50330924  0.33037092  1
  Mn  Mn143  1  0.83253753  0.50334916  0.66615842  1
  O  O144  1  0.16945501  0.12583103  0.02629433  1
  O  O145  1  0.16291858  0.12560701  0.35816990  1
  O  O146  1  0.16383035  0.12039114  0.67276753  1
  O  O147  1  0.17468014  0.62533767  0.02441571  1
  O  O148  1  0.16811292  0.62474437  0.35956777  1
  O  O149  1  0.17129304  0.63143704  0.68833338  1
  O  O150  1  0.50093514  0.12389255  0.02976320  1
  O  O151  1  0.50423085  0.11899211  0.35688173  1
  O  O152  1  0.49964271  0.12077699  0.69244527  1
  O  O153  1  0.50126025  0.62875604  0.02332971  1
  O  O154  1  0.49437524  0.62760455  0.35985108  1
  O  O155  1  0.49384698  0.62885245  0.67962231  1
  O  O156  1  0.84114387  0.12895324  0.02341778  1
  O  O157  1  0.82961544  0.11875430  0.35717722  1
  O  O158  1  0.83306468  0.12330243  0.67524440  1
  O  O159  1  0.83061591  0.62150908  0.02183822  1
  O  O160  1  0.83186760  0.62905726  0.35494807  1
  O  O161  1  0.83176909  0.62894329  0.68976540  1
  O  O162  1  0.17444798  0.37836173  0.30545698  1
  O  O163  1  0.17282929  0.37629124  0.64511004  1
  O  O164  1  0.16196174  0.37431930  0.98719131  1
  O  O165  1  0.16013968  0.87269357  0.30936601  1
  O  O166  1  0.17178407  0.87406404  0.63855014  1
  O  O167  1  0.17635939  0.87279214  0.97599047  1
  O  O168  1  0.49195207  0.38075862  0.31230932  1
  O  O169  1  0.50687531  0.37381888  0.65690721  1
  O  O170  1  0.50665918  0.36799606  0.97446978  1
  O  O171  1  0.49945641  0.87350432  0.30983161  1
  O  O172  1  0.50255807  0.87549677  0.64009053  1
  O  O173  1  0.49729309  0.87778570  0.97958550  1
  O  O174  1  0.83490499  0.37801520  0.31014388  1
  O  O175  1  0.82478639  0.37436899  0.65506650  1
  O  O176  1  0.81888541  0.37454938  0.98673257  1
  O  O177  1  0.83465508  0.87344855  0.30450386  1
  O  O178  1  0.83451819  0.87551017  0.63953116  1
  O  O179  1  0.82635502  0.87493075  0.99707994  1
  O  O180  1  0.00185189  0.37657002  0.19360371  1
  O  O181  1  0.00314483  0.37714097  0.50769949  1
  O  O182  1  0.00306303  0.37621895  0.84721872  1
  O  O183  1  0.00292872  0.87125051  0.18627088  1
  O  O184  1  -0.00442022  0.87334990  0.52644830  1
  O  O185  1  0.00689119  0.87517041  0.84140140  1
  O  O186  1  0.33995349  0.38118217  0.19460335  1
  O  O187  1  0.32504984  0.37696348  0.51971881  1
  O  O188  1  0.34168431  0.37376361  0.84046312  1
  O  O189  1  0.33687528  0.87363829  0.18007104  1
  O  O190  1  0.33729016  0.87445983  0.52544491  1
  O  O191  1  0.33268561  0.87497664  0.85979662  1
  O  O192  1  0.67738170  0.37490123  0.18283474  1
  O  O193  1  0.66417618  0.37393538  0.52522588  1
  O  O194  1  0.66200004  0.37202282  0.85789570  1
  O  O195  1  0.68128405  0.87578571  0.17850008  1
  O  O196  1  0.67177868  0.87495804  0.53011532  1
  O  O197  1  0.66220072  0.87693076  0.85444476  1
  O  O198  1  -0.00233417  0.13049639  0.14005244  1
  O  O199  1  0.01035570  0.12307157  0.48597512  1
  O  O200  1  0.00158199  0.12038431  0.81137862  1
  O  O201  1  -0.00160725  0.62248660  0.15298827  1
  O  O202  1  0.00996438  0.62734169  0.47593262  1
  O  O203  1  0.00189923  0.62893547  0.81666662  1
  O  O204  1  0.32774741  0.12030457  0.14139764  1
  O  O205  1  0.33600072  0.12433450  0.49062713  1
  O  O206  1  0.34190470  0.11854523  0.80796293  1
  O  O207  1  0.32646218  0.62694109  0.13938572  1
  O  O208  1  0.32518105  0.62599352  0.47475160  1
  O  O209  1  0.33079670  0.63107669  0.81118888  1
  O  O210  1  0.65785652  0.12661049  0.14305267  1
  O  O211  1  0.66467295  0.11890503  0.47886736  1
  O  O212  1  0.65849462  0.12199176  0.81206337  1
  O  O213  1  0.65563955  0.62207498  0.13857524  1
  O  O214  1  0.66438028  0.63030285  0.48020502  1
  O  O215  1  0.67230679  0.62781064  0.81949955  1
  O  O216  1  0.08297005  0.01441643  0.24488003  1
  O  O217  1  0.08327902  0.01136727  0.58153905  1
  O  O218  1  0.08561071  0.01313824  0.92251506  1
  O  O219  1  0.09248165  0.51634233  0.24288320  1
  O  O220  1  0.09299589  0.51465550  0.57362485  1
  O  O221  1  0.09091892  0.51481997  0.91046908  1
  O  O222  1  0.42168414  0.01296379  0.23803137  1
  O  O223  1  0.41873106  0.01943676  0.58814272  1
  O  O224  1  0.42183766  0.02135336  0.91726756  1
  O  O225  1  0.41892318  0.52963784  0.24660713  1
  O  O226  1  0.41721699  0.52227634  0.57514794  1
  O  O227  1  0.41880585  0.51232341  0.91868244  1
  O  O228  1  0.74512928  0.02576056  0.25419890  1
  O  O229  1  0.74772539  0.02275693  0.58297429  1
  O  O230  1  0.74602429  0.01733974  0.92664223  1
  O  O231  1  0.74904703  0.52762285  0.24565798  1
  O  O232  1  0.75312889  0.52086944  0.57987683  1
  O  O233  1  0.75633939  0.52222812  0.91278102  1
  O  O234  1  0.24771377  0.23350673  0.25145019  1
  O  O235  1  0.24837973  0.22812865  0.57933118  1
  O  O236  1  0.25609080  0.23280667  0.92416638  1
  O  O237  1  0.25007084  0.72831826  0.25188640  1
  O  O238  1  0.25742120  0.72839870  0.59081915  1
  O  O239  1  0.25483116  0.72691903  0.91951099  1
  O  O240  1  0.58161317  0.23289760  0.24975530  1
  O  O241  1  0.58368825  0.22256473  0.58789487  1
  O  O242  1  0.58145628  0.22255937  0.91995331  1
  O  O243  1  0.58589677  0.72660654  0.25572470  1
  O  O244  1  0.58518114  0.73491284  0.58708850  1
  O  O245  1  0.59177008  0.73879154  0.93012984  1
  O  O246  1  0.90650490  0.23780826  0.23634951  1
  O  O247  1  0.91491342  0.22971786  0.57677981  1
  O  O248  1  0.92039732  0.24151265  0.92264814  1
  O  O249  1  0.91459522  0.73313213  0.24821692  1
  O  O250  1  0.91385505  0.72930977  0.57332764  1
  O  O251  1  0.91452012  0.73742880  0.90972484  1
  O  O252  1  0.07752920  0.47881236  0.08067700  1
  O  O253  1  0.08161717  0.47755755  0.40770782  1
  O  O254  1  0.08691056  0.49897852  0.74630197  1
  O  O255  1  0.09108326  0.98640224  0.08823028  1
  O  O256  1  0.07769796  0.97315108  0.41651240  1
  O  O257  1  0.08815567  0.97654359  0.74608143  1
  O  O258  1  0.41825298  0.48834626  0.08861568  1
  O  O259  1  0.40074289  0.48916939  0.40490566  1
  O  O260  1  0.41773111  0.48987598  0.74629644  1
  O  O261  1  0.41203929  0.98059110  0.07749615  1
  O  O262  1  0.41821487  0.98451732  0.42479038  1
  O  O263  1  0.41789720  0.97210857  0.75044835  1
  O  O264  1  0.74569864  0.48550757  0.08052517  1
  O  O265  1  0.74711832  0.49957609  0.41423801  1
  O  O266  1  0.74126050  0.48709148  0.74540049  1
  O  O267  1  0.75407184  0.99762145  0.09168053  1
  O  O268  1  0.75646769  0.98187775  0.42540808  1
  O  O269  1  0.74480346  0.98697249  0.74089709  1
  O  O270  1  0.24179763  0.26548598  0.09404332  1
  O  O271  1  0.24261142  0.27191318  0.41797036  1
  O  O272  1  0.25739398  0.25186284  0.74030691  1
  O  O273  1  0.25049563  0.77225119  0.08476581  1
  O  O274  1  0.24008660  0.76609903  0.42883140  1
  O  O275  1  0.24646058  0.77503067  0.75273212  1
  O  O276  1  0.58684925  0.27159281  0.08311481  1
  O  O277  1  0.57830985  0.25218663  0.42131552  1
  O  O278  1  0.58388022  0.26789981  0.75265539  1
  O  O279  1  0.57564499  0.77169568  0.09580284  1
  O  O280  1  0.57805682  0.76563887  0.42871562  1
  O  O281  1  0.58076801  0.77174539  0.75413933  1
  O  O282  1  0.91879565  0.28094229  0.07984685  1
  O  O283  1  0.91823362  0.26310465  0.40726036  1
  O  O284  1  0.91844628  0.25157649  0.74190840  1
  O  O285  1  0.91119213  0.76030395  0.08940952  1
  O  O286  1  0.91705634  0.77321392  0.41267253  1
  O  O287  1  0.92153344  0.76556579  0.73869406  1
  O  O288  1  0.24134033  0.48478914  0.09824305  1
  O  O289  1  0.24145586  0.47862123  0.42197206  1
  O  O290  1  0.25373452  0.49740335  0.74721692  1
  O  O291  1  0.24974479  0.97567847  0.08400702  1
  O  O292  1  0.24002696  0.98697372  0.42818456  1
  O  O293  1  0.24957177  0.97710891  0.75107164  1
  O  O294  1  0.57965580  0.47230655  0.09149070  1
  O  O295  1  0.57751685  0.49940370  0.42055817  1
  O  O296  1  0.58313023  0.48143082  0.75813560  1
  O  O297  1  0.57689048  0.98066734  0.09186213  1
  O  O298  1  0.57896387  0.97992832  0.43017939  1
  O  O299  1  0.57880962  0.97606578  0.75179694  1
  O  O300  1  0.91416877  0.47469096  0.08110331  1
  O  O301  1  0.91927404  0.49134272  0.40721440  1
  O  O302  1  0.91392766  0.50002001  0.74968006  1
  O  O303  1  0.91511206  0.98634767  0.08580413  1
  O  O304  1  0.91697068  0.97340691  0.41122531  1
  O  O305  1  0.92329480  0.98843860  0.73437716  1
  O  O306  1  0.07838472  0.27172801  0.08142898  1
  O  O307  1  0.08166021  0.27575486  0.40884518  1
  O  O308  1  0.08445726  0.25373150  0.74251916  1
  O  O309  1  0.09151660  0.76156572  0.08851850  1
  O  O310  1  0.07854218  0.77538708  0.41398050  1
  O  O311  1  0.08538510  0.77189450  0.74248520  1
  O  O312  1  0.42088852  0.26322517  0.08615442  1
  O  O313  1  0.40618407  0.26598364  0.41112232  1
  O  O314  1  0.42479663  0.26010996  0.75343304  1
  O  O315  1  0.41600452  0.76957329  0.08232909  1
  O  O316  1  0.41505205  0.76473422  0.41981672  1
  O  O317  1  0.41475934  0.77390184  0.74787615  1
  O  O318  1  0.75581573  0.26087449  0.09136769  1
  O  O319  1  0.74626984  0.25178772  0.41850368  1
  O  O320  1  0.74168608  0.25789008  0.74455544  1
  O  O321  1  0.74815881  0.75387119  0.08494581  1
  O  O322  1  0.75508722  0.76443158  0.42207149  1
  O  O323  1  0.74574156  0.76907466  0.74330996  1
  O  O324  1  0.24433063  0.01177064  0.24270750  1
  O  O325  1  0.25397924  0.01913225  0.58829833  1
  O  O326  1  0.25940784  0.01577378  0.92617708  1
  O  O327  1  0.25617747  0.52638580  0.25827354  1
  O  O328  1  0.25328347  0.52627758  0.58417971  1
  O  O329  1  0.25483491  0.52047919  0.91810711  1
  O  O330  1  0.58531013  0.02050069  0.25221652  1
  O  O331  1  0.58426392  0.02147296  0.58972184  1
  O  O332  1  0.58208769  0.02132110  0.92349942  1
  O  O333  1  0.58403716  0.52172963  0.25368632  1
  O  O334  1  0.58512251  0.51925087  0.58755258  1
  O  O335  1  0.59748896  0.51215420  0.93088449  1
  O  O336  1  0.90744037  0.01252773  0.24169702  1
  O  O337  1  0.91276716  0.02117457  0.57344242  1
  O  O338  1  0.91871119  0.01312319  0.92066694  1
  O  O339  1  0.91113585  0.51563469  0.24234380  1
  O  O340  1  0.91698935  0.52110337  0.57586131  1
  O  O341  1  0.91784021  0.50999841  0.91483571  1
  O  O342  1  0.08749350  0.23634348  0.24011523  1
  O  O343  1  0.08654300  0.23586879  0.57719067  1
  O  O344  1  0.08077180  0.23572594  0.92359575  1
  O  O345  1  0.08530957  0.73008131  0.24846873  1
  O  O346  1  0.09226367  0.73734133  0.57607118  1
  O  O347  1  0.09608699  0.73844749  0.90725580  1
  O  O348  1  0.42120824  0.23265101  0.24306632  1
  O  O349  1  0.41911305  0.23021611  0.58613556  1
  O  O350  1  0.41944967  0.22487632  0.91994600  1
  O  O351  1  0.41614652  0.72872385  0.24508454  1
  O  O352  1  0.41857586  0.73081596  0.57905939  1
  O  O353  1  0.41771601  0.73927187  0.92226768  1
  O  O354  1  0.74525126  0.22339764  0.25166433  1
  O  O355  1  0.74680724  0.22775363  0.58280145  1
  O  O356  1  0.74167056  0.23316769  0.92737288  1
  O  O357  1  0.74823235  0.72332733  0.24862196  1
  O  O358  1  0.75405895  0.73014475  0.57998345  1
  O  O359  1  0.75533212  0.72950180  0.91535669  1
