# generated using pymatgen
data_Ba17Sr5La8Pr42Mn72O216
_symmetry_space_group_name_H-M   'P 1'
_cell_length_a   16.68022407
_cell_length_b   15.70437836
_cell_length_c   16.82204337
_cell_angle_alpha   90.00112564
_cell_angle_beta   90.05143015
_cell_angle_gamma   89.98588663
_symmetry_Int_Tables_number   1
_chemical_formula_structural   Ba17Sr5La8Pr42Mn72O216
_chemical_formula_sum   'Ba17 Sr5 La8 Pr42 Mn72 O216'
_cell_volume   4406.57524645
_cell_formula_units_Z   1
loop_
 _symmetry_equiv_pos_site_id
 _symmetry_equiv_pos_as_xyz
  1  'x, y, z'
loop_
 _atom_site_type_symbol
 _atom_site_label
 _atom_site_symmetry_multiplicity
 _atom_site_fract_x
 _atom_site_fract_y
 _atom_site_fract_z
 _atom_site_occupancy
  Ba  Ba0  1  0.16795800  0.87656152  0.83211474  1
  Ba  Ba1  1  0.33468293  0.37465997  0.33435367  1
  Ba  Ba2  1  -0.00130154  0.62487363  0.66494586  1
  Ba  Ba3  1  0.50112430  0.12555922  0.16439652  1
  Ba  Ba4  1  0.00112728  0.37409743  0.66647691  1
  Ba  Ba5  1  0.83345705  0.62376965  0.83486076  1
  Ba  Ba6  1  0.50015407  0.62409757  0.16578406  1
  Ba  Ba7  1  0.66323590  0.12527372  0.66476950  1
  Ba  Ba8  1  0.83129284  0.12505108  0.49901309  1
  Ba  Ba9  1  0.82754082  0.62522525  0.50386510  1
  Ba  Ba10  1  0.16477109  0.62485257  0.49938533  1
  Ba  Ba11  1  -0.00120634  0.12500168  0.33065522  1
  Ba  Ba12  1  0.00144615  0.87493180  0.66623783  1
  Ba  Ba13  1  0.50365012  0.37519240  0.16646847  1
  Ba  Ba14  1  -0.00073064  0.12483671  1.00207387  1
  Ba  Ba15  1  0.49664793  0.62585717  0.83471187  1
  Ba  Ba16  1  0.33407314  0.87476223  0.33421784  1
  Sr  Sr17  1  0.16723856  0.37412417  0.16494514  1
  Sr  Sr18  1  0.16799003  0.87591410  0.16293032  1
  Sr  Sr19  1  0.33047125  0.12671007  1.00090486  1
  Sr  Sr20  1  0.83664545  0.37271496  0.83202073  1
  Sr  Sr21  1  0.50236782  0.87483568  0.83364789  1
  La  La22  1  0.00072944  0.62515247  0.99606653  1
  La  La23  1  0.66275014  0.62340709  0.99667322  1
  La  La24  1  0.49341640  0.12431632  0.50075905  1
  La  La25  1  0.16298858  0.12435886  0.83623444  1
  La  La26  1  0.66174802  0.62557279  0.33265220  1
  La  La27  1  0.66637611  0.12530109  0.32946065  1
  La  La28  1  0.16930955  0.37125641  0.83267927  1
  La  La29  1  0.16796140  0.12507968  0.49810477  1
  Pr  Pr30  1  0.66366736  0.12772501  0.99394621  1
  Pr  Pr31  1  0.16107478  0.62456350  0.83121462  1
  Pr  Pr32  1  0.16898006  0.62543548  0.17027345  1
  Pr  Pr33  1  0.83139427  0.87637004  0.49975323  1
  Pr  Pr34  1  0.49671446  0.12264883  0.84088765  1
  Pr  Pr35  1  0.16348180  0.37858715  0.49487471  1
  Pr  Pr36  1  0.50774088  0.37541807  0.83290288  1
  Pr  Pr37  1  0.66551962  0.87383471  0.33255110  1
  Pr  Pr38  1  0.83617889  0.12758154  0.83212063  1
  Pr  Pr39  1  0.32623435  0.62706945  0.66767039  1
  Pr  Pr40  1  0.50388584  0.87461027  0.16086407  1
  Pr  Pr41  1  0.66620607  0.37596935  0.33328495  1
  Pr  Pr42  1  0.17101709  0.12443496  0.16988511  1
  Pr  Pr43  1  -0.00118888  0.12250562  0.66342273  1
  Pr  Pr44  1  0.83396662  0.37345358  0.49936587  1
  Pr  Pr45  1  0.33841518  0.87462306  0.00550833  1
  Pr  Pr46  1  0.00135745  0.87689641  0.33708394  1
  Pr  Pr47  1  0.67451645  0.37489041  0.66771705  1
  Pr  Pr48  1  0.83679114  0.87866390  0.83064494  1
  Pr  Pr49  1  0.50233637  0.87584121  0.50067117  1
  Pr  Pr50  1  0.00459697  0.87391849  0.00102515  1
  Pr  Pr51  1  0.48953535  0.62595874  0.50380279  1
  Pr  Pr52  1  0.83836602  0.87875921  0.16485299  1
  Pr  Pr53  1  0.83453100  0.62500494  0.17204558  1
  Pr  Pr54  1  0.00199181  0.37319422  0.33771909  1
  Pr  Pr55  1  0.50381058  0.37323313  0.49567795  1
  Pr  Pr56  1  0.32432235  0.62242144  0.99927596  1
  Pr  Pr57  1  0.33762611  0.37585487  0.00822959  1
  Pr  Pr58  1  0.67551228  0.37940497  0.00084417  1
  Pr  Pr59  1  0.33615639  0.37667412  0.66785806  1
  Pr  Pr60  1  0.67266624  0.87585036  0.66940469  1
  Pr  Pr61  1  0.16279545  0.87183876  0.49828448  1
  Pr  Pr62  1  0.00168143  0.37548268  0.00043160  1
  Pr  Pr63  1  0.67253012  0.87016271  -0.00050940  1
  Pr  Pr64  1  0.33656257  0.87326848  0.67240060  1
  Pr  Pr65  1  0.83786189  0.37150111  0.16559850  1
  Pr  Pr66  1  0.33135864  0.12503355  0.32790889  1
  Pr  Pr67  1  0.33176247  0.12275790  0.66994913  1
  Pr  Pr68  1  0.65887021  0.62563598  0.66502603  1
  Pr  Pr69  1  0.32781112  0.62402134  0.33116481  1
  Pr  Pr70  1  -0.00120624  0.62520623  0.33128733  1
  Pr  Pr71  1  0.83622062  0.12552643  0.17253403  1
  Mn  Mn72  1  0.00205062  -0.00174731  0.16576886  1
  Mn  Mn73  1  0.00038461  0.00121172  0.49948942  1
  Mn  Mn74  1  -0.00027716  0.00168991  0.83318411  1
  Mn  Mn75  1  0.00068274  0.50002544  0.16558762  1
  Mn  Mn76  1  -0.00256771  0.49846894  0.49852141  1
  Mn  Mn77  1  0.00051457  0.49875501  0.83443382  1
  Mn  Mn78  1  0.33520401  -0.00045424  0.16691325  1
  Mn  Mn79  1  0.33221161  0.00013081  0.50217056  1
  Mn  Mn80  1  0.33484842  -0.00000667  0.83590162  1
  Mn  Mn81  1  0.33312432  0.49973270  0.16616015  1
  Mn  Mn82  1  0.33294972  0.49942380  0.50281304  1
  Mn  Mn83  1  0.33169757  0.49760239  0.83543773  1
  Mn  Mn84  1  0.66953118  -0.00107999  0.16360824  1
  Mn  Mn85  1  0.66293143  -0.00167522  0.49842455  1
  Mn  Mn86  1  0.66642828  0.00040799  0.83303530  1
  Mn  Mn87  1  0.67103428  0.50097440  0.16732551  1
  Mn  Mn88  1  0.66255952  0.49987944  0.50087201  1
  Mn  Mn89  1  0.66775240  0.49849131  0.83232586  1
  Mn  Mn90  1  0.00239696  0.25220233  0.16593816  1
  Mn  Mn91  1  0.00085832  0.24830791  0.50030900  1
  Mn  Mn92  1  0.00025152  0.24996897  0.83322716  1
  Mn  Mn93  1  0.00082908  0.74991245  0.16552124  1
  Mn  Mn94  1  -0.00306596  0.75189743  0.49819793  1
  Mn  Mn95  1  -0.00022072  0.75018056  0.83492905  1
  Mn  Mn96  1  0.33353473  0.25025443  0.16572029  1
  Mn  Mn97  1  0.33245203  0.24865998  0.50268144  1
  Mn  Mn98  1  0.33475325  0.25157537  0.83482914  1
  Mn  Mn99  1  0.33506729  0.74986462  0.16696661  1
  Mn  Mn100  1  0.33208082  0.75204317  0.50283198  1
  Mn  Mn101  1  0.33233136  0.74919203  0.83611127  1
  Mn  Mn102  1  0.66976301  0.25019427  0.16370095  1
  Mn  Mn103  1  0.66402988  0.25039714  0.49902195  1
  Mn  Mn104  1  0.66621457  0.25001701  0.83171626  1
  Mn  Mn105  1  0.67018220  0.75019446  0.16703363  1
  Mn  Mn106  1  0.66172007  0.75125885  0.50052849  1
  Mn  Mn107  1  0.66734424  0.75193643  0.83327028  1
  Mn  Mn108  1  0.16747345  0.24993962  -0.00019335  1
  Mn  Mn109  1  0.16705892  0.25047927  0.33249818  1
  Mn  Mn110  1  0.17035443  0.24840778  0.66630624  1
  Mn  Mn111  1  0.16767512  0.75026525  0.00037229  1
  Mn  Mn112  1  0.16502697  0.75066522  0.33092582  1
  Mn  Mn113  1  0.16754981  0.75107565  0.66603480  1
  Mn  Mn114  1  0.50014962  0.25054916  -0.00238614  1
  Mn  Mn115  1  0.50147401  0.24910901  0.33487122  1
  Mn  Mn116  1  0.49738868  0.25132486  0.66739986  1
  Mn  Mn117  1  0.50034462  0.75041286  -0.00069628  1
  Mn  Mn118  1  0.49950950  0.75067566  0.33457093  1
  Mn  Mn119  1  0.49860968  0.75060680  0.66721020  1
  Mn  Mn120  1  0.83295996  0.24956072  -0.00006536  1
  Mn  Mn121  1  0.83141579  0.25246629  0.33143284  1
  Mn  Mn122  1  0.83377232  0.25008160  0.66675421  1
  Mn  Mn123  1  0.83489904  0.75088246  0.00286072  1
  Mn  Mn124  1  0.83288657  0.75030223  0.33369314  1
  Mn  Mn125  1  0.82998322  0.75034600  0.66743900  1
  Mn  Mn126  1  0.16894813  0.00025245  0.00054511  1
  Mn  Mn127  1  0.16679181  -0.00178081  0.33236592  1
  Mn  Mn128  1  0.16988365  0.00295888  0.66577453  1
  Mn  Mn129  1  0.16558867  0.49906730  -0.00051604  1
  Mn  Mn130  1  0.16526106  0.50052245  0.33096171  1
  Mn  Mn131  1  0.16864703  0.49588025  0.66629155  1
  Mn  Mn132  1  0.50130561  -0.00150338  -0.00095187  1
  Mn  Mn133  1  0.50117490  -0.00158444  0.33267844  1
  Mn  Mn134  1  0.49840163  0.00008528  0.66880204  1
  Mn  Mn135  1  0.49975651  0.50006121  -0.00171986  1
  Mn  Mn136  1  0.50028223  0.50099500  0.33652457  1
  Mn  Mn137  1  0.49816710  0.49854489  0.66546634  1
  Mn  Mn138  1  0.83204911  0.00137496  -0.00116009  1
  Mn  Mn139  1  0.83088497  -0.00242430  0.33144003  1
  Mn  Mn140  1  0.83297000  0.00038804  0.66620952  1
  Mn  Mn141  1  0.83563468  0.49925944  0.00362425  1
  Mn  Mn142  1  0.83291316  0.50055023  0.33383066  1
  Mn  Mn143  1  0.83084923  0.49965388  0.66773393  1
  O  O144  1  0.16905912  0.12608728  0.02570041  1
  O  O145  1  0.17617727  0.12359387  0.35150226  1
  O  O146  1  0.17769414  0.12756134  0.69330416  1
  O  O147  1  0.16609606  0.62481932  0.02659359  1
  O  O148  1  0.17423004  0.62590753  0.34306717  1
  O  O149  1  0.17566684  0.61917280  0.68660407  1
  O  O150  1  0.51365696  0.12459703  0.00739563  1
  O  O151  1  0.50902586  0.12368260  0.35557558  1
  O  O152  1  0.49461436  0.12979503  0.69652491  1
  O  O153  1  0.51197583  0.62662787  0.00837085  1
  O  O154  1  0.50844438  0.62550613  0.35917439  1
  O  O155  1  0.50806630  0.62417528  0.68061027  1
  O  O156  1  0.82723445  0.12448363  0.02922899  1
  O  O157  1  0.82861755  0.12421258  0.34237473  1
  O  O158  1  0.83921612  0.12446222  0.68503352  1
  O  O159  1  0.84206882  0.62427367  0.02819588  1
  O  O160  1  0.84371186  0.62578062  0.34984256  1
  O  O161  1  0.82468967  0.62628559  0.67625250  1
  O  O162  1  0.15632161  0.37696500  0.31728823  1
  O  O163  1  0.17560399  0.36945403  0.63859669  1
  O  O164  1  0.16435560  0.37541416  0.97568394  1
  O  O165  1  0.15542302  0.87349721  0.31402469  1
  O  O166  1  0.17562069  0.88211219  0.64295074  1
  O  O167  1  0.16826711  0.87358001  0.98801660  1
  O  O168  1  0.50320986  0.37506264  0.32381415  1
  O  O169  1  0.48856276  0.37563092  0.63739643  1
  O  O170  1  0.49030329  0.37430017  0.97935543  1
  O  O171  1  0.50316275  0.87491554  0.30469450  1
  O  O172  1  0.48934780  0.87245703  0.64257374  1
  O  O173  1  0.49017480  0.87446088  0.98472436  1
  O  O174  1  0.82337680  0.37820493  0.30742200  1
  O  O175  1  0.82503336  0.37445417  0.64748358  1
  O  O176  1  0.82835230  0.37357111  0.98041315  1
  O  O177  1  0.82337220  0.87276057  0.30715678  1
  O  O178  1  0.82433588  0.87559904  0.64747823  1
  O  O179  1  0.82667415  0.87860885  0.97319522  1
  O  O180  1  0.00096618  0.37867877  0.19391868  1
  O  O181  1  0.00805109  0.37149985  0.50679760  1
  O  O182  1  0.00590607  0.37384072  0.85523895  1
  O  O183  1  0.00038352  0.87160393  0.19262774  1
  O  O184  1  0.00685169  0.87805053  0.50731049  1
  O  O185  1  -0.00488492  0.87717384  0.85531968  1
  O  O186  1  0.33394412  0.37614810  0.17435010  1
  O  O187  1  0.33482154  0.37259642  0.52368925  1
  O  O188  1  0.32711448  0.37425029  0.86405748  1
  O  O189  1  0.34393312  0.87425910  0.17695133  1
  O  O190  1  0.33389980  0.87781719  0.52786689  1
  O  O191  1  0.33427585  0.87708829  0.86064442  1
  O  O192  1  0.67762526  0.37880091  0.18966022  1
  O  O193  1  0.65653663  0.37829473  0.52378725  1
  O  O194  1  0.66689058  0.37239423  0.85588625  1
  O  O195  1  0.67048380  0.87426889  0.18985319  1
  O  O196  1  0.65886525  0.87451191  0.52501097  1
  O  O197  1  0.67814809  0.87887356  0.85602036  1
  O  O198  1  -0.00908068  0.12519172  0.15651837  1
  O  O199  1  0.00222058  0.12506238  0.48775110  1
  O  O200  1  -0.00354903  0.12560891  0.81146230  1
  O  O201  1  -0.00807669  0.62476179  0.13848577  1
  O  O202  1  -0.00648836  0.62598492  0.47811766  1
  O  O203  1  0.00502187  0.62392216  0.82546646  1
  O  O204  1  0.32389697  0.12430276  0.15289062  1
  O  O205  1  0.33314661  0.12347838  0.47230841  1
  O  O206  1  0.34065109  0.12806941  0.81151916  1
  O  O207  1  0.32422418  0.62496055  0.14623235  1
  O  O208  1  0.33749864  0.62648631  0.47602111  1
  O  O209  1  0.32675586  0.61923476  0.80975557  1
  O  O210  1  0.67487676  0.12058856  0.13746190  1
  O  O211  1  0.65883266  0.12130097  0.47488607  1
  O  O212  1  0.65519487  0.12512404  0.82071107  1
  O  O213  1  0.67731969  0.62660144  0.14037127  1
  O  O214  1  0.65928938  0.62538343  0.47655516  1
  O  O215  1  0.66498361  0.62397423  0.81137194  1
  O  O216  1  0.08956693  0.01620498  0.24211046  1
  O  O217  1  0.08867221  0.02262249  0.58415710  1
  O  O218  1  0.08410979  0.01361525  0.91338718  1
  O  O219  1  0.08129500  0.52717814  0.24512140  1
  O  O220  1  0.08523928  0.50308795  0.57973399  1
  O  O221  1  0.08397511  0.51930933  0.91957595  1
  O  O222  1  0.41328992  0.01849117  0.25734053  1
  O  O223  1  0.41062605  0.02322797  0.58990701  1
  O  O224  1  0.41640557  0.01872669  0.91905785  1
  O  O225  1  0.41211535  0.51846102  0.26308148  1
  O  O226  1  0.41035460  0.52417603  0.59226928  1
  O  O227  1  0.40400399  0.51486913  0.92430620  1
  O  O228  1  0.75153369  0.02026045  0.24511821  1
  O  O229  1  0.74682755  0.00387650  0.58045333  1
  O  O230  1  0.74774687  0.02707338  0.91779961  1
  O  O231  1  0.75058019  0.52694762  0.25423613  1
  O  O232  1  0.73201524  0.51164743  0.59196175  1
  O  O233  1  0.74447439  0.51463505  0.93168329  1
  O  O234  1  0.25032883  0.23312882  0.25162813  1
  O  O235  1  0.24990372  0.22307212  0.58271245  1
  O  O236  1  0.24596598  0.23183273  0.90863469  1
  O  O237  1  0.24770941  0.73468869  0.24598823  1
  O  O238  1  0.25255460  0.73697188  0.58653546  1
  O  O239  1  0.24300026  0.72345553  0.91369793  1
  O  O240  1  0.59241649  0.23806076  0.25081817  1
  O  O241  1  0.56911126  0.23573157  0.57572444  1
  O  O242  1  0.57597617  0.23961358  0.90654168  1
  O  O243  1  0.59039063  0.73647422  0.25007118  1
  O  O244  1  0.57115868  0.73427190  0.57259207  1
  O  O245  1  0.58532928  0.74723150  0.91565981  1
  O  O246  1  0.91141788  0.24482393  0.24438294  1
  O  O247  1  0.91855069  0.24014565  0.58551988  1
  O  O248  1  0.90788960  0.23463030  0.91397056  1
  O  O249  1  0.91815438  0.73086012  0.24705513  1
  O  O250  1  0.90809023  0.75129733  0.57797956  1
  O  O251  1  0.92103378  0.74049054  0.92679900  1
  O  O252  1  0.08041332  0.48111221  0.07955867  1
  O  O253  1  0.07705016  0.48884911  0.40881196  1
  O  O254  1  0.09459746  0.48590809  0.75667639  1
  O  O255  1  0.08113492  0.98179886  0.08191848  1
  O  O256  1  0.08244657  0.98443289  0.41252983  1
  O  O257  1  0.08483905  1.00058748  0.74621598  1
  O  O258  1  0.41611094  0.49275421  0.08210472  1
  O  O259  1  0.42426213  0.48810978  0.43209418  1
  O  O260  1  0.41956379  0.47593605  0.75651119  1
  O  O261  1  0.42265265  0.98493178  0.08666351  1
  O  O262  1  0.42231652  0.98607002  0.42892291  1
  O  O263  1  0.41856078  0.98127349  0.75450682  1
  O  O264  1  0.75878919  0.48030151  0.09111126  1
  O  O265  1  0.74934733  0.47787507  0.42369991  1
  O  O266  1  0.74951713  0.48012886  0.75293389  1
  O  O267  1  0.75253413  0.97300821  0.08301360  1
  O  O268  1  0.74589412  0.97708492  0.41395063  1
  O  O269  1  0.75228449  0.98548398  0.75297793  1
  O  O270  1  0.25075674  0.26818414  0.07702131  1
  O  O271  1  0.24455918  0.26507009  0.42492359  1
  O  O272  1  0.25839566  0.27158417  0.74526819  1
  O  O273  1  0.25891989  0.76350282  0.07458978  1
  O  O274  1  0.24487358  0.76781199  0.42257436  1
  O  O275  1  0.25987317  0.76418109  0.74541721  1
  O  O276  1  0.59456789  0.26588446  0.07063075  1
  O  O277  1  0.58778945  0.26986145  0.41326874  1
  O  O278  1  0.58462226  0.27800117  0.74284577  1
  O  O279  1  0.59054645  0.77131565  0.08164217  1
  O  O280  1  0.58605500  0.77487278  0.41212958  1
  O  O281  1  0.59004014  0.76806896  0.73646627  1
  O  O282  1  0.92011125  0.27325640  0.08156847  1
  O  O283  1  0.91239501  0.27292769  0.41261128  1
  O  O284  1  0.91632107  0.25782267  0.75239971  1
  O  O285  1  0.91865473  0.77907655  0.08407872  1
  O  O286  1  0.91430441  0.77799655  0.41276195  1
  O  O287  1  0.91347412  0.76439297  0.75696350  1
  O  O288  1  0.25175514  0.48488292  0.07387250  1
  O  O289  1  0.24636904  0.48483222  0.42218222  1
  O  O290  1  0.25507323  0.47293941  0.74931091  1
  O  O291  1  0.25693215  0.98299922  0.08180433  1
  O  O292  1  0.24339326  0.98288447  0.42505075  1
  O  O293  1  0.26051295  0.98714853  0.74217938  1
  O  O294  1  0.59648071  0.48608272  0.07596003  1
  O  O295  1  0.58879702  0.47906794  0.41304707  1
  O  O296  1  0.58497015  0.47544531  0.73934927  1
  O  O297  1  0.58807879  0.97439647  0.08047601  1
  O  O298  1  0.58422596  0.97294437  0.41290241  1
  O  O299  1  0.58787575  0.97813724  0.74465902  1
  O  O300  1  0.91876208  0.47174878  0.08576730  1
  O  O301  1  0.91501673  0.47261497  0.41209866  1
  O  O302  1  0.91856344  0.48977106  0.75492587  1
  O  O303  1  0.91883287  0.97559035  0.07904827  1
  O  O304  1  0.91087685  0.97741705  0.41368266  1
  O  O305  1  0.91272922  0.98797319  0.75470669  1
  O  O306  1  0.08126004  0.27050615  0.08037540  1
  O  O307  1  0.08384332  0.26394939  0.41397614  1
  O  O308  1  0.09547199  0.26147819  0.75402004  1
  O  O309  1  0.08202108  0.76652538  0.08179222  1
  O  O310  1  0.07640562  0.76247815  0.40815182  1
  O  O311  1  0.08924930  0.75330120  0.75085341  1
  O  O312  1  0.41630340  0.25897702  0.07874405  1
  O  O313  1  0.42404611  0.25935741  0.43077881  1
  O  O314  1  0.42037957  0.27843713  0.75527936  1
  O  O315  1  0.42456552  0.76451167  0.09030151  1
  O  O316  1  0.42294961  0.76571166  0.43118382  1
  O  O317  1  0.41947869  0.76549439  0.75292268  1
  O  O318  1  0.75491844  0.27300849  0.08492144  1
  O  O319  1  0.74876978  0.27201527  0.41270281  1
  O  O320  1  0.74962654  0.26134262  0.75154560  1
  O  O321  1  0.75680120  0.77322731  0.08935948  1
  O  O322  1  0.74857471  0.77238139  0.42318827  1
  O  O323  1  0.75264619  0.77285967  0.75574392  1
  O  O324  1  0.25085894  0.01567507  0.25122279  1
  O  O325  1  0.24981096  0.02733794  0.58162314  1
  O  O326  1  0.24871067  0.02181809  0.91131720  1
  O  O327  1  0.24790792  0.51686840  0.24728812  1
  O  O328  1  0.25541083  0.51246997  0.58882569  1
  O  O329  1  0.24293110  0.52238013  0.91259298  1
  O  O330  1  0.59251675  0.01303672  0.25015474  1
  O  O331  1  0.57179088  0.01270454  0.57427237  1
  O  O332  1  0.58237580  0.01030119  0.91395221  1
  O  O333  1  0.59125026  0.51321462  0.25241937  1
  O  O334  1  0.57347697  0.51927192  0.57363301  1
  O  O335  1  0.58154340  0.50291961  0.91198759  1
  O  O336  1  0.91192268  0.00524240  0.24318812  1
  O  O337  1  0.91989988  0.01101072  0.58780844  1
  O  O338  1  0.90710392  0.01728598  0.91148601  1
  O  O339  1  0.91835117  0.52007994  0.24743812  1
  O  O340  1  0.90893826  0.49822425  0.57666350  1
  O  O341  1  0.92239598  0.50858763  0.92793259  1
  O  O342  1  0.08954446  0.23389390  0.24167531  1
  O  O343  1  0.08684609  0.22572563  0.58915774  1
  O  O344  1  0.08573712  0.23509278  0.91430080  1
  O  O345  1  0.08073495  0.72282134  0.24554927  1
  O  O346  1  0.08420545  0.74710523  0.57778370  1
  O  O347  1  0.08256457  0.73357128  0.92009116  1
  O  O348  1  0.41456401  0.23297707  0.26008165  1
  O  O349  1  0.40881505  0.22636954  0.59202989  1
  O  O350  1  0.41671617  0.23159281  0.91558328  1
  O  O351  1  0.41029104  0.72891382  0.26244548  1
  O  O352  1  0.41002825  0.72731481  0.59143987  1
  O  O353  1  0.40239972  0.73391517  0.92861797  1
  O  O354  1  0.75137077  0.22868636  0.24640004  1
  O  O355  1  0.74601322  0.24664632  0.58051420  1
  O  O356  1  0.74507724  0.22820544  0.91955851  1
  O  O357  1  0.75050320  0.72608170  0.25344779  1
  O  O358  1  0.73128819  0.73920866  0.59388402  1
  O  O359  1  0.74569259  0.73358018  0.93099529  1
