# generated using pymatgen
data_Ba17Sr5La8Pr42Mn72O216
_symmetry_space_group_name_H-M   'P 1'
_cell_length_a   16.67273735
_cell_length_b   15.70139404
_cell_length_c   16.81534894
_cell_angle_alpha   90.00215789
_cell_angle_beta   89.96925290
_cell_angle_gamma   90.00997492
_symmetry_Int_Tables_number   1
_chemical_formula_structural   Ba17Sr5La8Pr42Mn72O216
_chemical_formula_sum   'Ba17 Sr5 La8 Pr42 Mn72 O216'
_cell_volume   4402.00909903
_cell_formula_units_Z   1
loop_
 _symmetry_equiv_pos_site_id
 _symmetry_equiv_pos_as_xyz
  1  'x, y, z'
loop_
 _atom_site_type_symbol
 _atom_site_label
 _atom_site_symmetry_multiplicity
 _atom_site_fract_x
 _atom_site_fract_y
 _atom_site_fract_z
 _atom_site_occupancy
  Ba  Ba0  1  0.49902637  0.37550293  0.50046449  1
  Ba  Ba1  1  0.66439084  0.12357520  0.33363699  1
  Ba  Ba2  1  0.33172937  0.62605293  0.33314441  1
  Ba  Ba3  1  0.16886109  0.37451367  0.49809047  1
  Ba  Ba4  1  0.16940705  0.37548032  0.16900967  1
  Ba  Ba5  1  0.83460602  0.37397427  0.49887315  1
  Ba  Ba6  1  0.33548374  0.12466089  0.99898144  1
  Ba  Ba7  1  0.00131832  0.87598584  0.00143377  1
  Ba  Ba8  1  -0.00294262  0.62448241  0.33280142  1
  Ba  Ba9  1  0.66320975  0.62511331  1.00077124  1
  Ba  Ba10  1  0.66722698  0.87506549  0.33656236  1
  Ba  Ba11  1  0.16906208  0.12432271  0.83494233  1
  Ba  Ba12  1  -0.00149614  0.62446001  0.99736333  1
  Ba  Ba13  1  0.49839835  0.12317960  0.50072306  1
  Ba  Ba14  1  0.16570947  0.62522994  0.83137886  1
  Ba  Ba15  1  -0.00071436  0.12555472  0.99690342  1
  Ba  Ba16  1  0.33268469  0.12318571  0.66628670  1
  Sr  Sr17  1  0.33417547  0.37757260  0.33798798  1
  Sr  Sr18  1  -0.00461533  0.62550077  0.66237825  1
  Sr  Sr19  1  0.49936896  0.87527835  0.50082290  1
  Sr  Sr20  1  0.32988795  0.62675573  0.66199521  1
  Sr  Sr21  1  0.16852250  0.87100969  0.16330007  1
  La  La22  1  0.82714246  0.62618240  0.50158877  1
  La  La23  1  0.66579153  0.87209131  0.00620293  1
  La  La24  1  0.50350046  0.37553056  0.83149525  1
  La  La25  1  0.17269218  0.37346804  0.83236872  1
  La  La26  1  0.83856767  0.87371998  0.83360104  1
  La  La27  1  0.66775196  0.37725054  0.00210275  1
  La  La28  1  0.49519433  0.62837734  0.50124244  1
  La  La29  1  0.83266006  0.87490408  0.16577879  1
  Pr  Pr30  1  0.33361400  0.37399120  0.00183936  1
  Pr  Pr31  1  0.82875764  0.62730174  0.16801670  1
  Pr  Pr32  1  0.50235250  0.12363131  0.83665020  1
  Pr  Pr33  1  0.66376382  0.62319933  0.33266033  1
  Pr  Pr34  1  0.83007455  0.62519203  0.83657525  1
  Pr  Pr35  1  0.49912639  0.62669611  0.17132861  1
  Pr  Pr36  1  0.66708900  0.12440807  1.00270969  1
  Pr  Pr37  1  0.33681867  0.87533346  0.33414831  1
  Pr  Pr38  1  0.82449021  0.12418095  0.50080998  1
  Pr  Pr39  1  0.66382818  0.12641803  0.66310905  1
  Pr  Pr40  1  0.15693679  0.62678651  0.16870035  1
  Pr  Pr41  1  0.66730806  0.37499531  0.33946824  1
  Pr  Pr42  1  0.49651926  0.87510909  0.16711870  1
  Pr  Pr43  1  0.33919653  0.37583828  0.66702935  1
  Pr  Pr44  1  0.66828571  0.87847477  0.66951811  1
  Pr  Pr45  1  0.00793319  0.87252500  0.66985727  1
  Pr  Pr46  1  0.83189389  0.12546210  0.83465942  1
  Pr  Pr47  1  0.49846512  0.37541562  0.16853369  1
  Pr  Pr48  1  0.01049657  0.37747137  0.66572815  1
  Pr  Pr49  1  0.16712132  0.87588251  0.83631960  1
  Pr  Pr50  1  0.49583683  0.12317131  0.17522057  1
  Pr  Pr51  1  0.83873123  0.87465411  0.49635906  1
  Pr  Pr52  1  0.32874716  0.62459667  0.99905972  1
  Pr  Pr53  1  0.16278034  0.12499440  0.50482833  1
  Pr  Pr54  1  -0.00428235  0.12504164  0.66151039  1
  Pr  Pr55  1  0.33195367  0.13028241  0.33242769  1
  Pr  Pr56  1  0.32896394  0.87600353  0.00232413  1
  Pr  Pr57  1  -0.00236693  0.13092441  0.33041615  1
  Pr  Pr58  1  0.49470478  0.62544595  0.83783853  1
  Pr  Pr59  1  0.84167066  0.37620132  0.82696423  1
  Pr  Pr60  1  0.17374951  0.87210165  0.49801802  1
  Pr  Pr61  1  0.83258733  0.12201247  0.16846473  1
  Pr  Pr62  1  0.66253799  0.62314353  0.66772792  1
  Pr  Pr63  1  0.67019921  0.37086473  0.66989660  1
  Pr  Pr64  1  0.34079650  0.87405067  0.66911886  1
  Pr  Pr65  1  0.15885423  0.62159096  0.50562595  1
  Pr  Pr66  1  0.00645898  0.87478534  0.33286410  1
  Pr  Pr67  1  0.00907732  0.37623774  0.33767789  1
  Pr  Pr68  1  0.83574136  0.37402411  0.16455886  1
  Pr  Pr69  1  0.50236529  0.87403828  0.83403642  1
  Pr  Pr70  1  0.15955955  0.12154278  0.16728230  1
  Pr  Pr71  1  0.00930571  0.37448246  -0.00200556  1
  Mn  Mn72  1  -0.00102799  0.00097754  0.16885862  1
  Mn  Mn73  1  -0.00040787  -0.00115018  0.49899246  1
  Mn  Mn74  1  0.00034327  -0.00104482  0.82986615  1
  Mn  Mn75  1  -0.00291574  0.49780188  0.16508701  1
  Mn  Mn76  1  -0.00205358  0.50063994  0.49956532  1
  Mn  Mn77  1  -0.00023370  0.49993249  0.83068340  1
  Mn  Mn78  1  0.33102987  0.00019414  0.16822699  1
  Mn  Mn79  1  0.33195591  -0.00257277  0.49953510  1
  Mn  Mn80  1  0.33686287  -0.00326248  0.83416829  1
  Mn  Mn81  1  0.33459909  0.49992345  0.16537044  1
  Mn  Mn82  1  0.33258701  0.50218435  0.50095553  1
  Mn  Mn83  1  0.33578774  0.50143398  0.83354061  1
  Mn  Mn84  1  0.66440978  -0.00104499  0.16593213  1
  Mn  Mn85  1  0.66694490  -0.00146222  0.50347403  1
  Mn  Mn86  1  0.66849454  0.00043910  0.83621094  1
  Mn  Mn87  1  0.66630915  0.49911150  0.16957641  1
  Mn  Mn88  1  0.66576368  0.50162592  0.50065386  1
  Mn  Mn89  1  0.66775415  0.49980168  0.83330578  1
  Mn  Mn90  1  -0.00144289  0.25097805  0.16533493  1
  Mn  Mn91  1  -0.00153301  0.24804710  0.49747199  1
  Mn  Mn92  1  0.00049968  0.25119388  0.83018992  1
  Mn  Mn93  1  -0.00271274  0.75003492  0.16666962  1
  Mn  Mn94  1  -0.00085821  0.75224630  0.50065824  1
  Mn  Mn95  1  -0.00029813  0.74999555  0.83047778  1
  Mn  Mn96  1  0.33367241  0.25030801  0.16689224  1
  Mn  Mn97  1  0.33234893  0.24916379  0.49926053  1
  Mn  Mn98  1  0.33815282  0.25136740  0.83403218  1
  Mn  Mn99  1  0.33264772  0.74952921  0.16487325  1
  Mn  Mn100  1  0.33250851  0.75037784  0.50062129  1
  Mn  Mn101  1  0.33487120  0.74952682  0.83339853  1
  Mn  Mn102  1  0.66548165  0.25207572  0.16691705  1
  Mn  Mn103  1  0.66633088  0.25062331  0.50123173  1
  Mn  Mn104  1  0.66824437  0.24823375  0.83593683  1
  Mn  Mn105  1  0.66527097  0.74968615  0.16918771  1
  Mn  Mn106  1  0.66629314  0.74968816  0.50285567  1
  Mn  Mn107  1  0.66729313  0.75210754  0.83387776  1
  Mn  Mn108  1  0.16864015  0.25072345  0.00024252  1
  Mn  Mn109  1  0.16770311  0.24699576  0.33388489  1
  Mn  Mn110  1  0.16771226  0.24967604  0.66619581  1
  Mn  Mn111  1  0.16706857  0.74941976  0.00028991  1
  Mn  Mn112  1  0.16631330  0.75234945  0.33214723  1
  Mn  Mn113  1  0.16672255  0.75061470  0.66532622  1
  Mn  Mn114  1  0.50304440  0.25059599  0.00117725  1
  Mn  Mn115  1  0.49848344  0.25104993  0.33312126  1
  Mn  Mn116  1  0.50103351  0.25147273  0.66882242  1
  Mn  Mn117  1  0.49746485  0.75021982  0.00119191  1
  Mn  Mn118  1  0.49991686  0.75101163  0.33557838  1
  Mn  Mn119  1  0.50202435  0.75014056  0.66843721  1
  Mn  Mn120  1  0.83182328  0.25194281  -0.00222703  1
  Mn  Mn121  1  0.83251553  0.25012768  0.33056184  1
  Mn  Mn122  1  0.83481504  0.24991992  0.66650217  1
  Mn  Mn123  1  0.83155474  0.74934194  -0.00059977  1
  Mn  Mn124  1  0.83376357  0.75050154  0.33409513  1
  Mn  Mn125  1  0.83137314  0.75102576  0.66558592  1
  Mn  Mn126  1  0.16739047  -0.00072093  0.00161756  1
  Mn  Mn127  1  0.16678440  -0.00088960  0.33450238  1
  Mn  Mn128  1  0.16627043  -0.00174954  0.66541152  1
  Mn  Mn129  1  0.16808790  0.49968267  -0.00025037  1
  Mn  Mn130  1  0.16734486  0.50302872  0.33368332  1
  Mn  Mn131  1  0.16808854  0.50032246  0.66673471  1
  Mn  Mn132  1  0.50174688  -0.00083048  0.00156147  1
  Mn  Mn133  1  0.49765262  -0.00171009  0.33525589  1
  Mn  Mn134  1  0.50167121  -0.00293400  0.66908125  1
  Mn  Mn135  1  0.49897745  0.49954397  0.00067372  1
  Mn  Mn136  1  0.49979162  0.50081241  0.33386074  1
  Mn  Mn137  1  0.50128001  0.50212256  0.66784734  1
  Mn  Mn138  1  0.83060450  0.00172095  -0.00062347  1
  Mn  Mn139  1  0.83624832  -0.00005794  0.33379746  1
  Mn  Mn140  1  0.83388562  -0.00096396  0.66538894  1
  Mn  Mn141  1  0.83252824  0.49650989  -0.00196063  1
  Mn  Mn142  1  0.83166499  0.49917547  0.33149998  1
  Mn  Mn143  1  0.83310119  0.50078289  0.66650236  1
  O  O144  1  0.16767879  0.12598568  0.01897972  1
  O  O145  1  0.16465061  0.11928556  0.36151994  1
  O  O146  1  0.15945071  0.12319708  0.67915146  1
  O  O147  1  0.17408312  0.62329744  0.02159938  1
  O  O148  1  0.16409007  0.63198305  0.35802091  1
  O  O149  1  0.16517623  0.62733178  0.67568456  1
  O  O150  1  0.50831680  0.12772445  0.03012396  1
  O  O151  1  0.49190858  0.12217491  0.34048039  1
  O  O152  1  0.50742530  0.12332865  0.69201714  1
  O  O153  1  0.49304601  0.62700129  0.02790541  1
  O  O154  1  0.50562750  0.62665547  0.35451838  1
  O  O155  1  0.50729249  0.62682696  0.69589423  1
  O  O156  1  0.82878164  0.12893126  0.02498054  1
  O  O157  1  0.84187712  0.12405075  0.35686253  1
  O  O158  1  0.83750619  0.12585051  0.69268158  1
  O  O159  1  0.83349908  0.61813887  0.02254039  1
  O  O160  1  0.82915902  0.62477679  0.35644513  1
  O  O161  1  0.82988841  0.62762926  0.69376633  1
  O  O162  1  0.16265874  0.37310885  0.32456875  1
  O  O163  1  0.16814483  0.37440154  0.65483809  1
  O  O164  1  0.16979763  0.37690125  0.98260805  1
  O  O165  1  0.16467942  0.87761744  0.31006702  1
  O  O166  1  0.16294355  0.87512127  0.64150602  1
  O  O167  1  0.17495562  0.87310099  0.98451454  1
  O  O168  1  0.50451045  0.37714049  0.31325648  1
  O  O169  1  0.50422913  0.37805597  0.65764573  1
  O  O170  1  0.50336891  0.37304787  0.97392455  1
  O  O171  1  0.49425199  0.87418208  0.31263737  1
  O  O172  1  0.50540696  0.87251719  0.64978253  1
  O  O173  1  0.50400946  0.87227132  0.97642228  1
  O  O174  1  0.82272589  0.37407777  0.30859445  1
  O  O175  1  0.82429336  0.37373601  0.65395063  1
  O  O176  1  0.82278890  0.37306243  0.97053500  1
  O  O177  1  0.83829979  0.87716486  0.31041773  1
  O  O178  1  0.82379390  0.87388396  0.63825048  1
  O  O179  1  0.82339377  0.87981891  0.97948793  1
  O  O180  1  -0.00866301  0.37313060  0.19351663  1
  O  O181  1  -0.00176200  0.37314911  0.52125492  1
  O  O182  1  -0.00948222  0.37488538  0.85238193  1
  O  O183  1  -0.00845239  0.87864946  0.18823893  1
  O  O184  1  -0.01041145  0.87759911  0.52834565  1
  O  O185  1  -0.00571363  0.87550723  0.84252560  1
  O  O186  1  0.33895069  0.37489087  0.18752315  1
  O  O187  1  0.33210829  0.37910204  0.52111090  1
  O  O188  1  0.34290829  0.37886505  0.85670107  1
  O  O189  1  0.33122471  0.87559428  0.19065833  1
  O  O190  1  0.32559248  0.87270536  0.52502546  1
  O  O191  1  0.34394216  0.87106806  0.85808193  1
  O  O192  1  0.66671259  0.37741959  0.19671026  1
  O  O193  1  0.66645985  0.37843344  0.52468143  1
  O  O194  1  0.66314698  0.37027657  0.85857492  1
  O  O195  1  0.66912944  0.87423739  0.17905006  1
  O  O196  1  0.67334979  0.87328853  0.52547918  1
  O  O197  1  0.66511410  0.87913970  0.86377865  1
  O  O198  1  -0.00053112  0.12685594  0.15345272  1
  O  O199  1  0.00696879  0.12010418  0.47294861  1
  O  O200  1  -0.00492067  0.12472477  0.80689103  1
  O  O201  1  -0.00251405  0.62108846  0.15513058  1
  O  O202  1  0.00449411  0.62809193  0.48956395  1
  O  O203  1  -0.00703708  0.62473816  0.81407538  1
  O  O204  1  0.34522919  0.12480572  0.15408507  1
  O  O205  1  0.32678276  0.11836322  0.47905806  1
  O  O206  1  0.34423316  0.12318650  0.82249889  1
  O  O207  1  0.34643484  0.62481850  0.14118218  1
  O  O208  1  0.34060146  0.62857202  0.49186362  1
  O  O209  1  0.34159252  0.62629541  0.81160805  1
  O  O210  1  0.66228000  0.12494514  0.14550577  1
  O  O211  1  0.67129901  0.12392641  0.49289153  1
  O  O212  1  0.66880145  0.12345274  0.80574249  1
  O  O213  1  0.66706640  0.62379996  0.15507121  1
  O  O214  1  0.67148654  0.62563477  0.47744505  1
  O  O215  1  0.67097824  0.62763223  0.81032566  1
  O  O216  1  0.07863179  0.02078842  0.25874527  1
  O  O217  1  0.07313353  0.01847138  0.58662881  1
  O  O218  1  0.08578974  0.00198914  0.91442542  1
  O  O219  1  0.08277809  0.51145092  0.24776032  1
  O  O220  1  0.07833680  0.51091293  0.58654980  1
  O  O221  1  0.08025501  0.50007334  0.91692279  1
  O  O222  1  0.41030447  0.01146890  0.25292316  1
  O  O223  1  0.41337433  0.00133937  0.58632793  1
  O  O224  1  0.43040958  0.01159878  0.91173540  1
  O  O225  1  0.42352674  0.51369130  0.24281055  1
  O  O226  1  0.41468178  0.51453072  0.59074428  1
  O  O227  1  0.41316620  0.52313019  0.92016952  1
  O  O228  1  0.75460633  0.01306540  0.24135239  1
  O  O229  1  0.74927292  0.02231065  0.59084282  1
  O  O230  1  0.74975112  0.02767633  0.91620206  1
  O  O231  1  0.74507172  0.52297680  0.25430972  1
  O  O232  1  0.74343120  0.52151603  0.59068808  1
  O  O233  1  0.74771608  0.51510927  0.91671395  1
  O  O234  1  0.24551231  0.22370758  0.24677792  1
  O  O235  1  0.24182574  0.23348614  0.57627280  1
  O  O236  1  0.25425295  0.25054357  0.91334889  1
  O  O237  1  0.24303977  0.73125579  0.23763691  1
  O  O238  1  0.23919240  0.73475773  0.57309913  1
  O  O239  1  0.25462244  0.73779901  0.91820932  1
  O  O240  1  0.57365214  0.23793707  0.24036387  1
  O  O241  1  0.58803762  0.23906462  0.59313305  1
  O  O242  1  0.58661788  0.22386263  0.91826267  1
  O  O243  1  0.58249246  0.73144563  0.25245154  1
  O  O244  1  0.58154070  0.72585548  0.58563095  1
  O  O245  1  0.57445443  0.73529925  0.90980767  1
  O  O246  1  0.91136422  0.22999793  0.24375203  1
  O  O247  1  0.91291597  0.22365526  0.57502868  1
  O  O248  1  0.90770999  0.23671354  0.90261155  1
  O  O249  1  0.90526452  0.73699969  0.24186380  1
  O  O250  1  0.90327947  0.73437339  0.57364218  1
  O  O251  1  0.90803566  0.73922937  0.90552800  1
  O  O252  1  0.08088114  0.48587254  0.08149774  1
  O  O253  1  0.08004765  0.48961610  0.41747013  1
  O  O254  1  0.08746859  0.47827182  0.75305286  1
  O  O255  1  0.08614248  0.99258227  0.09384765  1
  O  O256  1  0.08736747  0.97247135  0.42415890  1
  O  O257  1  0.08768910  0.97623628  0.75136512  1
  O  O258  1  0.41934651  0.47347380  0.08305054  1
  O  O259  1  0.41932926  0.49383783  0.41741017  1
  O  O260  1  0.42469256  0.48269272  0.75644758  1
  O  O261  1  0.41691116  0.97687867  0.08560233  1
  O  O262  1  0.41296471  0.97920609  0.41608295  1
  O  O263  1  0.41969939  0.97568535  0.75105224  1
  O  O264  1  0.75243015  0.47715122  0.08983158  1
  O  O265  1  0.74892699  0.48643828  0.41443098  1
  O  O266  1  0.75599905  0.48112169  0.75650625  1
  O  O267  1  0.74175964  0.98706467  0.07812629  1
  O  O268  1  0.76145523  0.98817838  0.42555619  1
  O  O269  1  0.75141863  0.97746432  0.75603866  1
  O  O270  1  0.25795387  0.26414374  0.07995880  1
  O  O271  1  0.25526939  0.25437969  0.40790696  1
  O  O272  1  0.25765304  0.27081448  0.74883595  1
  O  O273  1  0.25757426  0.76273462  0.07692761  1
  O  O274  1  0.25232890  0.77384196  0.40918902  1
  O  O275  1  0.25452000  0.77393856  0.74728047  1
  O  O276  1  0.58630587  0.27745632  0.08121234  1
  O  O277  1  0.58686396  0.26398313  0.40924095  1
  O  O278  1  0.58740210  0.26786243  0.75385832  1
  O  O279  1  0.57855693  0.76788472  0.08642497  1
  O  O280  1  0.58280071  0.75909718  0.42373827  1
  O  O281  1  0.59025526  0.77372011  0.74833701  1
  O  O282  1  0.91538321  0.27512221  0.07579289  1
  O  O283  1  0.92426665  0.26554573  0.40345162  1
  O  O284  1  0.92446464  0.27187109  0.73842020  1
  O  O285  1  0.91078664  0.76290967  0.08459014  1
  O  O286  1  0.92306962  0.77315494  0.41148849  1
  O  O287  1  0.91873922  0.77183746  0.73835587  1
  O  O288  1  0.26100496  0.48753708  0.07429692  1
  O  O289  1  0.25178768  0.49623798  0.41539183  1
  O  O290  1  0.25803925  0.47915349  0.74856326  1
  O  O291  1  0.25285475  0.98514840  0.08420485  1
  O  O292  1  0.25284064  0.97387171  0.41145069  1
  O  O293  1  0.25466128  0.97475679  0.74734024  1
  O  O294  1  0.58481346  0.47849293  0.08521013  1
  O  O295  1  0.59075275  0.48855753  0.40901263  1
  O  O296  1  0.59514091  0.48249090  0.74258938  1
  O  O297  1  0.58084539  0.97598611  0.08306358  1
  O  O298  1  0.58214495  0.98832800  0.42201895  1
  O  O299  1  0.58441252  0.97797475  0.75809769  1
  O  O300  1  0.91835435  0.47009136  0.07409477  1
  O  O301  1  0.92119846  0.48095911  0.40337404  1
  O  O302  1  0.92378807  0.47851264  0.73945588  1
  O  O303  1  0.90576171  0.98929087  0.08949541  1
  O  O304  1  0.92539992  0.97558874  0.41270196  1
  O  O305  1  0.92142334  0.97931488  0.73716201  1
  O  O306  1  0.07988489  0.26529298  0.08211731  1
  O  O307  1  0.08043583  0.25912788  0.41400407  1
  O  O308  1  0.08620007  0.27243994  0.75188851  1
  O  O309  1  0.08817414  0.75496835  0.08917679  1
  O  O310  1  0.08558764  0.77576374  0.42162681  1
  O  O311  1  0.08847631  0.77202642  0.75140065  1
  O  O312  1  0.42143465  0.27336509  0.08292367  1
  O  O313  1  0.41494258  0.25717511  0.41283450  1
  O  O314  1  0.42003846  0.27208562  0.75122963  1
  O  O315  1  0.41591757  0.77786555  0.08228337  1
  O  O316  1  0.41538607  0.76813574  0.41563173  1
  O  O317  1  0.42326257  0.77132159  0.75425093  1
  O  O318  1  0.74810099  0.27253851  0.08385457  1
  O  O319  1  0.74953428  0.26092870  0.41312276  1
  O  O320  1  0.75359510  0.26804751  0.75762802  1
  O  O321  1  0.74918728  0.76514522  0.08619693  1
  O  O322  1  0.76091302  0.76447503  0.42770646  1
  O  O323  1  0.75405847  0.77569775  0.75260656  1
  O  O324  1  0.24544572  0.02657909  0.24890498  1
  O  O325  1  0.23758794  0.01128731  0.57247211  1
  O  O326  1  0.25563265  -0.00072524  0.91412861  1
  O  O327  1  0.24600240  0.52030838  0.23877881  1
  O  O328  1  0.24507527  0.51912272  0.57979916  1
  O  O329  1  0.25311546  0.51200797  0.91561088  1
  O  O330  1  0.57424579  0.00886657  0.24203127  1
  O  O331  1  0.59053040  0.01018408  0.59622376  1
  O  O332  1  0.58939582  0.02557983  0.91948387  1
  O  O333  1  0.58149940  0.52151043  0.24892206  1
  O  O334  1  0.57808458  0.52724807  0.58017121  1
  O  O335  1  0.57469777  0.51462704  0.90672096  1
  O  O336  1  0.91607905  0.02374785  0.25110162  1
  O  O337  1  0.91177424  0.02552716  0.57215352  1
  O  O338  1  0.90925631  0.01304452  0.90458141  1
  O  O339  1  0.90119656  0.51135237  0.23499523  1
  O  O340  1  0.90774315  0.51904322  0.57551414  1
  O  O341  1  0.90681847  0.51113292  0.90228995  1
  O  O342  1  0.08255279  0.22933364  0.25259335  1
  O  O343  1  0.07445947  0.23141058  0.58529612  1
  O  O344  1  0.08088940  0.25015208  0.91496631  1
  O  O345  1  0.08059005  0.74133378  0.25125091  1
  O  O346  1  0.07628076  0.74053827  0.58586930  1
  O  O347  1  0.08695516  0.74763532  0.91591692  1
  O  O348  1  0.41405144  0.23528402  0.25057838  1
  O  O349  1  0.41314017  0.24580379  0.58831104  1
  O  O350  1  0.42852348  0.23614537  0.91146459  1
  O  O351  1  0.42129720  0.73942425  0.24189671  1
  O  O352  1  0.41723596  0.73901265  0.58985152  1
  O  O353  1  0.41515588  0.72665919  0.92063549  1
  O  O354  1  0.75312792  0.23141001  0.24399268  1
  O  O355  1  0.74987469  0.23042355  0.59036014  1
  O  O356  1  0.74652822  0.22343367  0.91938198  1
  O  O357  1  0.74717731  0.73039322  0.25521152  1
  O  O358  1  0.74290240  0.72548827  0.59171909  1
  O  O359  1  0.75012977  0.73582548  0.91380830  1
