# generated using pymatgen
data_Ba17Sr5La8Pr42Mn72O216
_symmetry_space_group_name_H-M   'P 1'
_cell_length_a   16.67557317
_cell_length_b   15.70517438
_cell_length_c   16.82591675
_cell_angle_alpha   89.99943022
_cell_angle_beta   89.97699951
_cell_angle_gamma   90.00307042
_symmetry_Int_Tables_number   1
_chemical_formula_structural   Ba17Sr5La8Pr42Mn72O216
_chemical_formula_sum   'Ba17 Sr5 La8 Pr42 Mn72 O216'
_cell_volume   4406.58582759
_cell_formula_units_Z   1
loop_
 _symmetry_equiv_pos_site_id
 _symmetry_equiv_pos_as_xyz
  1  'x, y, z'
loop_
 _atom_site_type_symbol
 _atom_site_label
 _atom_site_symmetry_multiplicity
 _atom_site_fract_x
 _atom_site_fract_y
 _atom_site_fract_z
 _atom_site_occupancy
  Ba  Ba0  1  0.16450915  0.87793838  0.16523001  1
  Ba  Ba1  1  0.66628329  0.87509551  0.33385941  1
  Ba  Ba2  1  0.50328900  0.62308031  0.16801350  1
  Ba  Ba3  1  0.66628899  0.87703221  0.00182490  1
  Ba  Ba4  1  0.83034610  0.87408109  0.83440527  1
  Ba  Ba5  1  0.16701751  0.12600339  0.16713605  1
  Ba  Ba6  1  0.66693598  0.12484622  1.00070290  1
  Ba  Ba7  1  0.33158080  0.37573643  0.67077359  1
  Ba  Ba8  1  0.49996827  0.37465049  0.83190713  1
  Ba  Ba9  1  0.16529441  0.87573786  0.83134878  1
  Ba  Ba10  1  0.33120341  0.37462712  -0.00112330  1
  Ba  Ba11  1  0.49974413  0.12341117  0.50122776  1
  Ba  Ba12  1  0.66705923  0.62519267  1.00078462  1
  Ba  Ba13  1  0.83538424  0.62303059  0.49987221  1
  Ba  Ba14  1  0.16781291  0.62666919  0.83184340  1
  Ba  Ba15  1  0.32915048  0.87383979  0.33400933  1
  Ba  Ba16  1  0.00032436  0.62388516  0.99845065  1
  Sr  Sr17  1  0.33732379  0.62368871  0.66966671  1
  Sr  Sr18  1  0.16374327  0.37714426  0.82922544  1
  Sr  Sr19  1  0.83764436  0.62728251  0.16695174  1
  Sr  Sr20  1  0.83601997  0.12676629  0.50147886  1
  Sr  Sr21  1  0.83545580  0.62430791  0.83799680  1
  La  La22  1  0.83035382  0.37633233  0.83557559  1
  La  La23  1  0.49946210  0.37401889  0.16246664  1
  La  La24  1  0.83216269  0.12373798  0.17023986  1
  La  La25  1  0.66609342  0.12682528  0.33151157  1
  La  La26  1  0.50275773  0.87422495  0.83605013  1
  La  La27  1  0.83686463  0.12457748  0.83610475  1
  La  La28  1  0.66539001  0.37587535  0.00059804  1
  La  La29  1  0.49455353  0.37388601  0.50209266  1
  Pr  Pr30  1  -0.00100045  0.37890125  -0.00269085  1
  Pr  Pr31  1  0.82630895  0.37471861  0.49841777  1
  Pr  Pr32  1  0.50354135  0.62954960  0.50268448  1
  Pr  Pr33  1  0.17536135  0.62452326  0.16520719  1
  Pr  Pr34  1  0.66698736  0.37396210  0.66820096  1
  Pr  Pr35  1  0.32871334  0.87229108  0.00607564  1
  Pr  Pr36  1  0.33992901  0.12254479  0.33005835  1
  Pr  Pr37  1  0.67062048  0.12634420  0.66439657  1
  Pr  Pr38  1  0.49775760  0.12693900  0.83469910  1
  Pr  Pr39  1  0.82752079  0.87604890  0.49777961  1
  Pr  Pr40  1  0.49779719  0.62170631  0.83930416  1
  Pr  Pr41  1  0.00136883  0.12606868  0.32791901  1
  Pr  Pr42  1  0.00500962  0.62844529  0.66769247  1
  Pr  Pr43  1  0.83000819  0.37682937  0.16465862  1
  Pr  Pr44  1  0.67980525  0.62510892  0.32519789  1
  Pr  Pr45  1  0.66454485  0.87616475  0.66852338  1
  Pr  Pr46  1  0.49593639  0.87546419  0.16248795  1
  Pr  Pr47  1  0.50108570  0.12474342  0.17051177  1
  Pr  Pr48  1  -0.00569222  0.87671347  0.33137340  1
  Pr  Pr49  1  0.16166695  0.37441372  0.16013547  1
  Pr  Pr50  1  0.16075972  0.37832671  0.49909410  1
  Pr  Pr51  1  0.32763664  0.37433370  0.33747430  1
  Pr  Pr52  1  -0.00581291  0.86973873  -0.00018201  1
  Pr  Pr53  1  0.17356715  0.12821436  0.83499640  1
  Pr  Pr54  1  0.00895304  0.62360136  0.32583448  1
  Pr  Pr55  1  0.33432822  0.87595227  0.66859654  1
  Pr  Pr56  1  0.00647184  0.12210866  0.66253378  1
  Pr  Pr57  1  0.17094436  0.12563578  0.49832836  1
  Pr  Pr58  1  0.49162481  0.87601482  0.49610685  1
  Pr  Pr59  1  0.33703936  0.12729201  0.66696268  1
  Pr  Pr60  1  -0.00636457  0.37236029  0.33385007  1
  Pr  Pr61  1  -0.00568743  0.37577154  0.66874536  1
  Pr  Pr62  1  0.34106477  0.62642572  0.33267791  1
  Pr  Pr63  1  0.33271134  0.12312225  1.00052092  1
  Pr  Pr64  1  0.83083464  0.87169651  0.16122216  1
  Pr  Pr65  1  0.66164094  0.37728376  0.33634248  1
  Pr  Pr66  1  0.00598806  0.12339743  0.99550277  1
  Pr  Pr67  1  0.17346146  0.62580677  0.50420728  1
  Pr  Pr68  1  0.33386354  0.62712557  0.99578443  1
  Pr  Pr69  1  0.67008499  0.62426991  0.66868034  1
  Pr  Pr70  1  -0.01030486  0.87386286  0.66693917  1
  Pr  Pr71  1  0.15620225  0.87258763  0.49269078  1
  Mn  Mn72  1  -0.00234369  0.00096702  0.16511847  1
  Mn  Mn73  1  -0.00086206  0.00175713  0.49821737  1
  Mn  Mn74  1  0.00034964  0.00103548  0.82921028  1
  Mn  Mn75  1  0.00132047  0.49915388  0.16709913  1
  Mn  Mn76  1  0.00043543  0.49932970  0.49871817  1
  Mn  Mn77  1  -0.00084485  0.49789490  0.83168190  1
  Mn  Mn78  1  0.33388107  0.00120670  0.16604007  1
  Mn  Mn79  1  0.32978226  0.00109707  0.50235671  1
  Mn  Mn80  1  0.33463459  -0.00113084  0.83345399  1
  Mn  Mn81  1  0.33303902  0.49885922  0.16993317  1
  Mn  Mn82  1  0.33338069  0.49934974  0.50067803  1
  Mn  Mn83  1  0.33204389  0.50109743  0.83279635  1
  Mn  Mn84  1  0.66614597  0.00143730  0.16926779  1
  Mn  Mn85  1  0.66814157  0.00157177  0.50146123  1
  Mn  Mn86  1  0.66608947  0.00045718  0.83117100  1
  Mn  Mn87  1  0.66957260  0.49874154  0.16930707  1
  Mn  Mn88  1  0.66397820  0.50054049  0.50003812  1
  Mn  Mn89  1  0.66729078  0.49940237  0.83237485  1
  Mn  Mn90  1  -0.00159785  0.25176974  0.16485396  1
  Mn  Mn91  1  0.00024088  0.24988859  0.50015229  1
  Mn  Mn92  1  0.00001940  0.24863422  0.83023643  1
  Mn  Mn93  1  0.00106977  0.74883698  0.16742847  1
  Mn  Mn94  1  -0.00087304  0.74910421  0.49678095  1
  Mn  Mn95  1  -0.00164797  0.75177540  0.83226592  1
  Mn  Mn96  1  0.33305916  0.25089503  0.16989410  1
  Mn  Mn97  1  0.33063448  0.25100552  0.50066551  1
  Mn  Mn98  1  0.33255917  0.24903874  0.83311176  1
  Mn  Mn99  1  0.33383238  0.74814811  0.16743864  1
  Mn  Mn100  1  0.33266697  0.74865599  0.50272179  1
  Mn  Mn101  1  0.33499045  0.75259464  0.83319776  1
  Mn  Mn102  1  0.66698648  0.25054589  0.16863124  1
  Mn  Mn103  1  0.66634097  0.25026893  0.50042075  1
  Mn  Mn104  1  0.66777247  0.24790376  0.83206076  1
  Mn  Mn105  1  0.66809301  0.74979959  0.16881274  1
  Mn  Mn106  1  0.66649852  0.74914059  0.50122451  1
  Mn  Mn107  1  0.66617674  0.75047964  0.83182543  1
  Mn  Mn108  1  0.16563995  0.25059543  -0.00204437  1
  Mn  Mn109  1  0.16582539  0.25200249  0.33361384  1
  Mn  Mn110  1  0.16445362  0.24797777  0.66624826  1
  Mn  Mn111  1  0.16583041  0.75122310  0.00008551  1
  Mn  Mn112  1  0.16493850  0.74798514  0.33380736  1
  Mn  Mn113  1  0.16844332  0.75196517  0.66152981  1
  Mn  Mn114  1  0.49971691  0.24899597  0.00155241  1
  Mn  Mn115  1  0.49883211  0.25197067  0.33296184  1
  Mn  Mn116  1  0.50174460  0.24869891  0.66661252  1
  Mn  Mn117  1  0.49865332  0.75048418  -0.00025130  1
  Mn  Mn118  1  0.50179407  0.74936701  0.33568306  1
  Mn  Mn119  1  0.50189073  0.75019144  0.66749127  1
  Mn  Mn120  1  0.83616252  0.24951124  0.00122745  1
  Mn  Mn121  1  0.83272667  0.24991724  0.33513916  1
  Mn  Mn122  1  0.83466420  0.24989201  0.66717477  1
  Mn  Mn123  1  0.83247028  0.74833123  0.00012196  1
  Mn  Mn124  1  0.83644714  0.75123241  0.33378239  1
  Mn  Mn125  1  0.83268713  0.74760949  0.66542778  1
  Mn  Mn126  1  0.16582971  0.00140519  -0.00345248  1
  Mn  Mn127  1  0.16384421  0.00007506  0.33472666  1
  Mn  Mn128  1  0.16729908  -0.00003873  0.66299237  1
  Mn  Mn129  1  0.16639538  0.49865887  -0.00110222  1
  Mn  Mn130  1  0.16740905  0.49909797  0.33142311  1
  Mn  Mn131  1  0.16544524  0.50073761  0.66412990  1
  Mn  Mn132  1  0.49726128  0.00218418  0.00049795  1
  Mn  Mn133  1  0.50037291  -0.00102063  0.33434019  1
  Mn  Mn134  1  0.50111018  -0.00198133  0.66762854  1
  Mn  Mn135  1  0.49931174  0.49877378  0.00111761  1
  Mn  Mn136  1  0.49979870  0.49814455  0.33617312  1
  Mn  Mn137  1  0.50228883  0.50400029  0.66647616  1
  Mn  Mn138  1  0.83609575  0.00251069  0.00225768  1
  Mn  Mn139  1  0.83330889  0.00260571  0.33508768  1
  Mn  Mn140  1  0.83301673  0.00255832  0.66450705  1
  Mn  Mn141  1  0.83302567  0.49832963  -0.00020634  1
  Mn  Mn142  1  0.83621099  0.49761231  0.33310981  1
  Mn  Mn143  1  0.83450442  0.49992762  0.66806615  1
  O  O144  1  0.16181661  0.12703883  0.01087240  1
  O  O145  1  0.15560949  0.12512605  0.35557581  1
  O  O146  1  0.15647451  0.12135038  0.69162054  1
  O  O147  1  0.16984637  0.62343168  0.02029444  1
  O  O148  1  0.15732121  0.61895787  0.36035334  1
  O  O149  1  0.15419362  0.62676540  0.67289796  1
  O  O150  1  0.49184280  0.12606177  0.02615892  1
  O  O151  1  0.49875139  0.12636651  0.34551245  1
  O  O152  1  0.49986521  0.11899110  0.68902875  1
  O  O153  1  0.49260093  0.62518214  0.00975274  1
  O  O154  1  0.49456524  0.62005558  0.35938614  1
  O  O155  1  0.50774467  0.63042129  0.69463409  1
  O  O156  1  0.84380358  0.12865439  0.02585386  1
  O  O157  1  0.83559947  0.12829801  0.35421637  1
  O  O158  1  0.83006217  0.12854111  0.69205113  1
  O  O159  1  0.83372999  0.61981900  0.01470775  1
  O  O160  1  0.83306607  0.62059968  0.34318588  1
  O  O161  1  0.82861872  0.62043989  0.68677394  1
  O  O162  1  0.17720210  0.37995977  0.30259332  1
  O  O163  1  0.16014152  0.37315505  0.64284221  1
  O  O164  1  0.16183915  0.37152563  0.98196727  1
  O  O165  1  0.16082073  0.87512952  0.32183813  1
  O  O166  1  0.17868511  0.87826229  0.63600795  1
  O  O167  1  0.17464047  0.87870895  0.98960705  1
  O  O168  1  0.50138284  0.37487586  0.30690707  1
  O  O169  1  0.50883455  0.37904108  0.64521847  1
  O  O170  1  0.50777411  0.37180681  0.99047344  1
  O  O171  1  0.49959233  0.87678118  0.30983202  1
  O  O172  1  0.50289344  0.87345906  0.63778769  1
  O  O173  1  0.49201029  0.87770423  0.98124059  1
  O  O174  1  0.83738852  0.37245406  0.30968612  1
  O  O175  1  0.83731395  0.37365080  0.64061347  1
  O  O176  1  0.83348624  0.37037374  0.97950561  1
  O  O177  1  0.84104956  0.88056435  0.30750341  1
  O  O178  1  0.83621194  0.87678443  0.64110603  1
  O  O179  1  0.83934440  0.87752812  0.99434233  1
  O  O180  1  0.00693570  0.37518921  0.19101973  1
  O  O181  1  0.00739541  0.37152389  0.52630203  1
  O  O182  1  0.00007295  0.36896685  0.85256974  1
  O  O183  1  -0.00677597  0.87365636  0.18805954  1
  O  O184  1  0.00541680  0.87736228  0.52435371  1
  O  O185  1  -0.00120145  0.88059169  0.85253348  1
  O  O186  1  0.32982984  0.37527754  0.19428249  1
  O  O187  1  0.33189799  0.37471748  0.51465874  1
  O  O188  1  0.32845496  0.37229322  0.84065573  1
  O  O189  1  0.33751671  0.87590710  0.17607040  1
  O  O190  1  0.33672494  0.87433736  0.52402973  1
  O  O191  1  0.33947323  0.87818689  0.86082974  1
  O  O192  1  0.66717633  0.37306965  0.19241363  1
  O  O193  1  0.66800771  0.37615617  0.52459918  1
  O  O194  1  0.67017492  0.36955301  0.85548315  1
  O  O195  1  0.66759081  0.87815653  0.17733726  1
  O  O196  1  0.67575726  0.87817121  0.52439513  1
  O  O197  1  0.66238334  0.87758662  0.84510656  1
  O  O198  1  -0.00841604  0.13022198  0.14140078  1
  O  O199  1  0.00030295  0.12751674  0.47019369  1
  O  O200  1  -0.00468235  0.12530251  0.80512412  1
  O  O201  1  0.00033117  0.62213906  0.15695324  1
  O  O202  1  0.00349006  0.62451608  0.47039253  1
  O  O203  1  -0.00436346  0.62350876  0.81220928  1
  O  O204  1  0.34140043  0.12617787  0.14684019  1
  O  O205  1  0.32595140  0.12899732  0.47295900  1
  O  O206  1  0.33405184  0.12097325  0.81018172  1
  O  O207  1  0.32862341  0.62150634  0.14307764  1
  O  O208  1  0.33144685  0.62136677  0.47509501  1
  O  O209  1  0.34083981  0.62997976  0.82044336  1
  O  O210  1  0.66483904  0.12773639  0.15732665  1
  O  O211  1  0.66851151  0.12679547  0.47459833  1
  O  O212  1  0.66775032  0.12432863  0.80855098  1
  O  O213  1  0.67328863  0.62108242  0.16178421  1
  O  O214  1  0.65799268  0.61970681  0.46917175  1
  O  O215  1  0.66122799  0.62650928  0.81200883  1
  O  O216  1  0.07559083  0.01416735  0.25127003  1
  O  O217  1  0.08867212  0.02267952  0.57232651  1
  O  O218  1  0.08676347  0.02287049  0.90544063  1
  O  O219  1  0.09576940  0.51924152  0.24266147  1
  O  O220  1  0.09056011  0.51631583  0.56899720  1
  O  O221  1  0.08349730  0.50277762  0.91131962  1
  O  O222  1  0.42035097  0.01873928  0.24525656  1
  O  O223  1  0.41091529  0.01215053  0.59143459  1
  O  O224  1  0.41459032  0.02670026  0.91792710  1
  O  O225  1  0.41449638  0.51363899  0.25727982  1
  O  O226  1  0.42495175  0.51728576  0.57786725  1
  O  O227  1  0.41531483  0.51546673  0.91797704  1
  O  O228  1  0.74995132  0.02273016  0.25581504  1
  O  O229  1  0.75408979  0.02343470  0.58127430  1
  O  O230  1  0.75828246  0.01736510  0.91301452  1
  O  O231  1  0.75909583  0.50779225  0.24624920  1
  O  O232  1  0.74638403  0.51085763  0.58658787  1
  O  O233  1  0.75045526  0.50441370  0.91380682  1
  O  O234  1  0.25921880  0.23171109  0.26399506  1
  O  O235  1  0.24906087  0.22530440  0.58870423  1
  O  O236  1  0.25420750  0.22709065  0.91947220  1
  O  O237  1  0.25320742  0.72498127  0.25684316  1
  O  O238  1  0.25533291  0.72868228  0.58590700  1
  O  O239  1  0.25781532  0.74001320  0.92574738  1
  O  O240  1  0.58235930  0.23375192  0.25003075  1
  O  O241  1  0.58880177  0.23549678  0.58542774  1
  O  O242  1  0.58052575  0.23077366  0.90927563  1
  O  O243  1  0.59314774  0.73159887  0.26352837  1
  O  O244  1  0.58883336  0.72672719  0.58998106  1
  O  O245  1  0.57676711  0.74019725  0.90970430  1
  O  O246  1  0.91751569  0.23241619  0.25088302  1
  O  O247  1  0.92422958  0.23145145  0.59142369  1
  O  O248  1  0.92485535  0.22837493  0.91690165  1
  O  O249  1  0.92988284  0.73627566  0.26233444  1
  O  O250  1  0.92810078  0.73508334  0.58864125  1
  O  O251  1  0.91688984  0.74484556  0.92041255  1
  O  O252  1  0.07835904  0.47766507  0.07916783  1
  O  O253  1  0.07957494  0.47227019  0.40250113  1
  O  O254  1  0.07258162  0.48648831  0.73658968  1
  O  O255  1  0.07398986  0.98927238  0.06834905  1
  O  O256  1  0.07554620  0.97974643  0.41241703  1
  O  O257  1  0.07573422  0.98090595  0.73285859  1
  O  O258  1  0.41789520  0.48259344  0.09180033  1
  O  O259  1  0.41287423  0.47589991  0.41435755  1
  O  O260  1  0.42169471  0.49826174  0.74945197  1
  O  O261  1  0.41458110  0.98027927  0.08050592  1
  O  O262  1  0.41345662  0.98758361  0.41943556  1
  O  O263  1  0.41876993  0.97655141  0.75296074  1
  O  O264  1  0.74877989  0.47391744  0.08145164  1
  O  O265  1  0.74423043  0.47816053  0.41363117  1
  O  O266  1  0.75048822  0.47629712  0.74899288  1
  O  O267  1  0.75547901  0.99443036  0.09350903  1
  O  O268  1  0.75399128  0.98581393  0.42089196  1
  O  O269  1  0.74267619  0.98774818  0.73730288  1
  O  O270  1  0.24570634  0.26387165  0.09399774  1
  O  O271  1  0.24199942  0.27211705  0.42288775  1
  O  O272  1  0.24132574  0.25182648  0.75497812  1
  O  O273  1  0.24890172  0.75757634  0.08546758  1
  O  O274  1  0.23536920  0.75988182  0.42634873  1
  O  O275  1  0.25600576  0.76594745  0.74681393  1
  O  O276  1  0.58723890  0.26790365  0.08561113  1
  O  O277  1  0.58051513  0.27276896  0.41420224  1
  O  O278  1  0.59119143  0.26050353  0.74372219  1
  O  O279  1  0.57406701  0.76483905  0.08982282  1
  O  O280  1  0.57336611  0.76722603  0.43223366  1
  O  O281  1  0.58125261  0.77540702  0.74836159  1
  O  O282  1  0.91697969  0.27972436  0.08684316  1
  O  O283  1  0.91411128  0.27437567  0.42270225  1
  O  O284  1  0.91153098  0.27139536  0.75464545  1
  O  O285  1  0.91402674  0.76505813  0.09073826  1
  O  O286  1  0.91115142  0.77671377  0.42307672  1
  O  O287  1  0.91647140  0.76234164  0.74475516  1
  O  O288  1  0.23931639  0.48499011  0.09702493  1
  O  O289  1  0.24221030  0.47838679  0.41719950  1
  O  O290  1  0.24266059  0.49423126  0.75054968  1
  O  O291  1  0.25562810  0.99517345  0.07745744  1
  O  O292  1  0.23783519  0.98739782  0.42947767  1
  O  O293  1  0.25716528  0.98682293  0.74385829  1
  O  O294  1  0.58519993  0.48159849  0.08777979  1
  O  O295  1  0.57607008  0.47078895  0.42333665  1
  O  O296  1  0.59389248  0.48653520  0.74001280  1
  O  O297  1  0.57295264  0.99064315  0.09192889  1
  O  O298  1  0.57815497  0.98256568  0.42688656  1
  O  O299  1  0.57938549  0.97826754  0.74951157  1
  O  O300  1  0.91383492  0.47678320  0.08845161  1
  O  O301  1  0.91147175  0.47297338  0.42488632  1
  O  O302  1  0.91259384  0.47572813  0.75410727  1
  O  O303  1  0.91507138  0.97961387  0.08788200  1
  O  O304  1  0.91468613  0.97715714  0.41922603  1
  O  O305  1  0.91512949  0.98744047  0.74636397  1
  O  O306  1  0.07764426  0.26953414  0.07869946  1
  O  O307  1  0.08098415  0.27629216  0.41313565  1
  O  O308  1  0.07270553  0.26508615  0.73856008  1
  O  O309  1  0.07539562  0.76670868  0.07767859  1
  O  O310  1  0.07065852  0.76937650  0.40518575  1
  O  O311  1  0.07652550  0.76629304  0.73227631  1
  O  O312  1  0.41970295  0.26590732  0.09346077  1
  O  O313  1  0.41343055  0.27057369  0.41195139  1
  O  O314  1  0.41781185  0.25037075  0.75158083  1
  O  O315  1  0.41252629  0.76760209  0.07900746  1
  O  O316  1  0.41444489  0.76158817  0.42041170  1
  O  O317  1  0.41871586  0.77554838  0.74741436  1
  O  O318  1  0.75029492  0.26983929  0.08902825  1
  O  O319  1  0.74675784  0.27451956  0.41645965  1
  O  O320  1  0.74980989  0.27158334  0.74705213  1
  O  O321  1  0.75291978  0.76103236  0.08660558  1
  O  O322  1  0.75129676  0.76158133  0.41722170  1
  O  O323  1  0.74067755  0.76218552  0.74043229  1
  O  O324  1  0.25554263  0.01758855  0.25930570  1
  O  O325  1  0.25159202  0.03035428  0.58654056  1
  O  O326  1  0.25095770  0.02273938  0.91462807  1
  O  O327  1  0.25432079  0.52786124  0.25968646  1
  O  O328  1  0.25065134  0.51672985  0.58169921  1
  O  O329  1  0.25507204  0.51592425  0.92662513  1
  O  O330  1  0.58554091  0.02030248  0.25376891  1
  O  O331  1  0.59361919  0.01445703  0.59264456  1
  O  O332  1  0.57468701  0.01518320  0.91229374  1
  O  O333  1  0.59513558  0.51134464  0.26597987  1
  O  O334  1  0.58442391  0.52784029  0.58242656  1
  O  O335  1  0.58073835  0.51175312  0.90998769  1
  O  O336  1  0.91488127  0.02514284  0.25305732  1
  O  O337  1  0.92379072  0.01875566  0.58676634  1
  O  O338  1  0.92336030  0.02205758  0.92056355  1
  O  O339  1  0.93198610  0.50786030  0.26150994  1
  O  O340  1  0.92663289  0.51455632  0.59629545  1
  O  O341  1  0.91696097  0.49990985  0.91762650  1
  O  O342  1  0.07861936  0.23877165  0.25242954  1
  O  O343  1  0.08692548  0.22462268  0.57552473  1
  O  O344  1  0.08514147  0.22762805  0.90599507  1
  O  O345  1  0.09141532  0.72709840  0.24395312  1
  O  O346  1  0.09147471  0.73651524  0.56609051  1
  O  O347  1  0.08440276  0.74802182  0.91579179  1
  O  O348  1  0.41819129  0.23039784  0.25090346  1
  O  O349  1  0.41390950  0.23688215  0.58565800  1
  O  O350  1  0.41466150  0.22783353  0.91789982  1
  O  O351  1  0.41703299  0.73495169  0.25137417  1
  O  O352  1  0.42499422  0.73084413  0.58296587  1
  O  O353  1  0.41831168  0.73389853  0.91471519  1
  O  O354  1  0.74860871  0.23189915  0.25206172  1
  O  O355  1  0.75265876  0.23391086  0.58571807  1
  O  O356  1  0.75738579  0.23341096  0.90915614  1
  O  O357  1  0.75927149  0.74059332  0.24962002  1
  O  O358  1  0.74935799  0.73431844  0.58278062  1
  O  O359  1  0.74964167  0.73889952  0.91144025  1
