# generated using pymatgen
data_Ba17Sr5La8Pr42Mn72O216
_symmetry_space_group_name_H-M   'P 1'
_cell_length_a   16.67455599
_cell_length_b   15.69762899
_cell_length_c   16.82480705
_cell_angle_alpha   90.01701020
_cell_angle_beta   90.02199605
_cell_angle_gamma   90.02505668
_symmetry_Int_Tables_number   1
_chemical_formula_structural   Ba17Sr5La8Pr42Mn72O216
_chemical_formula_sum   'Ba17 Sr5 La8 Pr42 Mn72 O216'
_cell_volume   4403.90902033
_cell_formula_units_Z   1
loop_
 _symmetry_equiv_pos_site_id
 _symmetry_equiv_pos_as_xyz
  1  'x, y, z'
loop_
 _atom_site_type_symbol
 _atom_site_label
 _atom_site_symmetry_multiplicity
 _atom_site_fract_x
 _atom_site_fract_y
 _atom_site_fract_z
 _atom_site_occupancy
  Ba  Ba0  1  0.16510615  0.87527951  0.16645983  1
  Ba  Ba1  1  -0.00297404  0.62584406  0.99848874  1
  Ba  Ba2  1  0.66657104  0.87469581  0.66744739  1
  Ba  Ba3  1  0.16333976  0.62513426  0.83170687  1
  Ba  Ba4  1  0.33378369  0.62356436  0.33437770  1
  Ba  Ba5  1  0.16909933  0.12500870  0.49949053  1
  Ba  Ba6  1  0.33204874  0.37398778  0.00030444  1
  Ba  Ba7  1  0.66650786  0.37587567  0.66978829  1
  Ba  Ba8  1  0.16455311  0.87589975  0.49706714  1
  Ba  Ba9  1  0.16326919  0.37507805  0.83337069  1
  Ba  Ba10  1  0.49796413  0.87514535  0.83123403  1
  Ba  Ba11  1  0.66461838  0.12581554  0.66690143  1
  Ba  Ba12  1  0.66865462  0.12582265  0.33352762  1
  Ba  Ba13  1  0.66778333  0.87450912  0.33437504  1
  Ba  Ba14  1  0.33515404  0.12523037  0.99855212  1
  Ba  Ba15  1  0.50231159  0.87271044  0.16482038  1
  Ba  Ba16  1  0.33409506  0.37651802  0.33409619  1
  Sr  Sr17  1  0.50188354  0.12351056  0.83251844  1
  Sr  Sr18  1  0.00156950  0.37440753  0.66829775  1
  Sr  Sr19  1  -0.00049984  0.37503870  0.33398636  1
  Sr  Sr20  1  0.83584487  0.62415455  0.17000303  1
  Sr  Sr21  1  0.00105721  0.62194422  0.66640147  1
  La  La22  1  0.33577026  0.12456962  0.66682807  1
  La  La23  1  0.67139858  0.37722872  0.33862909  1
  La  La24  1  0.83472987  0.62538925  0.50276538  1
  La  La25  1  0.83632246  0.12565550  0.17206075  1
  La  La26  1  0.50269822  0.37529031  0.16473845  1
  La  La27  1  0.33239987  0.62635167  0.66304458  1
  La  La28  1  0.83310506  0.87438307  0.83319445  1
  La  La29  1  0.83490567  0.37495374  0.50216677  1
  Pr  Pr30  1  0.66396884  0.62634541  1.00087713  1
  Pr  Pr31  1  0.16816214  0.12745638  0.83332632  1
  Pr  Pr32  1  0.82842198  0.62343767  0.83841899  1
  Pr  Pr33  1  0.00091595  0.87701712  0.66715882  1
  Pr  Pr34  1  0.33470187  0.12195632  0.33062854  1
  Pr  Pr35  1  0.83342246  0.12553958  0.50315324  1
  Pr  Pr36  1  0.33405798  0.87532322  0.33698326  1
  Pr  Pr37  1  0.83088169  0.87521665  0.16591992  1
  Pr  Pr38  1  0.49998953  0.62437617  0.83280845  1
  Pr  Pr39  1  0.66272463  0.12226292  0.99774649  1
  Pr  Pr40  1  0.50065845  0.62156903  0.16884080  1
  Pr  Pr41  1  -0.00351868  0.87073484  0.00220122  1
  Pr  Pr42  1  0.00690833  0.12542092  0.32986548  1
  Pr  Pr43  1  0.66496857  0.62647710  0.66808752  1
  Pr  Pr44  1  0.00041500  0.12325329  0.99738780  1
  Pr  Pr45  1  0.00442729  0.62526280  0.32862118  1
  Pr  Pr46  1  0.49986112  0.87739419  0.49500755  1
  Pr  Pr47  1  0.17057693  0.62171087  0.50438288  1
  Pr  Pr48  1  0.16305556  0.87457395  0.83138764  1
  Pr  Pr49  1  0.82795836  0.12668975  0.83511683  1
  Pr  Pr50  1  0.50105088  0.12622305  0.50114401  1
  Pr  Pr51  1  0.66814621  0.62510400  0.32946294  1
  Pr  Pr52  1  0.83810935  0.37598357  0.83109161  1
  Pr  Pr53  1  0.50488943  0.62352453  0.49960257  1
  Pr  Pr54  1  0.83162574  0.87635116  0.49862483  1
  Pr  Pr55  1  0.16590593  0.37700608  0.16228789  1
  Pr  Pr56  1  0.32793341  0.37449357  0.67009509  1
  Pr  Pr57  1  0.00157845  0.37871549  0.00245131  1
  Pr  Pr58  1  -0.00376320  0.87362913  0.33578433  1
  Pr  Pr59  1  0.33347202  0.62938289  0.99671186  1
  Pr  Pr60  1  0.15964978  0.37650417  0.49905125  1
  Pr  Pr61  1  0.66859420  0.37570126  0.00068083  1
  Pr  Pr62  1  0.17613988  0.12753466  0.17084172  1
  Pr  Pr63  1  0.49481087  0.37094555  0.82880841  1
  Pr  Pr64  1  0.50266024  0.37372188  0.49831842  1
  Pr  Pr65  1  0.16798684  0.62216289  0.16727118  1
  Pr  Pr66  1  0.49618441  0.12543990  0.16849112  1
  Pr  Pr67  1  0.83564667  0.37395825  0.16774063  1
  Pr  Pr68  1  0.00058954  0.12909231  0.66314305  1
  Pr  Pr69  1  0.66503010  0.87513381  0.00467686  1
  Pr  Pr70  1  0.32851015  0.87687392  0.00122801  1
  Pr  Pr71  1  0.32743939  0.87548301  0.66597391  1
  Mn  Mn72  1  -0.00061269  0.00062223  0.16474847  1
  Mn  Mn73  1  -0.00199731  0.00106865  0.49955797  1
  Mn  Mn74  1  -0.00250250  0.00176124  0.83270620  1
  Mn  Mn75  1  -0.00040007  0.49978448  0.16824255  1
  Mn  Mn76  1  -0.00069199  0.50010104  0.49842601  1
  Mn  Mn77  1  -0.00321702  0.50019163  0.83262731  1
  Mn  Mn78  1  0.33441238  -0.00230785  0.16615812  1
  Mn  Mn79  1  0.33553234  0.00131506  0.49917516  1
  Mn  Mn80  1  0.33105506  -0.00120423  0.83253448  1
  Mn  Mn81  1  0.33424760  0.49992050  0.16516480  1
  Mn  Mn82  1  0.33462804  0.49891263  0.50278988  1
  Mn  Mn83  1  0.33332841  0.50147596  0.83229914  1
  Mn  Mn84  1  0.66839544  0.00136911  0.16497870  1
  Mn  Mn85  1  0.66717250  0.00044354  0.50051948  1
  Mn  Mn86  1  0.66638528  0.00049898  0.83471715  1
  Mn  Mn87  1  0.67010864  0.49883582  0.16787541  1
  Mn  Mn88  1  0.66849082  0.50122071  0.50127921  1
  Mn  Mn89  1  0.66486902  0.49950335  0.83634736  1
  Mn  Mn90  1  0.00066187  0.24986498  0.16545990  1
  Mn  Mn91  1  -0.00050475  0.25103739  0.49909828  1
  Mn  Mn92  1  -0.00300934  0.24653549  0.83316362  1
  Mn  Mn93  1  -0.00037196  0.74952317  0.16740461  1
  Mn  Mn94  1  -0.00106676  0.74789749  0.49919769  1
  Mn  Mn95  1  -0.00342473  0.75141517  0.83204779  1
  Mn  Mn96  1  0.33443718  0.25076493  0.16871387  1
  Mn  Mn97  1  0.33496884  0.25189429  0.50116290  1
  Mn  Mn98  1  0.33284389  0.24974537  0.83217324  1
  Mn  Mn99  1  0.33374306  0.74928579  0.16494219  1
  Mn  Mn100  1  0.33467501  0.74993928  0.49951525  1
  Mn  Mn101  1  0.33162281  0.75025248  0.83155475  1
  Mn  Mn102  1  0.66861224  0.25160330  0.16602355  1
  Mn  Mn103  1  0.66805283  0.25166361  0.49991035  1
  Mn  Mn104  1  0.66555681  0.24978566  0.83666435  1
  Mn  Mn105  1  0.66962257  0.74756243  0.16653310  1
  Mn  Mn106  1  0.66713788  0.74817866  0.50074819  1
  Mn  Mn107  1  0.66630364  0.74874049  0.83496844  1
  Mn  Mn108  1  0.16330884  0.24791252  0.00109923  1
  Mn  Mn109  1  0.16733143  0.25235174  0.33344010  1
  Mn  Mn110  1  0.16620624  0.24884217  0.66633124  1
  Mn  Mn111  1  0.16572743  0.75141545  -0.00085186  1
  Mn  Mn112  1  0.16640257  0.74889617  0.33276962  1
  Mn  Mn113  1  0.16478782  0.75081895  0.66509382  1
  Mn  Mn114  1  0.50271777  0.25126226  -0.00070545  1
  Mn  Mn115  1  0.50161807  0.25074676  0.33285304  1
  Mn  Mn116  1  0.49735004  0.25033374  0.66500709  1
  Mn  Mn117  1  0.50015255  0.74880338  -0.00142062  1
  Mn  Mn118  1  0.50047050  0.74867463  0.33262485  1
  Mn  Mn119  1  0.49792608  0.74862131  0.66416869  1
  Mn  Mn120  1  0.83333259  0.24992877  0.00232476  1
  Mn  Mn121  1  0.83689873  0.25123311  0.33485430  1
  Mn  Mn122  1  0.83502472  0.25095722  0.66824274  1
  Mn  Mn123  1  0.83072770  0.74970691  0.00108955  1
  Mn  Mn124  1  0.83552280  0.74829787  0.33502111  1
  Mn  Mn125  1  0.83530582  0.74856357  0.66812055  1
  Mn  Mn126  1  0.16356488  0.00151390  -0.00191827  1
  Mn  Mn127  1  0.16614961  0.00008100  0.33108819  1
  Mn  Mn128  1  0.16539006  -0.00077694  0.66781326  1
  Mn  Mn129  1  0.16595550  0.50067885  0.00051559  1
  Mn  Mn130  1  0.16536246  0.49859643  0.33386826  1
  Mn  Mn131  1  0.16543857  0.50034112  0.66571366  1
  Mn  Mn132  1  0.50074465  -0.00066416  -0.00107920  1
  Mn  Mn133  1  0.50068773  0.00053680  0.33285924  1
  Mn  Mn134  1  0.49799427  0.00012228  0.66471380  1
  Mn  Mn135  1  0.50084161  0.50058693  -0.00122924  1
  Mn  Mn136  1  0.50305692  0.49954919  0.33278429  1
  Mn  Mn137  1  0.49800126  0.50093200  0.66681239  1
  Mn  Mn138  1  0.83280803  0.00154245  0.00151474  1
  Mn  Mn139  1  0.83653313  0.00087798  0.33414778  1
  Mn  Mn140  1  0.83511086  0.00020410  0.66747821  1
  Mn  Mn141  1  0.83108826  0.49836335  0.00192423  1
  Mn  Mn142  1  0.83614819  0.49997008  0.33523429  1
  Mn  Mn143  1  0.83510047  0.50165379  0.66925728  1
  O  O144  1  0.15602132  0.12336545  0.02654889  1
  O  O145  1  0.16604336  0.12578778  0.34316006  1
  O  O146  1  0.16742649  0.12067361  0.68812104  1
  O  O147  1  0.17013329  0.62754359  0.02132380  1
  O  O148  1  0.15928936  0.62276920  0.35932338  1
  O  O149  1  0.17443333  0.62766326  0.67239180  1
  O  O150  1  0.50780379  0.12678898  0.02406055  1
  O  O151  1  0.49336994  0.12625904  0.35599297  1
  O  O152  1  0.49305393  0.12629467  0.68212121  1
  O  O153  1  0.49783202  0.62405977  0.02540383  1
  O  O154  1  0.50968990  0.62295471  0.35446941  1
  O  O155  1  0.49797905  0.62373512  0.68963398  1
  O  O156  1  0.83582840  0.12627040  0.03075622  1
  O  O157  1  0.84385964  0.12775979  0.35725162  1
  O  O158  1  0.84211210  0.12409995  0.69032668  1
  O  O159  1  0.82496165  0.62088961  0.02046491  1
  O  O160  1  0.83907427  0.62363616  0.35789581  1
  O  O161  1  0.83307284  0.62485563  0.69490091  1
  O  O162  1  0.16322221  0.37488379  0.30687232  1
  O  O163  1  0.16836983  0.37494032  0.64552979  1
  O  O164  1  0.16006335  0.37172891  0.99188607  1
  O  O165  1  0.16496430  0.87584319  0.32185119  1
  O  O166  1  0.16058915  0.87550566  0.65287066  1
  O  O167  1  0.16863952  0.87830776  0.97667014  1
  O  O168  1  0.50799731  0.37597837  0.30962585  1
  O  O169  1  0.49170710  0.37876802  0.64187248  1
  O  O170  1  0.50919879  0.37889306  0.97295417  1
  O  O171  1  0.49453696  0.87438016  0.32159686  1
  O  O172  1  0.49105514  0.87174151  0.64015873  1
  O  O173  1  0.51065688  0.87142780  0.98781529  1
  O  O174  1  0.83026228  0.37614092  0.31128602  1
  O  O175  1  0.83521518  0.37823597  0.64635803  1
  O  O176  1  0.83241097  0.37195342  0.97413291  1
  O  O177  1  0.84013946  0.87337237  0.31027029  1
  O  O178  1  0.83916603  0.87360263  0.64126687  1
  O  O179  1  0.83273858  0.87899710  0.97685369  1
  O  O180  1  0.00313449  0.37410727  0.18558494  1
  O  O181  1  0.00359371  0.37542669  0.52011374  1
  O  O182  1  -0.00883964  0.36782244  0.85864890  1
  O  O183  1  -0.00612706  0.87634760  0.19172454  1
  O  O184  1  -0.00675015  0.87393766  0.52385728  1
  O  O185  1  -0.00152049  0.88073695  0.85911819  1
  O  O186  1  0.33182639  0.37341450  0.17690570  1
  O  O187  1  0.34597548  0.37583982  0.52651418  1
  O  O188  1  0.33970262  0.37778820  0.84348846  1
  O  O189  1  0.33452128  0.87281019  0.19207790  1
  O  O190  1  0.34592236  0.87479062  0.52134737  1
  O  O191  1  0.32628046  0.87397304  0.85681445  1
  O  O192  1  0.66608607  0.37568416  0.19546033  1
  O  O193  1  0.66879470  0.37828100  0.51325882  1
  O  O194  1  0.66049077  0.37545744  0.85757235  1
  O  O195  1  0.67280025  0.87365968  0.17817697  1
  O  O196  1  0.66977350  0.87239489  0.51089632  1
  O  O197  1  0.67263856  0.87358638  0.85904370  1
  O  O198  1  -0.00976945  0.12556410  0.13969973  1
  O  O199  1  -0.00965662  0.12699885  0.47441502  1
  O  O200  1  -0.01197145  0.12215901  0.80575832  1
  O  O201  1  0.00134852  0.62390757  0.15419654  1
  O  O202  1  -0.00417524  0.62324182  0.47209035  1
  O  O203  1  -0.01295744  0.62925397  0.81806473  1
  O  O204  1  0.33612298  0.12540648  0.15625129  1
  O  O205  1  0.33986860  0.12767113  0.47410464  1
  O  O206  1  0.32662047  0.12249048  0.81197826  1
  O  O207  1  0.33633410  0.62592429  0.14173175  1
  O  O208  1  0.32105854  0.62447528  0.49082234  1
  O  O209  1  0.33910303  0.62595848  0.80854744  1
  O  O210  1  0.67486881  0.12931572  0.14178613  1
  O  O211  1  0.66668565  0.12752718  0.49084666  1
  O  O212  1  0.67131352  0.12633513  0.82339446  1
  O  O213  1  0.66952938  0.62106495  0.14378561  1
  O  O214  1  0.66467351  0.62336174  0.47485511  1
  O  O215  1  0.67282151  0.62291683  0.81211033  1
  O  O216  1  0.08526566  0.02380408  0.23891583  1
  O  O217  1  0.07618321  0.01500287  0.58930288  1
  O  O218  1  0.08069789  0.02727825  0.91038469  1
  O  O219  1  0.08441194  0.52096731  0.24974022  1
  O  O220  1  0.08900060  0.51629102  0.57353488  1
  O  O221  1  0.07644827  0.50381892  0.91964429  1
  O  O222  1  0.41698875  0.01973280  0.25216515  1
  O  O223  1  0.41914903  0.02384170  0.57682246  1
  O  O224  1  0.41601443  0.00690558  0.91345859  1
  O  O225  1  0.42443238  0.51224913  0.24490815  1
  O  O226  1  0.41723658  0.52627810  0.58465889  1
  O  O227  1  0.41789029  0.52354737  0.91514840  1
  O  O228  1  0.76057324  0.01296721  0.24330058  1
  O  O229  1  0.75724347  0.01260200  0.58164726  1
  O  O230  1  0.75213084  0.02347240  0.92281107  1
  O  O231  1  0.74896189  0.51834710  0.25747535  1
  O  O232  1  0.74938429  0.52425795  0.58907399  1
  O  O233  1  0.74051762  0.51492048  0.92713078  1
  O  O234  1  0.25525904  0.23083128  0.25558000  1
  O  O235  1  0.25815617  0.23829907  0.59024085  1
  O  O236  1  0.24253772  0.23436193  0.91525763  1
  O  O237  1  0.24743770  0.73041372  0.24366250  1
  O  O238  1  0.25719052  0.74318353  0.58769727  1
  O  O239  1  0.25633864  0.73573448  0.92165040  1
  O  O240  1  0.57854376  0.23227444  0.23868604  1
  O  O241  1  0.57509055  0.24296966  0.57572216  1
  O  O242  1  0.58759538  0.23134012  0.92224925  1
  O  O243  1  0.58752935  0.72706893  0.24939900  1
  O  O244  1  0.58511220  0.72570066  0.58560615  1
  O  O245  1  0.58179245  0.72407221  0.91502562  1
  O  O246  1  0.92321693  0.23176832  0.25236072  1
  O  O247  1  0.91915084  0.23034652  0.58400738  1
  O  O248  1  0.91381074  0.22402102  0.91876610  1
  O  O249  1  0.92288391  0.73332528  0.25802269  1
  O  O250  1  0.91558941  0.72736939  0.58018638  1
  O  O251  1  0.90535373  0.74148574  0.91049948  1
  O  O252  1  0.08283208  0.48274472  0.08728835  1
  O  O253  1  0.08215252  0.47951589  0.41537327  1
  O  O254  1  0.08072286  0.49331493  0.74311709  1
  O  O255  1  0.07007102  0.98300000  0.07019596  1
  O  O256  1  0.07379371  0.99120531  0.40614885  1
  O  O257  1  0.08117255  0.98044761  0.75345423  1
  O  O258  1  0.42642459  0.48483775  0.08531194  1
  O  O259  1  0.42403561  0.49042968  0.42577627  1
  O  O260  1  0.41694207  0.48076455  0.74820742  1
  O  O261  1  0.41489315  0.98467373  0.07938037  1
  O  O262  1  0.41670029  0.98038410  0.41523362  1
  O  O263  1  0.40526957  0.98602154  0.73762245  1
  O  O264  1  0.75342566  0.47142693  0.08899473  1
  O  O265  1  0.75465790  0.48407306  0.41927712  1
  O  O266  1  0.75537554  0.48536905  0.76362861  1
  O  O267  1  0.75122253  0.97894016  0.08133524  1
  O  O268  1  0.75690520  0.99079542  0.42090332  1
  O  O269  1  0.75845726  0.98811689  0.75805893  1
  O  O270  1  0.24024405  0.25758603  0.09512327  1
  O  O271  1  0.24677011  0.27131120  0.42768100  1
  O  O272  1  0.25042925  0.26078317  0.74780734  1
  O  O273  1  0.25256925  0.76616289  0.07851604  1
  O  O274  1  0.25335923  0.76526048  0.41335014  1
  O  O275  1  0.24500694  0.77182017  0.75377316  1
  O  O276  1  0.58910969  0.27546618  0.08180232  1
  O  O277  1  0.58655175  0.27025639  0.41207392  1
  O  O278  1  0.57373719  0.26492533  0.75422635  1
  O  O279  1  0.59120573  0.75571907  0.07644010  1
  O  O280  1  0.57568968  0.76121281  0.42423282  1
  O  O281  1  0.58389395  0.75198450  0.75063065  1
  O  O282  1  0.91433018  0.27506371  0.08532089  1
  O  O283  1  0.91254111  0.27251919  0.42312619  1
  O  O284  1  0.91423784  0.26916398  0.75314162  1
  O  O285  1  0.91359635  0.77087108  0.08426566  1
  O  O286  1  0.91384518  0.77331952  0.41989687  1
  O  O287  1  0.91848071  0.77656335  0.74695606  1
  O  O288  1  0.24362331  0.48989594  0.08867893  1
  O  O289  1  0.24299565  0.48295158  0.42569889  1
  O  O290  1  0.25464488  0.48870049  0.74426574  1
  O  O291  1  0.25192913  0.98678316  0.07935609  1
  O  O292  1  0.25861412  0.98846520  0.41215336  1
  O  O293  1  0.24575823  0.97680706  0.75188281  1
  O  O294  1  0.58910065  0.48046215  0.08078844  1
  O  O295  1  0.58591553  0.48049164  0.41514259  1
  O  O296  1  0.57697158  0.48909604  0.75628120  1
  O  O297  1  0.59180916  0.99049419  0.07712822  1
  O  O298  1  0.57794743  0.99037826  0.41917217  1
  O  O299  1  0.57879771  0.99217004  0.74774234  1
  O  O300  1  0.91679445  0.47693601  0.08212623  1
  O  O301  1  0.91430121  0.47895458  0.41990914  1
  O  O302  1  0.91629666  0.47975388  0.75034598  1
  O  O303  1  0.91164482  0.97631688  0.08722519  1
  O  O304  1  0.91488224  0.97500271  0.41865216  1
  O  O305  1  0.91883913  0.97443253  0.74828769  1
  O  O306  1  0.07567873  0.26853717  0.07858811  1
  O  O307  1  0.08108426  0.26564958  0.41471393  1
  O  O308  1  0.07886630  0.25233556  0.74868735  1
  O  O309  1  0.07700491  0.76688425  0.07729946  1
  O  O310  1  0.07188190  0.76280526  0.40727693  1
  O  O311  1  0.07844722  0.76935193  0.74773745  1
  O  O312  1  0.42654472  0.26221753  0.08936409  1
  O  O313  1  0.42514261  0.26820694  0.42457096  1
  O  O314  1  0.41202930  0.26871195  0.74210951  1
  O  O315  1  0.40927690  0.76528831  0.07106556  1
  O  O316  1  0.41377925  0.76654699  0.41363304  1
  O  O317  1  0.40523746  0.76407743  0.73747268  1
  O  O318  1  0.75153275  0.27760453  0.08510547  1
  O  O319  1  0.75157188  0.26857639  0.41576086  1
  O  O320  1  0.75451392  0.26296427  0.76105763  1
  O  O321  1  0.75213787  0.77126269  0.08424377  1
  O  O322  1  0.75647260  0.75909360  0.42345674  1
  O  O323  1  0.75691232  0.76276136  0.76089250  1
  O  O324  1  0.25229612  0.01745412  0.25004521  1
  O  O325  1  0.25806447  0.00954654  0.58960005  1
  O  O326  1  0.24108825  0.01608273  0.91065595  1
  O  O327  1  0.24394097  0.51462200  0.24737592  1
  O  O328  1  0.25224978  0.50959661  0.58475773  1
  O  O329  1  0.25508127  0.51661001  0.92079215  1
  O  O330  1  0.58017199  0.01835602  0.24312058  1
  O  O331  1  0.57664808  0.00873780  0.57762650  1
  O  O332  1  0.58548541  0.01573618  0.91970470  1
  O  O333  1  0.58700331  0.52219462  0.24719829  1
  O  O334  1  0.58224183  0.52231025  0.58451432  1
  O  O335  1  0.58170821  0.52821323  0.91718053  1
  O  O336  1  0.92424411  0.02185769  0.25502488  1
  O  O337  1  0.91623515  0.02311942  0.58327602  1
  O  O338  1  0.91501797  0.02270585  0.91844755  1
  O  O339  1  0.91841213  0.51463553  0.25289884  1
  O  O340  1  0.91520266  0.51803415  0.57902138  1
  O  O341  1  0.90268342  0.51079803  0.91092915  1
  O  O342  1  0.08677078  0.22749642  0.23973771  1
  O  O343  1  0.08121835  0.23494538  0.58392718  1
  O  O344  1  0.07882682  0.22361865  0.91430658  1
  O  O345  1  0.08670219  0.72828746  0.24697276  1
  O  O346  1  0.08570848  0.72991531  0.57426447  1
  O  O347  1  0.08190111  0.74863584  0.91379274  1
  O  O348  1  0.41745179  0.23140377  0.25306055  1
  O  O349  1  0.41678588  0.22664602  0.58203023  1
  O  O350  1  0.42253178  0.24215509  0.90892154  1
  O  O351  1  0.42434868  0.73001314  0.24122422  1
  O  O352  1  0.42228231  0.72453860  0.57461462  1
  O  O353  1  0.41881103  0.72892245  0.91125064  1
  O  O354  1  0.75920140  0.23808048  0.24403435  1
  O  O355  1  0.75881319  0.23870842  0.57946377  1
  O  O356  1  0.75039175  0.22940496  0.92512012  1
  O  O357  1  0.75214478  0.72947660  0.25430810  1
  O  O358  1  0.74911664  0.72632688  0.58948928  1
  O  O359  1  0.74375357  0.72854660  0.92292603  1
