# generated using pymatgen
data_Ba17Sr5La8Pr42Mn72O216
_symmetry_space_group_name_H-M   'P 1'
_cell_length_a   16.67183914
_cell_length_b   15.69902540
_cell_length_c   16.82268530
_cell_angle_alpha   89.99793170
_cell_angle_beta   90.02113484
_cell_angle_gamma   90.01780102
_symmetry_Int_Tables_number   1
_chemical_formula_structural   Ba17Sr5La8Pr42Mn72O216
_chemical_formula_sum   'Ba17 Sr5 La8 Pr42 Mn72 O216'
_cell_volume   4403.02826407
_cell_formula_units_Z   1
loop_
 _symmetry_equiv_pos_site_id
 _symmetry_equiv_pos_as_xyz
  1  'x, y, z'
loop_
 _atom_site_type_symbol
 _atom_site_label
 _atom_site_symmetry_multiplicity
 _atom_site_fract_x
 _atom_site_fract_y
 _atom_site_fract_z
 _atom_site_occupancy
  Ba  Ba0  1  0.66724709  0.37496685  0.66892738  1
  Ba  Ba1  1  -0.00075017  0.12504674  0.99972968  1
  Ba  Ba2  1  0.00143585  0.62552531  0.66678800  1
  Ba  Ba3  1  0.33444673  0.87646787  0.66798280  1
  Ba  Ba4  1  0.49879025  0.12433575  0.49885575  1
  Ba  Ba5  1  0.49963609  0.87468582  0.83319610  1
  Ba  Ba6  1  0.49867978  0.12609053  0.16905764  1
  Ba  Ba7  1  0.33328889  0.12593456  0.33208841  1
  Ba  Ba8  1  0.49978683  0.37523071  0.83078120  1
  Ba  Ba9  1  0.33407650  0.37357123  0.66821409  1
  Ba  Ba10  1  0.66543118  0.62521030  0.66298842  1
  Ba  Ba11  1  0.16768490  0.87240672  0.16622128  1
  Ba  Ba12  1  0.66738134  0.87474975  0.00080024  1
  Ba  Ba13  1  0.66531611  0.62715559  0.33408447  1
  Ba  Ba14  1  0.00095166  0.37529260  0.66521616  1
  Ba  Ba15  1  -0.00008113  0.87432090  0.66488402  1
  Ba  Ba16  1  0.00119264  0.37531293  0.33587907  1
  Sr  Sr17  1  0.16434065  0.62415020  0.83127614  1
  Sr  Sr18  1  0.33313658  0.12490422  0.66348408  1
  Sr  Sr19  1  -0.00221356  0.62410816  0.33341896  1
  Sr  Sr20  1  0.50154922  0.62688483  0.50289940  1
  Sr  Sr21  1  0.66812979  0.87595093  0.33189771  1
  La  La22  1  0.83620789  0.87092506  0.49759183  1
  La  La23  1  0.67059589  0.37532702  0.00038894  1
  La  La24  1  0.83473397  0.62336601  0.50175238  1
  La  La25  1  0.16706662  0.12477569  0.83144164  1
  La  La26  1  0.33911228  0.87627583  0.33604433  1
  La  La27  1  0.16282627  0.12471196  0.17106486  1
  La  La28  1  0.50423617  0.37515664  0.16445405  1
  La  La29  1  -0.00245919  0.12421423  0.66748711  1
  Pr  Pr30  1  0.33660906  0.62552925  0.66400273  1
  Pr  Pr31  1  -0.00170915  0.62603077  0.99551314  1
  Pr  Pr32  1  0.49126957  0.12641843  0.83213501  1
  Pr  Pr33  1  0.66090194  0.12323395  0.99758443  1
  Pr  Pr34  1  0.50211468  0.87560009  0.16321451  1
  Pr  Pr35  1  0.83339846  0.62356444  0.83098609  1
  Pr  Pr36  1  0.82985193  0.12683037  0.83657074  1
  Pr  Pr37  1  0.82844992  0.12359905  0.16863212  1
  Pr  Pr38  1  0.66251980  0.62763286  0.99472072  1
  Pr  Pr39  1  0.33564404  0.87265372  0.00410216  1
  Pr  Pr40  1  0.00533618  0.87471407  0.33753936  1
  Pr  Pr41  1  0.16625544  0.62285606  0.50500905  1
  Pr  Pr42  1  0.33069931  0.62459595  0.33259384  1
  Pr  Pr43  1  0.33025009  0.12357930  0.99939340  1
  Pr  Pr44  1  0.82967267  0.62653258  0.16876829  1
  Pr  Pr45  1  0.50428129  0.37642056  0.50205139  1
  Pr  Pr46  1  0.83516619  0.87078692  0.16457368  1
  Pr  Pr47  1  0.32967737  0.62565792  0.99720510  1
  Pr  Pr48  1  0.66331427  0.12429784  0.32895588  1
  Pr  Pr49  1  0.83354661  0.87712709  0.82958873  1
  Pr  Pr50  1  0.50681351  0.87447594  0.50034528  1
  Pr  Pr51  1  0.33494902  0.37801466  0.00120433  1
  Pr  Pr52  1  0.00136964  0.87337441  0.00180408  1
  Pr  Pr53  1  0.17260545  0.37716461  0.49893651  1
  Pr  Pr54  1  0.66706248  0.37288494  0.33727748  1
  Pr  Pr55  1  0.66058463  0.12496740  0.66683730  1
  Pr  Pr56  1  -0.00448253  0.12244648  0.32700020  1
  Pr  Pr57  1  0.83831655  0.37912946  0.16568321  1
  Pr  Pr58  1  0.49375036  0.62253955  0.82933689  1
  Pr  Pr59  1  0.16596603  0.37298336  0.83014395  1
  Pr  Pr60  1  0.66467199  0.87607623  0.67002884  1
  Pr  Pr61  1  0.83183723  0.12684199  0.50041826  1
  Pr  Pr62  1  0.49663469  0.62768002  0.17094769  1
  Pr  Pr63  1  0.15965985  0.62454793  0.16871862  1
  Pr  Pr64  1  0.17223199  0.87168702  0.49689645  1
  Pr  Pr65  1  0.00684172  0.37579540  0.00403949  1
  Pr  Pr66  1  0.16409866  0.12613228  0.50236506  1
  Pr  Pr67  1  0.83732216  0.37374373  0.82957182  1
  Pr  Pr68  1  0.33775091  0.37429359  0.33857476  1
  Pr  Pr69  1  0.83311351  0.37978208  0.49811700  1
  Pr  Pr70  1  0.17073120  0.37599142  0.16770075  1
  Pr  Pr71  1  0.16404536  0.87541763  0.83147914  1
  Mn  Mn72  1  -0.00142999  -0.00211549  0.16676989  1
  Mn  Mn73  1  0.00056456  0.00169819  0.49766288  1
  Mn  Mn74  1  -0.00162828  -0.00017542  0.83368101  1
  Mn  Mn75  1  0.00020825  0.49988542  0.16575345  1
  Mn  Mn76  1  0.00133253  0.49945159  0.49910147  1
  Mn  Mn77  1  -0.00050421  0.50022649  0.83583508  1
  Mn  Mn78  1  0.33220431  -0.00098538  0.16673969  1
  Mn  Mn79  1  0.33269206  -0.00053784  0.50050286  1
  Mn  Mn80  1  0.33044936  0.00106358  0.83494297  1
  Mn  Mn81  1  0.33271246  0.50081420  0.16807751  1
  Mn  Mn82  1  0.33605562  0.50101612  0.49913157  1
  Mn  Mn83  1  0.32994966  0.50181454  0.83391005  1
  Mn  Mn84  1  0.66783564  -0.00085917  0.16709353  1
  Mn  Mn85  1  0.66964419  0.00016121  0.49981300  1
  Mn  Mn86  1  0.66671696  0.00086465  0.83297486  1
  Mn  Mn87  1  0.66766293  0.50001783  0.16568629  1
  Mn  Mn88  1  0.66709423  0.49942039  0.49825729  1
  Mn  Mn89  1  0.66727388  0.50330465  0.83489137  1
  Mn  Mn90  1  -0.00040921  0.25095047  0.16728815  1
  Mn  Mn91  1  -0.00057377  0.24855487  0.49948679  1
  Mn  Mn92  1  -0.00075014  0.24969877  0.83467610  1
  Mn  Mn93  1  -0.00102969  0.74810953  0.16672350  1
  Mn  Mn94  1  0.00199345  0.75005352  0.49758534  1
  Mn  Mn95  1  -0.00069859  0.74892333  0.83474686  1
  Mn  Mn96  1  0.33148696  0.25424271  0.16642415  1
  Mn  Mn97  1  0.33301817  0.25025710  0.50040409  1
  Mn  Mn98  1  0.33087147  0.24812359  0.83453005  1
  Mn  Mn99  1  0.33305831  0.74686264  0.16728283  1
  Mn  Mn100  1  0.33570525  0.74962013  0.49904663  1
  Mn  Mn101  1  0.32957215  0.74859901  0.83412082  1
  Mn  Mn102  1  0.66967857  0.25242956  0.16725196  1
  Mn  Mn103  1  0.66758034  0.24889383  0.49989786  1
  Mn  Mn104  1  0.66669532  0.24818616  0.83492770  1
  Mn  Mn105  1  0.66641336  0.74925288  0.16533149  1
  Mn  Mn106  1  0.66883920  0.75245891  0.49880756  1
  Mn  Mn107  1  0.66734951  0.74953462  0.83201888  1
  Mn  Mn108  1  0.16855470  0.25152229  0.00110883  1
  Mn  Mn109  1  0.16664263  0.25054302  0.33446153  1
  Mn  Mn110  1  0.16517043  0.24887923  0.66643136  1
  Mn  Mn111  1  0.16635334  0.74800769  -0.00121783  1
  Mn  Mn112  1  0.16754668  0.74747889  0.33293911  1
  Mn  Mn113  1  0.16823085  0.75009016  0.66678492  1
  Mn  Mn114  1  0.49901676  0.25100113  -0.00020727  1
  Mn  Mn115  1  0.50080277  0.25304620  0.33288840  1
  Mn  Mn116  1  0.49942132  0.24842534  0.66671406  1
  Mn  Mn117  1  0.49830767  0.74739239  0.00105463  1
  Mn  Mn118  1  0.50026026  0.74988069  0.33392683  1
  Mn  Mn119  1  0.50045192  0.75064038  0.66572716  1
  Mn  Mn120  1  0.83221183  0.25144668  0.00104653  1
  Mn  Mn121  1  0.83205124  0.24881240  0.33350745  1
  Mn  Mn122  1  0.83331012  0.24745061  0.66737341  1
  Mn  Mn123  1  0.83447257  0.74887281  -0.00069467  1
  Mn  Mn124  1  0.83495398  0.75040459  0.33158227  1
  Mn  Mn125  1  0.83267364  0.75155203  0.66523215  1
  Mn  Mn126  1  0.16725518  -0.00028405  -0.00007112  1
  Mn  Mn127  1  0.16695369  -0.00097567  0.33441713  1
  Mn  Mn128  1  0.16530274  -0.00008704  0.66585020  1
  Mn  Mn129  1  0.16663465  0.50016022  0.00053612  1
  Mn  Mn130  1  0.16785857  0.50216836  0.33335013  1
  Mn  Mn131  1  0.16814077  0.50017630  0.66787660  1
  Mn  Mn132  1  0.49805337  0.00120870  0.00033600  1
  Mn  Mn133  1  0.50175806  -0.00273261  0.33289379  1
  Mn  Mn134  1  0.49944838  0.00077290  0.66636819  1
  Mn  Mn135  1  0.49987596  0.50000869  0.00115595  1
  Mn  Mn136  1  0.50000687  0.50157734  0.33330142  1
  Mn  Mn137  1  0.49980222  0.50095997  0.66571691  1
  Mn  Mn138  1  0.83321640  -0.00035724  0.00069247  1
  Mn  Mn139  1  0.83385702  -0.00098608  0.33276321  1
  Mn  Mn140  1  0.83154425  0.00215071  0.66562276  1
  Mn  Mn141  1  0.83352361  0.49992254  -0.00048855  1
  Mn  Mn142  1  0.83278444  0.50107938  0.33155254  1
  Mn  Mn143  1  0.83402942  0.49906342  0.66651387  1
  O  O144  1  0.17416875  0.13078868  0.02874995  1
  O  O145  1  0.16028675  0.12171896  0.35613171  1
  O  O146  1  0.16510475  0.12441140  0.68736456  1
  O  O147  1  0.16419317  0.62285411  0.02604724  1
  O  O148  1  0.17237243  0.62504169  0.36032644  1
  O  O149  1  0.17452436  0.62555688  0.68131685  1
  O  O150  1  0.49789486  0.12759648  0.01476453  1
  O  O151  1  0.50867641  0.12736777  0.34231851  1
  O  O152  1  0.50537184  0.12308305  0.68381917  1
  O  O153  1  0.49839650  0.62137064  0.02774139  1
  O  O154  1  0.49329005  0.62497143  0.35409529  1
  O  O155  1  0.49564819  0.62628258  0.68153675  1
  O  O156  1  0.82826600  0.12992276  0.02639823  1
  O  O157  1  0.83468266  0.12387799  0.35657672  1
  O  O158  1  0.83408179  0.12423676  0.69290616  1
  O  O159  1  0.84161831  0.62271958  0.02733689  1
  O  O160  1  0.83514756  0.62843776  0.35643408  1
  O  O161  1  0.83325688  0.62745830  0.68462330  1
  O  O162  1  0.17366190  0.38005757  0.31061955  1
  O  O163  1  0.16698879  0.37277407  0.64469451  1
  O  O164  1  0.16705035  0.37657191  0.97368159  1
  O  O165  1  0.16597660  0.87277582  0.32103324  1
  O  O166  1  0.16640817  0.87638407  0.64275152  1
  O  O167  1  0.16874162  0.87031668  0.97657538  1
  O  O168  1  0.50189393  0.37884688  0.30929832  1
  O  O169  1  0.49978154  0.37477482  0.65018494  1
  O  O170  1  0.49833650  0.37650653  0.98536267  1
  O  O171  1  0.49654276  0.87039249  0.30773471  1
  O  O172  1  0.50571814  0.87708292  0.64845880  1
  O  O173  1  0.49202721  0.87363293  0.98876039  1
  O  O174  1  0.82590602  0.37163089  0.30892714  1
  O  O175  1  0.83304262  0.36843130  0.64353223  1
  O  O176  1  0.82625589  0.37671806  0.97171296  1
  O  O177  1  0.84116673  0.87550118  0.30740558  1
  O  O178  1  0.82601839  0.87993039  0.64211380  1
  O  O179  1  0.83920032  0.87011635  0.97382143  1
  O  O180  1  -0.00324061  0.37483750  0.18073769  1
  O  O181  1  -0.00413965  0.37145199  0.50993605  1
  O  O182  1  -0.00395031  0.37573280  0.85959059  1
  O  O183  1  -0.00809793  0.87041622  0.19310055  1
  O  O184  1  -0.00305336  0.87811484  0.50900802  1
  O  O185  1  -0.00308381  0.87393498  0.85784926  1
  O  O186  1  0.32254117  0.38038159  0.19514373  1
  O  O187  1  0.32575485  0.37699030  0.51157896  1
  O  O188  1  0.32580489  0.37529363  0.85749536  1
  O  O189  1  0.33559287  0.86680326  0.19009187  1
  O  O190  1  0.32464723  0.87302900  0.51156783  1
  O  O191  1  0.32573374  0.87446513  0.86080506  1
  O  O192  1  0.66969627  0.37804015  0.19264043  1
  O  O193  1  0.67154156  0.37235560  0.51119628  1
  O  O194  1  0.67097703  0.37630875  0.85751642  1
  O  O195  1  0.66598804  0.87541227  0.18060821  1
  O  O196  1  0.67278482  0.87927438  0.52487625  1
  O  O197  1  0.67230654  0.87546085  0.84632522  1
  O  O198  1  0.00296815  0.12769192  0.15550417  1
  O  O199  1  0.00066661  0.12505603  0.47021980  1
  O  O200  1  -0.00083725  0.12421222  0.81448304  1
  O  O201  1  0.00129243  0.62329777  0.13947435  1
  O  O202  1  0.00295221  0.62615373  0.48343415  1
  O  O203  1  -0.00410042  0.62458295  0.82289691  1
  O  O204  1  0.32735069  0.13170937  0.14356418  1
  O  O205  1  0.32514262  0.12519185  0.48799398  1
  O  O206  1  0.32645853  0.12417781  0.81637954  1
  O  O207  1  0.34282048  0.62225904  0.13976343  1
  O  O208  1  0.33520788  0.62523995  0.47450772  1
  O  O209  1  0.33077697  0.62560527  0.81117389  1
  O  O210  1  0.67481951  0.12601390  0.14289544  1
  O  O211  1  0.67331852  0.12390214  0.47098459  1
  O  O212  1  0.67822535  0.12305494  0.81149550  1
  O  O213  1  0.67017645  0.62156317  0.14034401  1
  O  O214  1  0.67110778  0.62514449  0.48897718  1
  O  O215  1  0.67725043  0.62682806  0.81988157  1
  O  O216  1  0.07541236  0.01271496  0.25889655  1
  O  O217  1  0.07739995  0.02515204  0.58379512  1
  O  O218  1  0.08755074  0.01069709  0.91404705  1
  O  O219  1  0.08582561  0.51929773  0.25007916  1
  O  O220  1  0.09015157  0.51048454  0.57930041  1
  O  O221  1  0.07446416  0.51384847  0.92793181  1
  O  O222  1  0.41259453  0.00302029  0.25063211  1
  O  O223  1  0.41421095  0.00684284  0.58425679  1
  O  O224  1  0.41091489  0.02098029  0.92008646  1
  O  O225  1  0.41070618  0.52020894  0.25464875  1
  O  O226  1  0.41350426  0.51760717  0.58394114  1
  O  O227  1  0.41220122  0.52219721  0.91790491  1
  O  O228  1  0.74834068  0.02139209  0.25479250  1
  O  O229  1  0.74884168  0.02854652  0.58551769  1
  O  O230  1  0.74548184  0.02158941  0.92173788  1
  O  O231  1  0.75253312  0.51824906  0.24432993  1
  O  O232  1  0.75562718  0.50877802  0.57539133  1
  O  O233  1  0.74669741  0.52343338  0.92614688  1
  O  O234  1  0.23875318  0.23688287  0.23909525  1
  O  O235  1  0.24016387  0.23665041  0.57564428  1
  O  O236  1  0.25031497  0.22884535  0.92109989  1
  O  O237  1  0.24795489  0.72205886  0.24509564  1
  O  O238  1  0.25397871  0.72816273  0.57954283  1
  O  O239  1  0.24908720  0.72705548  0.91901566  1
  O  O240  1  0.59141174  0.24234761  0.25532429  1
  O  O241  1  0.58772684  0.23573759  0.58474587  1
  O  O242  1  0.58280773  0.22700545  0.91398899  1
  O  O243  1  0.57425696  0.73516451  0.24341896  1
  O  O244  1  0.58146618  0.74884380  0.57745443  1
  O  O245  1  0.57959143  0.72702359  0.91553164  1
  O  O246  1  0.91126725  0.22939480  0.25014788  1
  O  O247  1  0.91557295  0.22323238  0.58319041  1
  O  O248  1  0.90535972  0.23615986  0.91105545  1
  O  O249  1  0.91346760  0.72652632  0.24376164  1
  O  O250  1  0.91452599  0.74014109  0.57570440  1
  O  O251  1  0.91621101  0.72722364  0.91951738  1
  O  O252  1  0.08885616  0.47754327  0.08720150  1
  O  O253  1  0.09374243  0.48688962  0.42227622  1
  O  O254  1  0.08637530  0.48510640  0.76155887  1
  O  O255  1  0.08241167  0.98429391  0.08071612  1
  O  O256  1  0.09137374  0.97903671  0.42267298  1
  O  O257  1  0.08513150  0.98649068  0.75350066  1
  O  O258  1  0.41674023  0.47519013  0.09075327  1
  O  O259  1  0.42110683  0.47515083  0.42012379  1
  O  O260  1  0.41494885  0.49953346  0.75163402  1
  O  O261  1  0.41655091  0.97964204  0.08575269  1
  O  O262  1  0.42021713  0.97906058  0.41892435  1
  O  O263  1  0.41855814  0.99863241  0.75614958  1
  O  O264  1  0.75590836  0.47757942  0.08563540  1
  O  O265  1  0.74995500  0.47986419  0.41373281  1
  O  O266  1  0.75700503  0.48701767  0.76115042  1
  O  O267  1  0.76052014  0.98455018  0.09346047  1
  O  O268  1  0.76029333  0.98107912  0.42210320  1
  O  O269  1  0.75175793  0.98071289  0.75142397  1
  O  O270  1  0.25276425  0.28111773  0.07998687  1
  O  O271  1  0.25443089  0.27025015  0.40983624  1
  O  O272  1  0.24389794  0.26229476  0.75837915  1
  O  O273  1  0.25804341  0.75923576  0.07635903  1
  O  O274  1  0.25515577  0.76527600  0.41286795  1
  O  O275  1  0.24474801  0.76779247  0.75694446  1
  O  O276  1  0.58870330  0.26987284  0.08292212  1
  O  O277  1  0.58217575  0.27266821  0.41733681  1
  O  O278  1  0.58725375  0.24996524  0.75163272  1
  O  O279  1  0.57927608  0.75921757  0.08404438  1
  O  O280  1  0.58549031  0.77169564  0.41698434  1
  O  O281  1  0.58605780  0.76192687  0.74427855  1
  O  O282  1  0.91709658  0.27424471  0.07747116  1
  O  O283  1  0.90810189  0.26233481  0.42183605  1
  O  O284  1  0.91539081  0.26240099  0.75157582  1
  O  O285  1  0.91844414  0.77205122  0.08139157  1
  O  O286  1  0.92082960  0.76969841  0.41045170  1
  O  O287  1  0.90831882  0.76435804  0.75836323  1
  O  O288  1  0.25239827  0.47990320  0.08258182  1
  O  O289  1  0.25661491  0.48417471  0.41023594  1
  O  O290  1  0.24509251  0.48329609  0.75726963  1
  O  O291  1  0.25875219  0.98355934  0.07413518  1
  O  O292  1  0.25373222  0.98058272  0.41123543  1
  O  O293  1  0.24402270  0.98490527  0.75895032  1
  O  O294  1  0.59096057  0.47779329  0.08029685  1
  O  O295  1  0.58615136  0.47851282  0.41219618  1
  O  O296  1  0.58211126  0.49967205  0.75299503  1
  O  O297  1  0.58257992  0.99013600  0.08513135  1
  O  O298  1  0.58590463  0.97871416  0.41979217  1
  O  O299  1  0.59169026  0.99068573  0.74413871  1
  O  O300  1  0.91978715  0.47596209  0.07449394  1
  O  O301  1  0.91126156  0.48868329  0.41906121  1
  O  O302  1  0.91396983  0.48612648  0.75640920  1
  O  O303  1  0.91943041  0.97601674  0.08009274  1
  O  O304  1  0.92594910  0.98441949  0.40537154  1
  O  O305  1  0.91216692  0.98569551  0.75061150  1
  O  O306  1  0.08972542  0.27303931  0.08526957  1
  O  O307  1  0.09546860  0.26515161  0.42815885  1
  O  O308  1  0.08630985  0.26236532  0.75518030  1
  O  O309  1  0.07871073  0.76349549  0.07882340  1
  O  O310  1  0.08497224  0.76877300  0.41608542  1
  O  O311  1  0.08413258  0.76479172  0.75721465  1
  O  O312  1  0.41397535  0.27559699  0.08609122  1
  O  O313  1  0.41958256  0.27159270  0.41742539  1
  O  O314  1  0.41713035  0.24942963  0.75425502  1
  O  O315  1  0.41852530  0.76845851  0.08953147  1
  O  O316  1  0.42104292  0.77436155  0.41978547  1
  O  O317  1  0.41589316  0.75240718  0.75288414  1
  O  O318  1  0.75546388  0.27707416  0.08825734  1
  O  O319  1  0.74890104  0.26820147  0.41412362  1
  O  O320  1  0.75739835  0.26361870  0.76125727  1
  O  O321  1  0.75819421  0.76067218  0.08575238  1
  O  O322  1  0.75578340  0.77066292  0.41681750  1
  O  O323  1  0.75043989  0.77258517  0.74720658  1
  O  O324  1  0.24017139  0.01601270  0.24242634  1
  O  O325  1  0.24086345  0.01414760  0.57656854  1
  O  O326  1  0.24787908  0.02357848  0.91786189  1
  O  O327  1  0.24729340  0.52859201  0.24509591  1
  O  O328  1  0.25243102  0.52067042  0.57892847  1
  O  O329  1  0.24998872  0.51986278  0.92243468  1
  O  O330  1  0.58960842  0.01107063  0.25291161  1
  O  O331  1  0.58936330  0.01282678  0.58525978  1
  O  O332  1  0.58021631  0.02244536  0.91245987  1
  O  O333  1  0.57467984  0.51598888  0.23860252  1
  O  O334  1  0.57783039  0.50345592  0.57426481  1
  O  O335  1  0.58295162  0.52527338  0.91500442  1
  O  O336  1  0.90956640  0.02211283  0.24482052  1
  O  O337  1  0.91234994  0.02210809  0.57719887  1
  O  O338  1  0.90700897  0.01495669  0.91064225  1
  O  O339  1  0.91155114  0.51542193  0.24176593  1
  O  O340  1  0.91414225  0.51087002  0.57806093  1
  O  O341  1  0.91048380  0.52074216  0.91509941  1
  O  O342  1  0.08002606  0.23192726  0.25832221  1
  O  O343  1  0.07778568  0.22504403  0.58604090  1
  O  O344  1  0.08779236  0.23811810  0.91609175  1
  O  O345  1  0.08280962  0.72875575  0.24766875  1
  O  O346  1  0.09206232  0.73926331  0.57449470  1
  O  O347  1  0.07931423  0.73380775  0.92089169  1
  O  O348  1  0.41410997  0.25122980  0.25054865  1
  O  O349  1  0.41385707  0.24276830  0.58240280  1
  O  O350  1  0.41148944  0.22994837  0.91779772  1
  O  O351  1  0.41048816  0.72642264  0.25362579  1
  O  O352  1  0.41484271  0.73481605  0.58406068  1
  O  O353  1  0.41288129  0.72626910  0.92135486  1
  O  O354  1  0.75017269  0.22486742  0.25177801  1
  O  O355  1  0.75049442  0.22455128  0.58424700  1
  O  O356  1  0.74285925  0.22881220  0.92605724  1
  O  O357  1  0.75455155  0.73834682  0.24539513  1
  O  O358  1  0.75687091  0.73910446  0.57596551  1
  O  O359  1  0.75286527  0.72751741  0.91944416  1
