# generated using pymatgen
data_Ba17Sr5La8Pr42Mn72O216
_symmetry_space_group_name_H-M   'P 1'
_cell_length_a   16.67383766
_cell_length_b   15.70572461
_cell_length_c   16.82640265
_cell_angle_alpha   89.99406083
_cell_angle_beta   89.98696160
_cell_angle_gamma   89.99116028
_symmetry_Int_Tables_number   1
_chemical_formula_structural   Ba17Sr5La8Pr42Mn72O216
_chemical_formula_sum   'Ba17 Sr5 La8 Pr42 Mn72 O216'
_cell_volume   4406.40899635
_cell_formula_units_Z   1
loop_
 _symmetry_equiv_pos_site_id
 _symmetry_equiv_pos_as_xyz
  1  'x, y, z'
loop_
 _atom_site_type_symbol
 _atom_site_label
 _atom_site_symmetry_multiplicity
 _atom_site_fract_x
 _atom_site_fract_y
 _atom_site_fract_z
 _atom_site_occupancy
  Ba  Ba0  1  0.16316012  0.87499184  0.49953606  1
  Ba  Ba1  1  0.49699601  0.87444542  0.16694404  1
  Ba  Ba2  1  0.50334988  0.62521277  0.83638286  1
  Ba  Ba3  1  0.33088377  0.87441083  -0.00052569  1
  Ba  Ba4  1  0.66893971  0.37510591  0.33434371  1
  Ba  Ba5  1  0.66865458  0.12455915  0.99734815  1
  Ba  Ba6  1  0.16610659  0.12614006  0.16698177  1
  Ba  Ba7  1  -0.00296856  0.87682817  0.66593160  1
  Ba  Ba8  1  0.49928890  0.87493614  0.83318332  1
  Ba  Ba9  1  0.16517712  0.37478036  0.83137805  1
  Ba  Ba10  1  0.33352705  0.37488572  0.66969906  1
  Ba  Ba11  1  0.83347139  0.87254130  0.16667656  1
  Ba  Ba12  1  0.50116123  0.62684735  0.16990652  1
  Ba  Ba13  1  0.16375363  0.87510103  0.83111969  1
  Ba  Ba14  1  0.83544394  0.37748947  0.16465545  1
  Ba  Ba15  1  0.66845206  0.37387826  0.00215458  1
  Ba  Ba16  1  0.33245324  0.37428449  0.33681654  1
  Sr  Sr17  1  0.83786291  0.62274513  0.16634256  1
  Sr  Sr18  1  -0.00407837  0.87737743  0.33486117  1
  Sr  Sr19  1  0.66543323  0.12342957  0.66395120  1
  Sr  Sr20  1  0.50016881  0.12854845  0.50381744  1
  Sr  Sr21  1  0.00106114  0.12665047  0.66428215  1
  La  La22  1  0.50466596  0.37530787  0.16786451  1
  La  La23  1  0.00697479  0.62469671  0.66382532  1
  La  La24  1  0.49989899  0.12391449  0.16773662  1
  La  La25  1  0.33606330  0.62589084  0.67021430  1
  La  La26  1  0.66250918  0.87708007  0.66487475  1
  La  La27  1  0.67416306  0.62502044  0.32889383  1
  La  La28  1  0.49884239  0.12563116  0.83466265  1
  La  La29  1  0.50297185  0.37452142  0.83529117  1
  Pr  Pr30  1  -0.00012126  0.12035688  0.33035856  1
  Pr  Pr31  1  0.33407590  0.12378693  0.33236681  1
  Pr  Pr32  1  0.66034819  0.87203619  0.33502262  1
  Pr  Pr33  1  0.82793502  0.37447159  0.83322608  1
  Pr  Pr34  1  0.49372293  0.88115408  0.49937346  1
  Pr  Pr35  1  -0.00033272  0.37368196  0.33135085  1
  Pr  Pr36  1  0.50382618  0.61692252  0.50533379  1
  Pr  Pr37  1  0.32966379  0.87588744  0.33413384  1
  Pr  Pr38  1  0.33073818  0.12441571  0.66805204  1
  Pr  Pr39  1  -0.00610225  0.37428910  0.66907660  1
  Pr  Pr40  1  0.17023779  0.37453251  0.16017180  1
  Pr  Pr41  1  0.16287385  0.87578290  0.16231352  1
  Pr  Pr42  1  0.17123777  0.62538005  0.16811503  1
  Pr  Pr43  1  0.00224706  0.37508927  0.00319346  1
  Pr  Pr44  1  0.33633043  0.62584337  0.33249755  1
  Pr  Pr45  1  0.83195153  0.12672680  0.16801264  1
  Pr  Pr46  1  0.16367373  0.37523077  0.49894115  1
  Pr  Pr47  1  0.83366751  0.37260957  0.49461760  1
  Pr  Pr48  1  0.82946555  0.87727919  0.49173982  1
  Pr  Pr49  1  0.82793722  0.87585949  0.82868213  1
  Pr  Pr50  1  0.33747764  0.37681888  0.00615661  1
  Pr  Pr51  1  0.83836109  0.62595716  0.83340756  1
  Pr  Pr52  1  0.83524599  0.12382944  0.83249560  1
  Pr  Pr53  1  0.49837029  0.36851787  0.49860585  1
  Pr  Pr54  1  0.33931833  0.62824659  0.99926483  1
  Pr  Pr55  1  0.16737169  0.12581006  0.50064009  1
  Pr  Pr56  1  0.33017454  0.87739749  0.67556733  1
  Pr  Pr57  1  0.66327608  0.37455003  0.66727163  1
  Pr  Pr58  1  0.00512448  0.62924884  0.32815108  1
  Pr  Pr59  1  0.17474588  0.62464908  0.50128812  1
  Pr  Pr60  1  -0.00128635  0.12618486  0.99822790  1
  Pr  Pr61  1  0.65981710  0.87398480  0.00120608  1
  Pr  Pr62  1  -0.00115315  0.87520413  0.00071841  1
  Pr  Pr63  1  0.17183198  0.62591157  0.83433377  1
  Pr  Pr64  1  0.16018339  0.12347100  0.83476519  1
  Pr  Pr65  1  0.84042182  0.62299954  0.49928994  1
  Pr  Pr66  1  0.33319413  0.12154651  0.99925020  1
  Pr  Pr67  1  0.67729961  0.62731093  1.00059280  1
  Pr  Pr68  1  0.66652250  0.12258865  0.32973527  1
  Pr  Pr69  1  0.83381443  0.12610335  0.50227535  1
  Pr  Pr70  1  0.00234524  0.62411340  0.99971279  1
  Pr  Pr71  1  0.67019379  0.62798032  0.66471875  1
  Mn  Mn72  1  -0.00105043  -0.00099059  0.16571208  1
  Mn  Mn73  1  -0.00208530  0.00158523  0.49873678  1
  Mn  Mn74  1  -0.00276519  0.00151137  0.83246190  1
  Mn  Mn75  1  0.00392187  0.50130154  0.16651601  1
  Mn  Mn76  1  0.00116584  0.49962170  0.49803513  1
  Mn  Mn77  1  -0.00232394  0.49926568  0.83174773  1
  Mn  Mn78  1  0.33169347  0.00154000  0.16778220  1
  Mn  Mn79  1  0.33175655  0.00139121  0.50142612  1
  Mn  Mn80  1  0.33291826  0.00301031  0.83194533  1
  Mn  Mn81  1  0.33385807  0.49950143  0.16959069  1
  Mn  Mn82  1  0.33424520  0.49993124  0.50192028  1
  Mn  Mn83  1  0.33384699  0.49969390  0.83723148  1
  Mn  Mn84  1  0.66754865  -0.00092582  0.16584345  1
  Mn  Mn85  1  0.66569589  0.00062159  0.49856564  1
  Mn  Mn86  1  0.66725390  0.00071438  0.82996798  1
  Mn  Mn87  1  0.66863001  0.50169791  0.16681932  1
  Mn  Mn88  1  0.66902860  0.50069441  0.50165606  1
  Mn  Mn89  1  0.66890468  0.50039615  0.83252819  1
  Mn  Mn90  1  0.00089337  0.24933358  0.16656289  1
  Mn  Mn91  1  0.00023925  0.25092788  0.49905575  1
  Mn  Mn92  1  -0.00313560  0.25121374  0.83173565  1
  Mn  Mn93  1  0.00137816  0.75003627  0.16553565  1
  Mn  Mn94  1  -0.00187225  0.74913780  0.49689004  1
  Mn  Mn95  1  -0.00146175  0.74805759  0.83206958  1
  Mn  Mn96  1  0.33429735  0.25032637  0.16838463  1
  Mn  Mn97  1  0.33163257  0.24858655  0.50200789  1
  Mn  Mn98  1  0.33303422  0.24960658  0.83638597  1
  Mn  Mn99  1  0.33049925  0.74886731  0.16901412  1
  Mn  Mn100  1  0.33531333  0.75015675  0.50124571  1
  Mn  Mn101  1  0.33328031  0.74950533  0.83357484  1
  Mn  Mn102  1  0.66721698  0.24730034  0.16749190  1
  Mn  Mn103  1  0.66752897  0.24871763  0.50134982  1
  Mn  Mn104  1  0.66738927  0.25007908  0.82991465  1
  Mn  Mn105  1  0.66889547  0.74954107  0.16681332  1
  Mn  Mn106  1  0.66552327  0.74877951  0.49887202  1
  Mn  Mn107  1  0.66948713  0.75011942  0.83117090  1
  Mn  Mn108  1  0.16795593  0.24971959  -0.00178473  1
  Mn  Mn109  1  0.16448577  0.25140960  0.33442171  1
  Mn  Mn110  1  0.16444149  0.24942870  0.66591624  1
  Mn  Mn111  1  0.16431195  0.74841006  0.00100249  1
  Mn  Mn112  1  0.16621881  0.74959704  0.33246450  1
  Mn  Mn113  1  0.16697635  0.74795757  0.66608209  1
  Mn  Mn114  1  0.49822716  0.25004232  0.00191014  1
  Mn  Mn115  1  0.50079410  0.24711480  0.33574403  1
  Mn  Mn116  1  0.50043832  0.25008452  0.66791536  1
  Mn  Mn117  1  0.50134009  0.74922425  0.00179093  1
  Mn  Mn118  1  0.49848660  0.75182471  0.34028347  1
  Mn  Mn119  1  0.50031576  0.74853299  0.66405359  1
  Mn  Mn120  1  0.83658039  0.24853297  -0.00084372  1
  Mn  Mn121  1  0.83433357  0.24851077  0.33444452  1
  Mn  Mn122  1  0.83136340  0.25027438  0.66484680  1
  Mn  Mn123  1  0.83637345  0.75077294  -0.00396595  1
  Mn  Mn124  1  0.83365452  0.74925852  0.33270945  1
  Mn  Mn125  1  0.83286472  0.74894969  0.66358855  1
  Mn  Mn126  1  0.16448951  0.00087214  -0.00052262  1
  Mn  Mn127  1  0.16516493  0.00020100  0.33341535  1
  Mn  Mn128  1  0.16472708  0.00347119  0.66655749  1
  Mn  Mn129  1  0.16809201  0.50105606  -0.00023615  1
  Mn  Mn130  1  0.16555564  0.49977895  0.33348087  1
  Mn  Mn131  1  0.16605618  0.49948839  0.66585551  1
  Mn  Mn132  1  0.49956536  0.00113800  0.00092603  1
  Mn  Mn133  1  0.49936644  0.00072775  0.33573488  1
  Mn  Mn134  1  0.49933901  0.00201302  0.66490256  1
  Mn  Mn135  1  0.50176132  0.50082326  0.00290116  1
  Mn  Mn136  1  0.50125027  0.49969902  0.33816601  1
  Mn  Mn137  1  0.50192184  0.49999450  0.66906227  1
  Mn  Mn138  1  0.83506097  -0.00150978  -0.00237797  1
  Mn  Mn139  1  0.83160506  0.00033336  0.33333032  1
  Mn  Mn140  1  0.83195530  0.00099563  0.66357041  1
  Mn  Mn141  1  0.83676902  0.50216009  -0.00198162  1
  Mn  Mn142  1  0.83690418  0.50005400  0.33368523  1
  Mn  Mn143  1  0.83219171  0.50019069  0.66511497  1
  O  O144  1  0.15945898  0.12636926  0.01154172  1
  O  O145  1  0.16185121  0.12918065  0.35610939  1
  O  O146  1  0.16312239  0.12736072  0.68843042  1
  O  O147  1  0.15713590  0.62381745  0.02577084  1
  O  O148  1  0.16056468  0.62320885  0.35902083  1
  O  O149  1  0.16100919  0.62061856  0.68714838  1
  O  O150  1  0.49096824  0.12716745  0.02020526  1
  O  O151  1  0.50029836  0.12252596  0.35590188  1
  O  O152  1  0.49939445  0.12869833  0.68982975  1
  O  O153  1  0.49356378  0.62330678  0.01169126  1
  O  O154  1  0.49031729  0.63127784  0.36335073  1
  O  O155  1  0.50501446  0.62365044  0.68020444  1
  O  O156  1  0.84098061  0.12038084  0.02313372  1
  O  O157  1  0.83402670  0.12519861  0.35748644  1
  O  O158  1  0.83156180  0.13026563  0.69046025  1
  O  O159  1  0.82946599  0.62794882  0.01530189  1
  O  O160  1  0.83718880  0.62454309  0.35443431  1
  O  O161  1  0.82808608  0.62354348  0.69162204  1
  O  O162  1  0.16085488  0.37630027  0.30465641  1
  O  O163  1  0.16171517  0.37607043  0.64295232  1
  O  O164  1  0.17240241  0.37565384  0.98593231  1
  O  O165  1  0.17438433  0.87122691  0.30819519  1
  O  O166  1  0.17819934  0.87699873  0.65726236  1
  O  O167  1  0.16084734  0.87398772  0.98719376  1
  O  O168  1  0.50003335  0.36886453  0.31236304  1
  O  O169  1  0.50526804  0.37666597  0.64302699  1
  O  O170  1  0.49570709  0.37475393  0.98072461  1
  O  O171  1  0.49953982  0.87707474  0.32126853  1
  O  O172  1  0.49658797  0.87239417  0.64308541  1
  O  O173  1  0.50815902  0.87557249  0.99123877  1
  O  O174  1  0.84038240  0.37373067  0.32121787  1
  O  O175  1  0.83512460  0.37713927  0.63643919  1
  O  O176  1  0.84568501  0.37767356  0.97840277  1
  O  O177  1  0.83091662  0.87474547  0.32442711  1
  O  O178  1  0.82977496  0.86958476  0.63630948  1
  O  O179  1  0.84593151  0.87399550  0.97084923  1
  O  O180  1  0.00703050  0.37739540  0.18752239  1
  O  O181  1  0.00075159  0.37648717  0.52694347  1
  O  O182  1  -0.00897986  0.37625790  0.85959596  1
  O  O183  1  0.00745042  0.87399206  0.18513062  1
  O  O184  1  -0.01011169  0.87377948  0.50931340  1
  O  O185  1  -0.00733262  0.87427974  0.85593743  1
  O  O186  1  0.32536150  0.37477611  0.18168181  1
  O  O187  1  0.33121981  0.37382945  0.51398875  1
  O  O188  1  0.33379966  0.37379610  0.86041164  1
  O  O189  1  0.32242392  0.87354552  0.18966481  1
  O  O190  1  0.33891198  0.87372414  0.53050110  1
  O  O191  1  0.32969960  0.87646551  0.83676436  1
  O  O192  1  0.66095309  0.37314076  0.17694814  1
  O  O193  1  0.67911141  0.37741997  0.52405554  1
  O  O194  1  0.66869247  0.37573884  0.84685768  1
  O  O195  1  0.66693771  0.87467853  0.18965489  1
  O  O196  1  0.67678884  0.87183762  0.52275767  1
  O  O197  1  0.67559452  0.87325092  0.85540690  1
  O  O198  1  -0.00678366  0.12231969  0.14349516  1
  O  O199  1  -0.00199262  0.13015458  0.47391566  1
  O  O200  1  -0.00135348  0.12926417  0.81286551  1
  O  O201  1  0.00742096  0.62471183  0.14397532  1
  O  O202  1  -0.00599162  0.62146479  0.47168379  1
  O  O203  1  -0.00735174  0.62045952  0.80597463  1
  O  O204  1  0.33927987  0.12968406  0.14434351  1
  O  O205  1  0.32661182  0.12607158  0.47520160  1
  O  O206  1  0.34532682  0.12709989  0.81334714  1
  O  O207  1  0.32615983  0.62189188  0.14469538  1
  O  O208  1  0.33347491  0.62588221  0.47495572  1
  O  O209  1  0.33283427  0.62377954  0.81783826  1
  O  O210  1  0.67030134  0.12234018  0.15563497  1
  O  O211  1  0.66776499  0.12218699  0.47404108  1
  O  O212  1  0.67189436  0.12741400  0.81358957  1
  O  O213  1  0.67106445  0.62709801  0.14678996  1
  O  O214  1  0.65439549  0.62692419  0.47265196  1
  O  O215  1  0.67703070  0.62504077  0.80798281  1
  O  O216  1  0.07931982  0.01361632  0.25117721  1
  O  O217  1  0.08550119  0.01774902  0.57731801  1
  O  O218  1  0.08062912  0.01942420  0.91500220  1
  O  O219  1  0.08712161  0.52438238  0.24857391  1
  O  O220  1  0.08821227  0.52199485  0.57092244  1
  O  O221  1  0.08367973  0.52049758  0.91374392  1
  O  O222  1  0.41696658  0.02015992  0.25222548  1
  O  O223  1  0.41390348  0.02189290  0.58431166  1
  O  O224  1  0.41505699  0.01879142  0.91661533  1
  O  O225  1  0.41220403  0.51504483  0.25675888  1
  O  O226  1  0.41955434  0.51928429  0.58736673  1
  O  O227  1  0.40901435  0.50986267  0.92794437  1
  O  O228  1  0.75334189  0.02159067  0.24911219  1
  O  O229  1  0.75341288  0.01874412  0.57345306  1
  O  O230  1  0.76164595  0.01254722  0.90515913  1
  O  O231  1  0.75356031  0.51626337  0.25207634  1
  O  O232  1  0.75268610  0.52816286  0.58140371  1
  O  O233  1  0.75782287  0.51712651  0.90810002  1
  O  O234  1  0.25396738  0.23338378  0.25706986  1
  O  O235  1  0.24932341  0.22654397  0.58442408  1
  O  O236  1  0.24730396  0.22293997  0.91404552  1
  O  O237  1  0.25158848  0.72222928  0.25484677  1
  O  O238  1  0.25578786  0.72569530  0.58424999  1
  O  O239  1  0.24913900  0.72642926  0.92362400  1
  O  O240  1  0.58263786  0.22645091  0.25269185  1
  O  O241  1  0.58361349  0.24161969  0.58195496  1
  O  O242  1  0.57369540  0.23816058  0.90740322  1
  O  O243  1  0.58962096  0.73729676  0.26945846  1
  O  O244  1  0.58955999  0.73046413  0.58633165  1
  O  O245  1  0.59918927  0.73662298  0.92278846  1
  O  O246  1  0.91186729  0.22729514  0.24886890  1
  O  O247  1  0.91399317  0.23539423  0.57869202  1
  O  O248  1  0.91633460  0.22564159  0.91428242  1
  O  O249  1  0.92629573  0.73359174  0.25438212  1
  O  O250  1  0.92042193  0.72301523  0.58899323  1
  O  O251  1  0.92395782  0.72443175  0.91998103  1
  O  O252  1  0.08719456  0.47695596  0.08326572  1
  O  O253  1  0.07850788  0.47437707  0.41111640  1
  O  O254  1  0.06979464  0.48324599  0.74011320  1
  O  O255  1  0.08022461  0.98097960  0.08190754  1
  O  O256  1  0.07599757  0.99307118  0.41116777  1
  O  O257  1  0.08106127  0.99606236  0.75015054  1
  O  O258  1  0.41664112  0.47866056  0.08905290  1
  O  O259  1  0.42256264  0.48480005  0.42670517  1
  O  O260  1  0.42138790  0.48538707  0.75916452  1
  O  O261  1  0.41334024  0.99521525  0.08303904  1
  O  O262  1  0.41261286  0.98085906  0.41673936  1
  O  O263  1  0.41216952  0.98929210  0.74349225  1
  O  O264  1  0.75232068  0.49659033  0.07661731  1
  O  O265  1  0.75546131  0.49313082  0.42386024  1
  O  O266  1  0.74715740  0.47664904  0.74261705  1
  O  O267  1  0.74827567  0.98006970  0.07148881  1
  O  O268  1  0.74241142  0.98091630  0.41061016  1
  O  O269  1  0.74709023  0.97753323  0.74053386  1
  O  O270  1  0.25457026  0.26567025  0.08035675  1
  O  O271  1  0.23892701  0.26400048  0.42537872  1
  O  O272  1  0.25241689  0.25210882  0.75145619  1
  O  O273  1  0.23738337  0.76004538  0.09496614  1
  O  O274  1  0.25336537  0.76296375  0.41410971  1
  O  O275  1  0.24942842  0.75119657  0.74964743  1
  O  O276  1  0.57696970  0.25663568  0.08874689  1
  O  O277  1  0.58233085  0.26598173  0.42221065  1
  O  O278  1  0.58568992  0.27134409  0.74687254  1
  O  O279  1  0.58748638  0.75991189  0.08333485  1
  O  O280  1  0.57662170  0.77746977  0.42796341  1
  O  O281  1  0.58642205  0.76374137  0.74600890  1
  O  O282  1  0.92959997  0.26394303  0.07456598  1
  O  O283  1  0.92099508  0.27076400  0.41484936  1
  O  O284  1  0.91037000  0.27479017  0.75070026  1
  O  O285  1  0.92023117  0.76119703  0.07801890  1
  O  O286  1  0.90303472  0.76026272  0.42754010  1
  O  O287  1  0.90534317  0.76291945  0.75963912  1
  O  O288  1  0.25112343  0.48276361  0.08475005  1
  O  O289  1  0.23896307  0.48796166  0.42381123  1
  O  O290  1  0.25002612  0.49682833  0.75550274  1
  O  O291  1  0.24376285  0.98894897  0.08824206  1
  O  O292  1  0.25194487  0.98557563  0.41548417  1
  O  O293  1  0.25329443  0.99998478  0.74564685  1
  O  O294  1  0.57769671  0.48795343  0.09036490  1
  O  O295  1  0.57885131  0.47999407  0.43184065  1
  O  O296  1  0.58379733  0.47917806  0.75201721  1
  O  O297  1  0.58519988  0.99079082  0.08170393  1
  O  O298  1  0.58223286  0.97665305  0.41887210  1
  O  O299  1  0.58452931  0.98702231  0.74369522  1
  O  O300  1  0.92805385  0.49099429  0.07574685  1
  O  O301  1  0.91670100  0.47719056  0.42152934  1
  O  O302  1  0.90862579  0.47591529  0.75177212  1
  O  O303  1  0.92121626  0.98115405  0.07770876  1
  O  O304  1  0.90673585  0.99038783  0.42192507  1
  O  O305  1  0.90617717  0.98777699  0.75960456  1
  O  O306  1  0.08961816  0.27111803  0.08391143  1
  O  O307  1  0.08132204  0.27770869  0.41667496  1
  O  O308  1  0.07270451  0.26760959  0.74240838  1
  O  O309  1  0.07811396  0.77023527  0.07818314  1
  O  O310  1  0.07449738  0.75952945  0.40417379  1
  O  O311  1  0.07611188  0.75320351  0.74687875  1
  O  O312  1  0.41831552  0.27477509  0.08947228  1
  O  O313  1  0.41984472  0.26047416  0.42428199  1
  O  O314  1  0.42575214  0.26646365  0.76514663  1
  O  O315  1  0.40774889  0.75402804  0.08543345  1
  O  O316  1  0.41295485  0.77874716  0.41892507  1
  O  O317  1  0.40976557  0.75925935  0.73587974  1
  O  O318  1  0.75884438  0.25298082  0.08586688  1
  O  O319  1  0.75926018  0.26074020  0.42459169  1
  O  O320  1  0.74934249  0.27569209  0.74440980  1
  O  O321  1  0.74570773  0.76669699  0.06324600  1
  O  O322  1  0.73888168  0.76472404  0.40973210  1
  O  O323  1  0.74493013  0.77164153  0.73946599  1
  O  O324  1  0.25637636  0.01800753  0.25810258  1
  O  O325  1  0.24936110  0.02480569  0.58373783  1
  O  O326  1  0.24905871  0.02287713  0.91442181  1
  O  O327  1  0.24962737  0.52257573  0.25338334  1
  O  O328  1  0.25409732  0.52292225  0.58452902  1
  O  O329  1  0.24902628  0.52695871  0.92082712  1
  O  O330  1  0.58459216  0.01790604  0.25608078  1
  O  O331  1  0.58281755  0.00750739  0.58016883  1
  O  O332  1  0.57996675  0.01351421  0.91235609  1
  O  O333  1  0.58735937  0.51695148  0.26278057  1
  O  O334  1  0.59221295  0.51786250  0.58914308  1
  O  O335  1  0.59265289  0.51506840  0.92350572  1
  O  O336  1  0.91593410  0.02000231  0.25086429  1
  O  O337  1  0.91521177  0.02181782  0.58360729  1
  O  O338  1  0.92048349  0.02503472  0.91863799  1
  O  O339  1  0.92637053  0.51606692  0.25409330  1
  O  O340  1  0.92064388  0.52152442  0.58647976  1
  O  O341  1  0.91979258  0.52533602  0.91614392  1
  O  O342  1  0.07289754  0.23461527  0.25850009  1
  O  O343  1  0.08670220  0.23271787  0.57364642  1
  O  O344  1  0.07995033  0.23472676  0.91548235  1
  O  O345  1  0.09119451  0.72933016  0.24175919  1
  O  O346  1  0.08759002  0.72950111  0.57507405  1
  O  O347  1  0.08467856  0.72506224  0.91253602  1
  O  O348  1  0.41814203  0.22652374  0.25194994  1
  O  O349  1  0.41259035  0.23321115  0.59099474  1
  O  O350  1  0.40739117  0.23265447  0.92773167  1
  O  O351  1  0.41026659  0.73958864  0.26035890  1
  O  O352  1  0.42277379  0.72436460  0.57653224  1
  O  O353  1  0.41453451  0.74023541  0.91888369  1
  O  O354  1  0.74916055  0.22851062  0.25565707  1
  O  O355  1  0.75108789  0.22814675  0.58246887  1
  O  O356  1  0.75740624  0.23993925  0.90722001  1
  O  O357  1  0.75472421  0.73087208  0.24715616  1
  O  O358  1  0.75330959  0.72159317  0.57375281  1
  O  O359  1  0.76238984  0.73320331  0.90373362  1
