# generated using pymatgen
data_Ba17Sr5La8Pr42Mn72O216
_symmetry_space_group_name_H-M   'P 1'
_cell_length_a   16.67097484
_cell_length_b   15.70484351
_cell_length_c   16.81378151
_cell_angle_alpha   89.99169423
_cell_angle_beta   90.00028799
_cell_angle_gamma   90.04304815
_symmetry_Int_Tables_number   1
_chemical_formula_structural   Ba17Sr5La8Pr42Mn72O216
_chemical_formula_sum   'Ba17 Sr5 La8 Pr42 Mn72 O216'
_cell_volume   4402.09977767
_cell_formula_units_Z   1
loop_
 _symmetry_equiv_pos_site_id
 _symmetry_equiv_pos_as_xyz
  1  'x, y, z'
loop_
 _atom_site_type_symbol
 _atom_site_label
 _atom_site_symmetry_multiplicity
 _atom_site_fract_x
 _atom_site_fract_y
 _atom_site_fract_z
 _atom_site_occupancy
  Ba  Ba0  1  0.83290133  0.12464014  0.83779810  1
  Ba  Ba1  1  0.50214962  0.12651539  0.16320045  1
  Ba  Ba2  1  0.66873217  0.62239184  0.66530522  1
  Ba  Ba3  1  0.33626010  0.62533768  0.99888754  1
  Ba  Ba4  1  -0.00043550  0.87395231  0.66942923  1
  Ba  Ba5  1  0.50204001  0.87547084  0.49712496  1
  Ba  Ba6  1  0.49967391  0.12622325  0.83443230  1
  Ba  Ba7  1  0.33466900  0.87561846  0.66505375  1
  Ba  Ba8  1  0.33553384  0.62315829  0.32904031  1
  Ba  Ba9  1  0.00036289  0.12685244  0.99902781  1
  Ba  Ba10  1  -0.00190246  0.37631175  0.00081561  1
  Ba  Ba11  1  0.66835902  0.87577502  0.33464064  1
  Ba  Ba12  1  0.16713436  0.12182451  0.83462393  1
  Ba  Ba13  1  0.16310803  0.37494441  0.50071432  1
  Ba  Ba14  1  0.33510993  0.87505511  0.33438563  1
  Ba  Ba15  1  -0.00324217  0.37560962  0.33597264  1
  Ba  Ba16  1  0.16584999  0.12384307  0.16513773  1
  Sr  Sr17  1  0.16634361  0.87467097  0.83135213  1
  Sr  Sr18  1  0.32441027  0.37222058  0.66705347  1
  Sr  Sr19  1  0.83682362  0.62462338  0.16924709  1
  Sr  Sr20  1  0.33364084  0.12464650  0.66832227  1
  Sr  Sr21  1  0.66872523  0.12498859  0.99715488  1
  La  La22  1  0.17042118  0.62979193  0.83116507  1
  La  La23  1  0.66145098  0.37149804  0.00060781  1
  La  La24  1  0.00235916  0.12673223  0.33169189  1
  La  La25  1  0.17153502  0.12459448  0.50301035  1
  La  La26  1  0.83344781  0.87157999  0.50048698  1
  La  La27  1  0.50233461  0.62590262  0.83294110  1
  La  La28  1  0.49507122  0.37566500  0.49856254  1
  La  La29  1  0.67227323  0.62506569  0.99662410  1
  Pr  Pr30  1  0.83641902  0.12476918  0.50530540  1
  Pr  Pr31  1  0.49044394  0.37594295  0.16190027  1
  Pr  Pr32  1  0.16324778  0.37816469  0.16434546  1
  Pr  Pr33  1  0.66261535  0.37362590  0.33254167  1
  Pr  Pr34  1  0.32751248  0.37226932  -0.00216249  1
  Pr  Pr35  1  0.49923435  0.87476641  0.82880722  1
  Pr  Pr36  1  0.83524169  0.12674395  0.16800783  1
  Pr  Pr37  1  0.00472087  0.62463549  0.99909381  1
  Pr  Pr38  1  0.82786299  0.37698254  0.16305925  1
  Pr  Pr39  1  0.82386421  0.37174711  0.83552200  1
  Pr  Pr40  1  0.66393228  0.88056010  0.00319576  1
  Pr  Pr41  1  0.33228546  0.87928343  -0.00068070  1
  Pr  Pr42  1  0.83156091  0.87862801  0.83429289  1
  Pr  Pr43  1  0.33494092  0.62293498  0.65923189  1
  Pr  Pr44  1  0.16178717  0.37608016  0.82974813  1
  Pr  Pr45  1  0.66594960  0.87595618  0.66941960  1
  Pr  Pr46  1  0.16890602  0.87436819  0.49716550  1
  Pr  Pr47  1  0.83270391  0.87316033  0.16514734  1
  Pr  Pr48  1  0.66979980  0.12291733  0.33204916  1
  Pr  Pr49  1  0.49760946  0.87403691  0.16523610  1
  Pr  Pr50  1  0.00564931  0.62734836  0.66563969  1
  Pr  Pr51  1  0.83782808  0.62519989  0.50310114  1
  Pr  Pr52  1  0.00726597  0.12232368  0.66874748  1
  Pr  Pr53  1  0.17241442  0.62438197  0.49923763  1
  Pr  Pr54  1  0.33462977  0.12414496  0.99102657  1
  Pr  Pr55  1  0.48778330  0.37572644  0.82968584  1
  Pr  Pr56  1  0.50254047  0.62961530  0.49928312  1
  Pr  Pr57  1  0.66972466  0.62719766  0.33216860  1
  Pr  Pr58  1  0.50054275  0.12071238  0.50213557  1
  Pr  Pr59  1  0.00146475  0.87449529  0.33805337  1
  Pr  Pr60  1  0.17110231  0.87141699  0.16331019  1
  Pr  Pr61  1  0.16487413  0.62310376  0.16889458  1
  Pr  Pr62  1  0.66892105  0.12710680  0.66587826  1
  Pr  Pr63  1  0.82686147  0.37672190  0.49905178  1
  Pr  Pr64  1  -0.00551059  0.37586373  0.67368415  1
  Pr  Pr65  1  0.00073794  0.87905239  0.00061451  1
  Pr  Pr66  1  0.65707363  0.37415005  0.67066636  1
  Pr  Pr67  1  0.33699188  0.12507733  0.33167391  1
  Pr  Pr68  1  0.83880380  0.62635196  0.83726039  1
  Pr  Pr69  1  0.50497488  0.62429552  0.16948912  1
  Pr  Pr70  1  0.32612673  0.37024692  0.33409564  1
  Pr  Pr71  1  0.00374312  0.62326529  0.33375866  1
  Mn  Mn72  1  -0.00147850  -0.00229704  0.17038551  1
  Mn  Mn73  1  0.00018853  -0.00098787  0.49954001  1
  Mn  Mn74  1  -0.00043759  -0.00211226  0.83473801  1
  Mn  Mn75  1  -0.00213015  0.50166171  0.16767487  1
  Mn  Mn76  1  -0.00186289  0.50121629  0.50323749  1
  Mn  Mn77  1  -0.00181884  0.50207225  0.83275760  1
  Mn  Mn78  1  0.33387973  0.00088834  0.16590970  1
  Mn  Mn79  1  0.33388646  0.00152566  0.49946750  1
  Mn  Mn80  1  0.33371696  -0.00201897  0.83289782  1
  Mn  Mn81  1  0.33322577  0.49945390  0.16381425  1
  Mn  Mn82  1  0.33415686  0.49791097  0.49714537  1
  Mn  Mn83  1  0.33181276  0.50154434  0.82902440  1
  Mn  Mn84  1  0.66793413  0.00097954  0.16737439  1
  Mn  Mn85  1  0.66985886  0.00283935  0.50116280  1
  Mn  Mn86  1  0.66598761  -0.00109145  0.83531148  1
  Mn  Mn87  1  0.66665367  0.50084916  0.16665419  1
  Mn  Mn88  1  0.66696809  0.49762881  0.49873439  1
  Mn  Mn89  1  0.66662014  0.50079658  0.83346511  1
  Mn  Mn90  1  -0.00159213  0.25034001  0.16883802  1
  Mn  Mn91  1  -0.00215947  0.24800186  0.50239947  1
  Mn  Mn92  1  -0.00158983  0.25201068  0.83349245  1
  Mn  Mn93  1  -0.00113952  0.75034092  0.16846562  1
  Mn  Mn94  1  0.00088829  0.74952953  0.50015580  1
  Mn  Mn95  1  -0.00120975  0.74836264  0.83500503  1
  Mn  Mn96  1  0.33168934  0.24970064  0.16567769  1
  Mn  Mn97  1  0.33417580  0.25128134  0.49967417  1
  Mn  Mn98  1  0.33044557  0.25162583  0.83225881  1
  Mn  Mn99  1  0.33506930  0.75040140  0.16338069  1
  Mn  Mn100  1  0.33364362  0.74774156  0.49818741  1
  Mn  Mn101  1  0.33524467  0.74923248  0.83090447  1
  Mn  Mn102  1  0.66729939  0.24985264  0.16805304  1
  Mn  Mn103  1  0.66760418  0.25164356  0.50009456  1
  Mn  Mn104  1  0.66387962  0.25177052  0.83414067  1
  Mn  Mn105  1  0.66741730  0.75013652  0.16508401  1
  Mn  Mn106  1  0.66945222  0.74813202  0.50015924  1
  Mn  Mn107  1  0.66823268  0.74951664  0.83459256  1
  Mn  Mn108  1  0.16668639  0.25202446  -0.00052414  1
  Mn  Mn109  1  0.16522818  0.24827213  0.33361124  1
  Mn  Mn110  1  0.16415017  0.24926172  0.66600386  1
  Mn  Mn111  1  0.16711273  0.74992571  -0.00089917  1
  Mn  Mn112  1  0.16586087  0.74967833  0.33143555  1
  Mn  Mn113  1  0.16829308  0.74931660  0.66598526  1
  Mn  Mn114  1  0.49906276  0.25268121  -0.00142785  1
  Mn  Mn115  1  0.50112526  0.25179115  0.33272614  1
  Mn  Mn116  1  0.49843247  0.24969652  0.66518706  1
  Mn  Mn117  1  0.50226417  0.75014572  -0.00107594  1
  Mn  Mn118  1  0.50286555  0.74774578  0.33202076  1
  Mn  Mn119  1  0.50149110  0.74902030  0.66659439  1
  Mn  Mn120  1  0.83058240  0.25214653  0.00149171  1
  Mn  Mn121  1  0.83181122  0.25009202  0.33572196  1
  Mn  Mn122  1  0.83380965  0.25083104  0.66662340  1
  Mn  Mn123  1  0.83430282  0.74920063  0.00144185  1
  Mn  Mn124  1  0.83516573  0.74827470  0.33328325  1
  Mn  Mn125  1  0.83270670  0.74957255  0.66944520  1
  Mn  Mn126  1  0.16691126  -0.00329759  0.00001985  1
  Mn  Mn127  1  0.16642723  -0.00076206  0.33414610  1
  Mn  Mn128  1  0.16778351  -0.00018291  0.66633010  1
  Mn  Mn129  1  0.16764937  0.50242960  -0.00214661  1
  Mn  Mn130  1  0.16569118  0.50011930  0.33235546  1
  Mn  Mn131  1  0.16425801  0.50100738  0.66562469  1
  Mn  Mn132  1  0.50034696  -0.00103240  -0.00139096  1
  Mn  Mn133  1  0.50197705  0.00363283  0.33242696  1
  Mn  Mn134  1  0.50185930  0.00153012  0.66692261  1
  Mn  Mn135  1  0.50128454  0.50095754  -0.00060145  1
  Mn  Mn136  1  0.50235882  0.49659274  0.33099796  1
  Mn  Mn137  1  0.49742186  0.49888591  0.66447453  1
  Mn  Mn138  1  0.83310469  -0.00258579  0.00187822  1
  Mn  Mn139  1  0.83500671  0.00014433  0.33541436  1
  Mn  Mn140  1  0.83269307  0.00099705  0.66811241  1
  Mn  Mn141  1  0.83234854  0.50242583  0.00156121  1
  Mn  Mn142  1  0.83144807  0.50044614  0.33352491  1
  Mn  Mn143  1  0.83393738  0.49843768  0.66807981  1
  O  O144  1  0.17502322  0.12295794  0.00846335  1
  O  O145  1  0.16413880  0.12179917  0.35488041  1
  O  O146  1  0.16424818  0.12495997  0.67613256  1
  O  O147  1  0.16157697  0.62725553  0.02531702  1
  O  O148  1  0.16131403  0.62597213  0.35314863  1
  O  O149  1  0.17022881  0.62464297  0.68684981  1
  O  O150  1  0.48931499  0.12724160  0.00805983  1
  O  O151  1  0.49859814  0.13201218  0.35591648  1
  O  O152  1  0.50623160  0.12760473  0.67804680  1
  O  O153  1  0.50501514  0.62498304  0.02690909  1
  O  O154  1  0.50600712  0.61585798  0.35455579  1
  O  O155  1  0.49373002  0.62189646  0.68842927  1
  O  O156  1  0.82948001  0.12253186  0.02134387  1
  O  O157  1  0.82827248  0.12726301  0.36103119  1
  O  O158  1  0.82600072  0.12707109  0.68275665  1
  O  O159  1  0.82830948  0.62713325  0.02114419  1
  O  O160  1  0.82755873  0.62368261  0.35952073  1
  O  O161  1  0.83701878  0.62026271  0.69412542  1
  O  O162  1  0.17112009  0.37552765  0.31076634  1
  O  O163  1  0.15345582  0.37673856  0.65753167  1
  O  O164  1  0.17274871  0.38119733  0.97447732  1
  O  O165  1  0.15984579  0.87350683  0.30913354  1
  O  O166  1  0.16526740  0.87245461  0.64120288  1
  O  O167  1  0.16685064  0.87019690  0.98174618  1
  O  O168  1  0.50998359  0.37383300  0.30387309  1
  O  O169  1  0.50459937  0.37462891  0.64253912  1
  O  O170  1  0.50576711  0.37956722  0.97536325  1
  O  O171  1  0.50261353  0.87900496  0.31263322  1
  O  O172  1  0.50954939  0.87517674  0.65411921  1
  O  O173  1  0.50663678  0.87118898  0.97343830  1
  O  O174  1  0.82835811  0.37602564  0.30688466  1
  O  O175  1  0.84262190  0.37445319  0.63997806  1
  O  O176  1  0.82745559  0.38072567  0.98177021  1
  O  O177  1  0.84090837  0.87206906  0.30868852  1
  O  O178  1  0.82668132  0.87878465  0.64327822  1
  O  O179  1  0.83599112  0.86918833  0.97842010  1
  O  O180  1  0.00002180  0.37761849  0.17864129  1
  O  O181  1  -0.00613773  0.37817696  0.52737251  1
  O  O182  1  0.01290337  0.38052393  0.84097629  1
  O  O183  1  -0.00761315  0.87198804  0.19588080  1
  O  O184  1  0.00208532  0.87357459  0.51456462  1
  O  O185  1  -0.00355028  0.86738859  0.85492490  1
  O  O186  1  0.33513877  0.37516735  0.19060954  1
  O  O187  1  0.34013877  0.37559365  0.51786790  1
  O  O188  1  0.33162588  0.37981686  0.85245594  1
  O  O189  1  0.33441935  0.87539062  0.17862818  1
  O  O190  1  0.32755611  0.87185750  0.50814827  1
  O  O191  1  0.34175796  0.87058137  0.85360180  1
  O  O192  1  0.67459822  0.37697312  0.19092042  1
  O  O193  1  0.67251624  0.37460208  0.52778835  1
  O  O194  1  0.67028187  0.37924351  0.85479450  1
  O  O195  1  0.66660106  0.87531956  0.18005012  1
  O  O196  1  0.67352655  0.87863823  0.52349062  1
  O  O197  1  0.66490738  0.87017774  0.85856272  1
  O  O198  1  -0.00726961  0.12296346  0.15600785  1
  O  O199  1  -0.00948427  0.11893119  0.47458645  1
  O  O200  1  -0.00291256  0.12838317  0.81610126  1
  O  O201  1  0.00431844  0.62785233  0.14184210  1
  O  O202  1  -0.00990007  0.62727117  0.47736127  1
  O  O203  1  -0.01123201  0.62422643  0.80993787  1
  O  O204  1  0.33276085  0.12660104  0.13666608  1
  O  O205  1  0.33346541  0.12954480  0.47732874  1
  O  O206  1  0.33320140  0.12660447  0.82464933  1
  O  O207  1  0.33520756  0.62413617  0.15379949  1
  O  O208  1  0.32957942  0.62118050  0.48641853  1
  O  O209  1  0.33610244  0.62333499  0.80561441  1
  O  O210  1  0.67607199  0.12432386  0.14633473  1
  O  O211  1  0.67370284  0.13035739  0.47647783  1
  O  O212  1  0.66672422  0.12713469  0.81070597  1
  O  O213  1  0.65901755  0.62484801  0.13915665  1
  O  O214  1  0.66817944  0.61739738  0.47729750  1
  O  O215  1  0.66791917  0.62419598  0.82006060  1
  O  O216  1  0.07496892  0.01079456  0.25993518  1
  O  O217  1  0.08197221  0.02127357  0.57911113  1
  O  O218  1  0.08141186  -0.00058431  0.92197864  1
  O  O219  1  0.08314186  0.52138332  0.24900072  1
  O  O220  1  0.08601773  0.52803482  0.57942224  1
  O  O221  1  0.08524662  0.52516675  0.91254686  1
  O  O222  1  0.41532873  0.01824682  0.25181373  1
  O  O223  1  0.41981633  0.01775447  0.58134815  1
  O  O224  1  0.41238197  0.00591232  0.92366834  1
  O  O225  1  0.42849121  0.51019808  0.23693796  1
  O  O226  1  0.42119422  0.52140323  0.57746120  1
  O  O227  1  0.42814966  0.51382846  0.90349433  1
  O  O228  1  0.75189190  0.01950622  0.25423346  1
  O  O229  1  0.74790807  0.02403447  0.58730225  1
  O  O230  1  0.74727714  0.00261055  0.92155525  1
  O  O231  1  0.75029772  0.52197414  0.24589772  1
  O  O232  1  0.76339182  0.51304840  0.57291720  1
  O  O233  1  0.75925517  0.51893985  0.91144066  1
  O  O234  1  0.25684563  0.23442313  0.25612444  1
  O  O235  1  0.25261360  0.23718688  0.58518241  1
  O  O236  1  0.26020411  0.24219089  0.92834010  1
  O  O237  1  0.24238414  0.73840293  0.24214436  1
  O  O238  1  0.25171480  0.72756772  0.58272536  1
  O  O239  1  0.24951881  0.73446981  0.90973590  1
  O  O240  1  0.59625951  0.23456626  0.26188131  1
  O  O241  1  0.59457443  0.23253691  0.58804621  1
  O  O242  1  0.58823835  0.24325043  0.92497109  1
  O  O243  1  0.58699646  0.72644284  0.24883369  1
  O  O244  1  0.58103092  0.73292050  0.57985944  1
  O  O245  1  0.58959993  0.72738302  0.92134526  1
  O  O246  1  0.91712712  0.22952831  0.26031852  1
  O  O247  1  0.92361657  0.22506191  0.59407899  1
  O  O248  1  0.91602515  0.25106621  0.91692835  1
  O  O249  1  0.92094995  0.72601779  0.25626127  1
  O  O250  1  0.92036168  0.73072960  0.58699683  1
  O  O251  1  0.92134007  0.72592491  0.92468672  1
  O  O252  1  0.08917108  0.48951436  0.08656928  1
  O  O253  1  0.07793597  0.49707447  0.41692117  1
  O  O254  1  0.07241554  0.49534198  0.73984860  1
  O  O255  1  0.08384878  0.97558207  0.08803194  1
  O  O256  1  0.08529864  0.97739422  0.41871771  1
  O  O257  1  0.08153669  0.99246885  0.74870596  1
  O  O258  1  0.41281834  0.47656310  0.07535355  1
  O  O259  1  0.41735483  0.47404228  0.40609279  1
  O  O260  1  0.41060002  0.47878310  0.74210566  1
  O  O261  1  0.41900252  0.97606341  0.08186233  1
  O  O262  1  0.41880431  1.00090216  0.41648235  1
  O  O263  1  0.42264131  0.98709355  0.75628583  1
  O  O264  1  0.74194677  0.48236935  0.07820695  1
  O  O265  1  0.74357882  0.47576756  0.41001607  1
  O  O266  1  0.74576143  0.47361336  0.74062713  1
  O  O267  1  0.75310157  0.97641848  0.08589984  1
  O  O268  1  0.76156659  0.98575952  0.42726797  1
  O  O269  1  0.74759103  0.97715366  0.75123169  1
  O  O270  1  0.24654545  0.27770145  0.08793412  1
  O  O271  1  0.25177499  0.26211830  0.41483226  1
  O  O272  1  0.23971789  0.26853712  0.75838489  1
  O  O273  1  0.25061820  0.76948894  0.08071265  1
  O  O274  1  0.24094724  0.75957464  0.42223434  1
  O  O275  1  0.24846062  0.75903687  0.75003415  1
  O  O276  1  0.57729928  0.27193267  0.08937924  1
  O  O277  1  0.57892592  0.27230343  0.42517294  1
  O  O278  1  0.57734144  0.27470403  0.75420813  1
  O  O279  1  0.57957146  0.77345165  0.08507108  1
  O  O280  1  0.58778799  0.75055996  0.41445850  1
  O  O281  1  0.58399869  0.76705611  0.75438565  1
  O  O282  1  0.90369467  0.26175735  0.09619132  1
  O  O283  1  0.90307708  0.26395951  0.43114231  1
  O  O284  1  0.90874608  0.27509212  0.75507296  1
  O  O285  1  0.91474583  0.77172242  0.08762025  1
  O  O286  1  0.91752035  0.76869823  0.41856326  1
  O  O287  1  0.90495429  0.76468905  0.76203963  1
  O  O288  1  0.25043762  0.47847651  0.08136143  1
  O  O289  1  0.25162718  0.48481116  0.40957884  1
  O  O290  1  0.23884169  0.48453908  0.75313630  1
  O  O291  1  0.24867976  0.97681760  0.08402859  1
  O  O292  1  0.24300205  0.98840377  0.42169478  1
  O  O293  1  0.25104731  0.98780096  0.75322909  1
  O  O294  1  0.57727785  0.47709990  0.09306503  1
  O  O295  1  0.58138600  0.47298293  0.41674646  1
  O  O296  1  0.57502191  0.48017691  0.75307377  1
  O  O297  1  0.58168966  0.98107916  0.08268167  1
  O  O298  1  0.58821199  1.00188124  0.41694214  1
  O  O299  1  0.58739870  0.98025427  0.74939677  1
  O  O300  1  0.90631990  0.48911764  0.09308249  1
  O  O301  1  0.90478505  0.48760725  0.43203502  1
  O  O302  1  0.90661784  0.47531571  0.75940201  1
  O  O303  1  0.91580717  0.97478777  0.08637219  1
  O  O304  1  0.92066209  0.97656178  0.41405453  1
  O  O305  1  0.91001070  0.98528486  0.75428271  1
  O  O306  1  0.08692804  0.26437501  0.08364565  1
  O  O307  1  0.07779915  0.25292916  0.41600092  1
  O  O308  1  0.07005474  0.25968758  0.73926649  1
  O  O309  1  0.08061746  0.77423915  0.08652121  1
  O  O310  1  0.08110090  0.76766701  0.41386521  1
  O  O311  1  0.08160087  0.75166135  0.75116189  1
  O  O312  1  0.41188929  0.27470082  0.07863563  1
  O  O313  1  0.41414621  0.27294576  0.40933615  1
  O  O314  1  0.41030351  0.26814876  0.74744725  1
  O  O315  1  0.41747758  0.77366883  0.07581698  1
  O  O316  1  0.42007885  0.74966834  0.41763517  1
  O  O317  1  0.42337195  0.76303664  0.75318854  1
  O  O318  1  0.74423799  0.27294668  0.08264626  1
  O  O319  1  0.74216132  0.27497972  0.41017776  1
  O  O320  1  0.74290110  0.27272707  0.74173708  1
  O  O321  1  0.74717519  0.77101860  0.07892297  1
  O  O322  1  0.75769055  0.76253460  0.42089605  1
  O  O323  1  0.74532877  0.77431859  0.74983143  1
  O  O324  1  0.25289988  0.01537616  0.25592249  1
  O  O325  1  0.24887589  0.01567201  0.58019657  1
  O  O326  1  0.25740111  0.00444151  0.92436473  1
  O  O327  1  0.24345278  0.51155465  0.23930468  1
  O  O328  1  0.24935338  0.51646777  0.58697997  1
  O  O329  1  0.24776729  0.51869300  0.91165831  1
  O  O330  1  0.58847157  0.01954047  0.25381822  1
  O  O331  1  0.58775369  0.02327714  0.58276475  1
  O  O332  1  0.58577611  0.00882188  0.91957495  1
  O  O333  1  0.59048978  0.52250585  0.25432949  1
  O  O334  1  0.58108451  0.51196926  0.57871682  1
  O  O335  1  0.59011285  0.52036817  0.92681782  1
  O  O336  1  0.91117234  0.02180028  0.25094612  1
  O  O337  1  0.91586210  0.01931745  0.58394050  1
  O  O338  1  0.91608318  0.00053475  0.92110748  1
  O  O339  1  0.92012817  0.52107768  0.26071867  1
  O  O340  1  0.92449315  0.52309527  0.59544438  1
  O  O341  1  0.92074362  0.52265112  0.92386989  1
  O  O342  1  0.08252888  0.23852577  0.25227033  1
  O  O343  1  0.08419372  0.22599283  0.57818567  1
  O  O344  1  0.08949553  0.24876170  0.91001762  1
  O  O345  1  0.08237535  0.72673023  0.24863184  1
  O  O346  1  0.08748733  0.72539023  0.57757443  1
  O  O347  1  0.08275161  0.72618272  0.91749963  1
  O  O348  1  0.41522065  0.23719750  0.24956753  1
  O  O349  1  0.42611276  0.23421427  0.57225665  1
  O  O350  1  0.41668768  0.25004727  0.91541210  1
  O  O351  1  0.42761424  0.73925840  0.23850569  1
  O  O352  1  0.41645821  0.72826647  0.58306749  1
  O  O353  1  0.42775026  0.73241490  0.90979141  1
  O  O354  1  0.75699452  0.22830630  0.24720196  1
  O  O355  1  0.75835450  0.23391448  0.57559810  1
  O  O356  1  0.74888835  0.24613023  0.91604219  1
  O  O357  1  0.75121579  0.73219235  0.24983584  1
  O  O358  1  0.75810077  0.73397033  0.57962813  1
  O  O359  1  0.75686822  0.73150845  0.91152545  1
