# generated using pymatgen
data_Ba17Sr5La8Pr42Mn72O216
_symmetry_space_group_name_H-M   'P 1'
_cell_length_a   16.67508116
_cell_length_b   15.70411171
_cell_length_c   16.81799698
_cell_angle_alpha   89.99506756
_cell_angle_beta   89.92685151
_cell_angle_gamma   90.01447152
_symmetry_Int_Tables_number   1
_chemical_formula_structural   Ba17Sr5La8Pr42Mn72O216
_chemical_formula_sum   'Ba17 Sr5 La8 Pr42 Mn72 O216'
_cell_volume   4404.08034457
_cell_formula_units_Z   1
loop_
 _symmetry_equiv_pos_site_id
 _symmetry_equiv_pos_as_xyz
  1  'x, y, z'
loop_
 _atom_site_type_symbol
 _atom_site_label
 _atom_site_symmetry_multiplicity
 _atom_site_fract_x
 _atom_site_fract_y
 _atom_site_fract_z
 _atom_site_occupancy
  Ba  Ba0  1  0.49870890  0.87488578  0.16531081  1
  Ba  Ba1  1  0.83102346  0.12755600  0.83259288  1
  Ba  Ba2  1  0.66859130  0.87403668  0.66338538  1
  Ba  Ba3  1  -0.00170197  0.87456425  -0.00064390  1
  Ba  Ba4  1  0.83518955  0.87432531  0.16783644  1
  Ba  Ba5  1  0.49789887  0.62470547  0.49964602  1
  Ba  Ba6  1  0.16384543  0.12492901  0.16880942  1
  Ba  Ba7  1  0.66627984  0.12740669  0.33227123  1
  Ba  Ba8  1  0.49883816  0.12531136  0.50079542  1
  Ba  Ba9  1  0.33248484  0.37636069  0.00299276  1
  Ba  Ba10  1  0.33143419  0.62471872  0.66443162  1
  Ba  Ba11  1  0.00075088  0.62205165  0.33284096  1
  Ba  Ba12  1  0.50056135  0.37655801  0.83699332  1
  Ba  Ba13  1  0.66773368  0.12547598  0.66507556  1
  Ba  Ba14  1  0.33166643  0.12520911  0.66566391  1
  Ba  Ba15  1  0.83664005  0.87497900  0.49942062  1
  Ba  Ba16  1  0.49907842  0.37497219  0.16305478  1
  Sr  Sr17  1  0.33169677  0.87375390  0.00436803  1
  Sr  Sr18  1  0.66593790  0.37556067  0.00042312  1
  Sr  Sr19  1  0.33297817  0.37323615  0.33146362  1
  Sr  Sr20  1  0.33366248  0.87678773  0.33432414  1
  Sr  Sr21  1  0.49955888  0.87741834  0.49560678  1
  La  La22  1  -0.00391608  0.62618317  1.00061175  1
  La  La23  1  0.83544968  0.37284014  0.49596848  1
  La  La24  1  0.17274179  0.37351183  0.83219636  1
  La  La25  1  0.50224068  0.12435855  0.83190808  1
  La  La26  1  0.83769544  0.87657179  0.82887412  1
  La  La27  1  0.33529242  0.12290450  0.99925837  1
  La  La28  1  0.66536806  0.62835680  0.33059199  1
  La  La29  1  0.16555579  0.62590763  0.83806552  1
  Pr  Pr30  1  0.50076730  0.62535509  0.83237282  1
  Pr  Pr31  1  -0.00429989  0.12440646  0.33244527  1
  Pr  Pr32  1  0.16527334  0.87289514  0.16662552  1
  Pr  Pr33  1  0.33529377  0.12210741  0.33203678  1
  Pr  Pr34  1  0.49448393  0.62116182  0.16976295  1
  Pr  Pr35  1  -0.00594535  0.12132938  0.99815110  1
  Pr  Pr36  1  0.49339029  0.12849453  0.16939576  1
  Pr  Pr37  1  0.83393833  0.37530431  0.82669021  1
  Pr  Pr38  1  0.66083765  0.12585809  0.99766746  1
  Pr  Pr39  1  0.66362443  0.37675230  0.33491106  1
  Pr  Pr40  1  0.34381604  0.87448136  0.66559857  1
  Pr  Pr41  1  -0.00440154  0.12442567  0.66627628  1
  Pr  Pr42  1  0.67055871  0.87547870  0.00229639  1
  Pr  Pr43  1  0.00662448  0.87591153  0.33764884  1
  Pr  Pr44  1  -0.00439859  0.62548699  0.66217479  1
  Pr  Pr45  1  0.66091332  0.37480570  0.66970864  1
  Pr  Pr46  1  0.66472124  0.62281436  0.66208612  1
  Pr  Pr47  1  0.82802897  0.62622441  0.16716434  1
  Pr  Pr48  1  0.17866051  0.87588602  0.83344643  1
  Pr  Pr49  1  0.82694691  0.62601792  0.83427980  1
  Pr  Pr50  1  0.49615736  0.37317300  0.49974939  1
  Pr  Pr51  1  0.00412658  0.37532773  0.67069841  1
  Pr  Pr52  1  0.17222347  0.37626426  0.50042913  1
  Pr  Pr53  1  0.83219864  0.37691034  0.16577629  1
  Pr  Pr54  1  0.34182422  0.37534841  0.67132174  1
  Pr  Pr55  1  0.16450238  0.12470992  0.50330949  1
  Pr  Pr56  1  0.66234891  0.62433533  1.00135632  1
  Pr  Pr57  1  -0.00276139  0.37101326  0.00148792  1
  Pr  Pr58  1  0.00564655  0.37290328  0.33668639  1
  Pr  Pr59  1  0.83138643  0.12429875  0.16528384  1
  Pr  Pr60  1  0.33426783  0.62788639  0.33345496  1
  Pr  Pr61  1  0.66640871  0.87548176  0.34119926  1
  Pr  Pr62  1  0.33814911  0.62629831  0.99817473  1
  Pr  Pr63  1  0.82874942  0.62608740  0.49991565  1
  Pr  Pr64  1  0.16486206  0.12342402  0.84312441  1
  Pr  Pr65  1  0.50359282  0.87397634  0.82927082  1
  Pr  Pr66  1  0.17298909  0.87451520  0.50119308  1
  Pr  Pr67  1  0.16790083  0.62651141  0.16939710  1
  Pr  Pr68  1  0.16348832  0.62583216  0.50505881  1
  Pr  Pr69  1  0.82840653  0.12300257  0.50431957  1
  Pr  Pr70  1  0.16451621  0.37682045  0.16537982  1
  Pr  Pr71  1  0.00734302  0.87457224  0.67352829  1
  Mn  Mn72  1  -0.00060026  0.00114918  0.16867449  1
  Mn  Mn73  1  0.00278379  0.00070107  0.50088944  1
  Mn  Mn74  1  0.00168688  0.00036901  0.83298224  1
  Mn  Mn75  1  -0.00085394  0.49881941  0.16510348  1
  Mn  Mn76  1  0.00078864  0.49900547  0.50131392  1
  Mn  Mn77  1  0.00039331  0.50093060  0.83369705  1
  Mn  Mn78  1  0.33078169  -0.00187649  0.16645507  1
  Mn  Mn79  1  0.33206463  -0.00034767  0.49897481  1
  Mn  Mn80  1  0.33476742  -0.00111755  0.83387767  1
  Mn  Mn81  1  0.32913014  0.50210040  0.16753573  1
  Mn  Mn82  1  0.33081688  0.49797592  0.49902123  1
  Mn  Mn83  1  0.33257639  0.50195375  0.83373424  1
  Mn  Mn84  1  0.66675764  -0.00002125  0.16530974  1
  Mn  Mn85  1  0.66642167  -0.00047895  0.49832049  1
  Mn  Mn86  1  0.66663005  -0.00041045  0.83553163  1
  Mn  Mn87  1  0.66716851  0.50031736  0.16619878  1
  Mn  Mn88  1  0.66874126  0.49796847  0.49993328  1
  Mn  Mn89  1  0.66806295  0.50040217  0.83218303  1
  Mn  Mn90  1  -0.00255366  0.25144310  0.16807736  1
  Mn  Mn91  1  0.00230596  0.25050272  0.50105587  1
  Mn  Mn92  1  0.00084490  0.25144652  0.83537148  1
  Mn  Mn93  1  0.00018281  0.74795816  0.16793049  1
  Mn  Mn94  1  0.00157495  0.75014492  0.50161739  1
  Mn  Mn95  1  0.00179153  0.74729680  0.83171197  1
  Mn  Mn96  1  0.32912280  0.24924652  0.16769554  1
  Mn  Mn97  1  0.33038192  0.25212997  0.49987936  1
  Mn  Mn98  1  0.33281635  0.24848202  0.83322257  1
  Mn  Mn99  1  0.33127211  0.75027448  0.16598296  1
  Mn  Mn100  1  0.33208033  0.75091718  0.49848637  1
  Mn  Mn101  1  0.33475662  0.74987078  0.83426913  1
  Mn  Mn102  1  0.66779988  0.25055102  0.16353821  1
  Mn  Mn103  1  0.66842477  0.25396219  0.50000158  1
  Mn  Mn104  1  0.66646532  0.25174374  0.83428941  1
  Mn  Mn105  1  0.66580519  0.75067519  0.16609839  1
  Mn  Mn106  1  0.66684895  0.74799767  0.49785981  1
  Mn  Mn107  1  0.66768860  0.74839237  0.83414984  1
  Mn  Mn108  1  0.16442944  0.25023863  0.00181233  1
  Mn  Mn109  1  0.16723318  0.25045812  0.33597346  1
  Mn  Mn110  1  0.16506652  0.24972002  0.66813829  1
  Mn  Mn111  1  0.16492231  0.74939813  0.00256675  1
  Mn  Mn112  1  0.16849716  0.74965541  0.33564624  1
  Mn  Mn113  1  0.16658730  0.75123289  0.66938976  1
  Mn  Mn114  1  0.49968760  0.24805447  0.00120325  1
  Mn  Mn115  1  0.49861518  0.25224328  0.33236982  1
  Mn  Mn116  1  0.50046461  0.25045045  0.66680717  1
  Mn  Mn117  1  0.50056562  0.74992939  -0.00130717  1
  Mn  Mn118  1  0.49941648  0.74923672  0.33140062  1
  Mn  Mn119  1  0.50158023  0.75018499  0.66578185  1
  Mn  Mn120  1  0.83080440  0.25382872  0.00005842  1
  Mn  Mn121  1  0.83464895  0.25142669  0.33157938  1
  Mn  Mn122  1  0.83592941  0.25288837  0.66297506  1
  Mn  Mn123  1  0.83129743  0.74656231  -0.00151239  1
  Mn  Mn124  1  0.83549448  0.74877458  0.33285809  1
  Mn  Mn125  1  0.83652168  0.74815215  0.66685036  1
  Mn  Mn126  1  0.16592162  -0.00181845  0.00246686  1
  Mn  Mn127  1  0.16696696  0.00044619  0.33674540  1
  Mn  Mn128  1  0.16690387  0.00062873  0.66934101  1
  Mn  Mn129  1  0.16280857  0.50091043  0.00170792  1
  Mn  Mn130  1  0.16882639  0.49943246  0.33433439  1
  Mn  Mn131  1  0.16484118  0.49888937  0.66816113  1
  Mn  Mn132  1  0.49963558  -0.00139914  -0.00087379  1
  Mn  Mn133  1  0.49993184  0.00075807  0.33106562  1
  Mn  Mn134  1  0.50143054  -0.00193081  0.66552720  1
  Mn  Mn135  1  0.50100790  0.50256433  0.00110087  1
  Mn  Mn136  1  0.49829487  0.49874872  0.33378429  1
  Mn  Mn137  1  0.50050693  0.50088594  0.66601085  1
  Mn  Mn138  1  0.83098147  0.00075266  -0.00039335  1
  Mn  Mn139  1  0.83480414  0.00099044  0.33256124  1
  Mn  Mn140  1  0.83655611  -0.00034538  0.66528671  1
  Mn  Mn141  1  0.83236494  0.49919408  -0.00210639  1
  Mn  Mn142  1  0.83400221  0.49876679  0.33162760  1
  Mn  Mn143  1  0.83514238  0.49977573  0.66432608  1
  O  O144  1  0.16738968  0.12242190  0.01082562  1
  O  O145  1  0.16275054  0.12652393  0.36058589  1
  O  O146  1  0.16101697  0.12503362  0.69775400  1
  O  O147  1  0.15942868  0.62401558  0.02465677  1
  O  O148  1  0.17215601  0.62365512  0.36239729  1
  O  O149  1  0.15993299  0.62484966  0.69322917  1
  O  O150  1  0.50519427  0.12089723  0.02350015  1
  O  O151  1  0.49070875  0.12905251  0.34330528  1
  O  O152  1  0.50022443  0.12284190  0.68394649  1
  O  O153  1  0.50383166  0.62787707  0.02419225  1
  O  O154  1  0.49563444  0.62156543  0.34416023  1
  O  O155  1  0.50674901  0.62574354  0.68583851  1
  O  O156  1  0.83115418  0.13322752  0.02119801  1
  O  O157  1  0.84068407  0.12960937  0.36049820  1
  O  O158  1  0.83846841  0.12805919  0.67509013  1
  O  O159  1  0.82915530  0.62092933  0.02249232  1
  O  O160  1  0.82900132  0.62052934  0.35639860  1
  O  O161  1  0.83382808  0.62158977  0.69124806  1
  O  O162  1  0.16344965  0.37500699  0.30865308  1
  O  O163  1  0.15743276  0.37316870  0.64306561  1
  O  O164  1  0.15865639  0.37806331  0.97611661  1
  O  O165  1  0.16160432  0.87478070  0.31103712  1
  O  O166  1  0.15911581  0.87681698  0.64446420  1
  O  O167  1  0.16689757  0.87370519  0.97717591  1
  O  O168  1  0.50703111  0.37617886  0.31903196  1
  O  O169  1  0.50153933  0.37805050  0.64971837  1
  O  O170  1  0.50119136  0.37740132  0.99266515  1
  O  O171  1  0.51025226  0.87325185  0.32209932  1
  O  O172  1  0.49676849  0.87264456  0.65244871  1
  O  O173  1  0.50388995  0.87305197  0.97294150  1
  O  O174  1  0.84034976  0.37548256  0.30853833  1
  O  O175  1  0.84542755  0.37807698  0.63987509  1
  O  O176  1  0.83848052  0.37834017  0.96965440  1
  O  O177  1  0.83760485  0.87404177  0.32357740  1
  O  O178  1  0.84717079  0.87277612  0.65945067  1
  O  O179  1  0.82586863  0.86796397  0.97407403  1
  O  O180  1  -0.00572044  0.37514993  0.19331054  1
  O  O181  1  -0.00144440  0.37337712  0.52793208  1
  O  O182  1  -0.00723758  0.37945569  0.85896302  1
  O  O183  1  0.00312049  0.87361695  0.19302264  1
  O  O184  1  0.00452712  0.87448085  0.52798371  1
  O  O185  1  -0.01148549  0.87500607  0.84138310  1
  O  O186  1  0.32192300  0.37853998  0.18145048  1
  O  O187  1  0.32298364  0.37506730  0.52664883  1
  O  O188  1  0.32854585  0.37775061  0.84522343  1
  O  O189  1  0.32460158  0.87309767  0.18524593  1
  O  O190  1  0.32401911  0.87485047  0.52109307  1
  O  O191  1  0.33556494  0.87360268  0.85545499  1
  O  O192  1  0.67087417  0.37773191  0.19073312  1
  O  O193  1  0.67636816  0.37867389  0.52594741  1
  O  O194  1  0.67422142  0.37866588  0.84994298  1
  O  O195  1  0.66498245  0.87255460  0.19325559  1
  O  O196  1  0.66351373  0.87112549  0.50097276  1
  O  O197  1  0.66172779  0.87132162  0.85875774  1
  O  O198  1  -0.00412843  0.13135224  0.14117233  1
  O  O199  1  0.01167481  0.12830508  0.47415704  1
  O  O200  1  0.01036756  0.12471249  0.81154207  1
  O  O201  1  0.00936319  0.62010251  0.14403240  1
  O  O202  1  0.01227846  0.62554066  0.48811607  1
  O  O203  1  0.01000112  0.62095463  0.80488013  1
  O  O204  1  0.33400330  0.12147787  0.14605621  1
  O  O205  1  0.32489762  0.12745261  0.47808547  1
  O  O206  1  0.32614654  0.12201762  0.82178315  1
  O  O207  1  0.32526302  0.62721834  0.14316987  1
  O  O208  1  0.32449410  0.62339109  0.47868636  1
  O  O209  1  0.32839053  0.62618106  0.82058410  1
  O  O210  1  0.67781926  0.12618502  0.14124050  1
  O  O211  1  0.67575797  0.12923722  0.49120344  1
  O  O212  1  0.66209852  0.12563035  0.82248165  1
  O  O213  1  0.67535556  0.62501233  0.14471691  1
  O  O214  1  0.67518226  0.62009469  0.47713488  1
  O  O215  1  0.67399350  0.62374815  0.80474182  1
  O  O216  1  0.07428735  0.01431078  0.26558929  1
  O  O217  1  0.07741366  0.02302149  0.59344475  1
  O  O218  1  0.07945383  0.01874190  0.92079352  1
  O  O219  1  0.09080551  0.51042792  0.24457278  1
  O  O220  1  0.07787486  0.51675505  0.59277640  1
  O  O221  1  0.08101010  0.52292728  0.91836363  1
  O  O222  1  0.41451619  0.01793596  0.24726133  1
  O  O223  1  0.40967230  0.00187404  0.58507138  1
  O  O224  1  0.41700544  0.02253298  0.91662275  1
  O  O225  1  0.41124172  0.52021990  0.24849250  1
  O  O226  1  0.41434669  0.50090405  0.58244676  1
  O  O227  1  0.41884506  0.52452150  0.91831755  1
  O  O228  1  0.75333705  0.01552383  0.24576716  1
  O  O229  1  0.75461697  0.00778163  0.57954243  1
  O  O230  1  0.73996132  0.01218135  0.92585001  1
  O  O231  1  0.74634315  0.51886570  0.25236426  1
  O  O232  1  0.75187524  0.52250360  0.58330034  1
  O  O233  1  0.74829001  0.52253441  0.91588656  1
  O  O234  1  0.25192514  0.23242456  0.25925221  1
  O  O235  1  0.23768840  0.23499192  0.57679695  1
  O  O236  1  0.24585350  0.23594751  0.91316516  1
  O  O237  1  0.25108358  0.72726580  0.25387504  1
  O  O238  1  0.23637422  0.73659462  0.57731748  1
  O  O239  1  0.24742591  0.73147466  0.91834605  1
  O  O240  1  0.58032878  0.23561336  0.24018453  1
  O  O241  1  0.58478008  0.25255739  0.58201845  1
  O  O242  1  0.57777293  0.23055146  0.91590898  1
  O  O243  1  0.58058253  0.72474072  0.24318241  1
  O  O244  1  0.58904362  0.73297123  0.58611205  1
  O  O245  1  0.58291515  0.72258282  0.91332472  1
  O  O246  1  0.91514996  0.22564567  0.24880858  1
  O  O247  1  0.91876110  0.22751151  0.57807880  1
  O  O248  1  0.92169675  0.23519842  0.92486011  1
  O  O249  1  0.91088861  0.72882637  0.24259295  1
  O  O250  1  0.91239831  0.72443165  0.57640243  1
  O  O251  1  0.91131813  0.72668888  0.90682894  1
  O  O252  1  0.07845541  0.47303943  0.08131864  1
  O  O253  1  0.08662010  0.47677857  0.41867621  1
  O  O254  1  0.08581890  0.47366191  0.75599579  1
  O  O255  1  0.08617922  0.98321004  0.09368393  1
  O  O256  1  0.09008106  0.97647311  0.42667562  1
  O  O257  1  0.09326744  0.97639703  0.75994295  1
  O  O258  1  0.41245339  0.50287666  0.08385423  1
  O  O259  1  0.41629050  0.47953486  0.42075501  1
  O  O260  1  0.41713788  0.49032707  0.74655031  1
  O  O261  1  0.41376679  0.99061468  0.07664804  1
  O  O262  1  0.41346767  0.99013748  0.41392401  1
  O  O263  1  0.41995679  0.97937589  0.75458292  1
  O  O264  1  0.75584087  0.48146729  0.08865525  1
  O  O265  1  0.75143794  0.47507956  0.41724437  1
  O  O266  1  0.75561779  0.47717564  0.74714366  1
  O  O267  1  0.74746298  0.98229673  0.08236943  1
  O  O268  1  0.75121861  0.98993649  0.41207800  1
  O  O269  1  0.75701055  0.98377773  0.76090755  1
  O  O270  1  0.24097815  0.26456508  0.08863524  1
  O  O271  1  0.24780777  0.27151132  0.41877862  1
  O  O272  1  0.24999130  0.27271441  0.74340715  1
  O  O273  1  0.24365372  0.76542730  0.08961342  1
  O  O274  1  0.24994360  0.77000672  0.41616662  1
  O  O275  1  0.25432199  0.77356261  0.74628125  1
  O  O276  1  0.58988748  0.25560956  0.07694774  1
  O  O277  1  0.58674856  0.27291796  0.41781635  1
  O  O278  1  0.58776314  0.26486409  0.74680604  1
  O  O279  1  0.58954122  0.76422325  0.07400531  1
  O  O280  1  0.58963087  0.75432597  0.40589187  1
  O  O281  1  0.58283698  0.76106292  0.75655965  1
  O  O282  1  0.91301439  0.27576682  0.08450397  1
  O  O283  1  0.92261826  0.27201225  0.41473676  1
  O  O284  1  0.91942580  0.27051237  0.74783344  1
  O  O285  1  0.91667389  0.74840719  0.07614854  1
  O  O286  1  0.92757410  0.76185234  0.41139926  1
  O  O287  1  0.93163669  0.75643762  0.73814502  1
  O  O288  1  0.23638809  0.48929692  0.09272483  1
  O  O289  1  0.24980642  0.47731287  0.41569867  1
  O  O290  1  0.24860356  0.47950442  0.74490120  1
  O  O291  1  0.24670665  0.98065369  0.08585598  1
  O  O292  1  0.24854670  0.98261481  0.41819543  1
  O  O293  1  0.25561620  0.97469039  0.74526388  1
  O  O294  1  0.58980513  0.49581593  0.07950628  1
  O  O295  1  0.58713371  0.47799106  0.41989606  1
  O  O296  1  0.59137785  0.48891889  0.74546216  1
  O  O297  1  0.59051967  0.98400004  0.07246588  1
  O  O298  1  0.58766179  0.98964403  0.40935085  1
  O  O299  1  0.58158225  0.98498612  0.75695067  1
  O  O300  1  0.91923258  0.47992484  0.07494563  1
  O  O301  1  0.91991315  0.47900949  0.41416082  1
  O  O302  1  0.92029629  0.47967951  0.74660368  1
  O  O303  1  0.91592703  0.99898993  0.07864752  1
  O  O304  1  0.93072256  0.98920219  0.40687333  1
  O  O305  1  0.93035768  0.99211709  0.73981281  1
  O  O306  1  0.07878874  0.27394078  0.08645841  1
  O  O307  1  0.08680082  0.27630444  0.42347256  1
  O  O308  1  0.08562553  0.27464067  0.75406443  1
  O  O309  1  0.08625999  0.76579932  0.09029148  1
  O  O310  1  0.08889410  0.77149641  0.42362767  1
  O  O311  1  0.09377862  0.77329106  0.76023213  1
  O  O312  1  0.41490467  0.24938847  0.08259023  1
  O  O313  1  0.41627797  0.27125385  0.42205125  1
  O  O314  1  0.41542403  0.26174758  0.74963126  1
  O  O315  1  0.41112011  0.75615931  0.07697453  1
  O  O316  1  0.41507300  0.75961564  0.41099477  1
  O  O317  1  0.42070411  0.76726832  0.75298008  1
  O  O318  1  0.75367426  0.27596100  0.08428076  1
  O  O319  1  0.75061742  0.27554185  0.41097763  1
  O  O320  1  0.75413218  0.27409666  0.74461957  1
  O  O321  1  0.74680782  0.76401656  0.08083618  1
  O  O322  1  0.75087071  0.75750274  0.41301219  1
  O  O323  1  0.76297184  0.76340472  0.76176231  1
  O  O324  1  0.25133065  0.01606846  0.25876033  1
  O  O325  1  0.23752801  0.01447805  0.57716560  1
  O  O326  1  0.24609265  0.01206993  0.91223057  1
  O  O327  1  0.25054516  0.52636505  0.25391974  1
  O  O328  1  0.23732942  0.51401393  0.57543464  1
  O  O329  1  0.24612554  0.52091606  0.92152074  1
  O  O330  1  0.57806903  0.02002145  0.23734617  1
  O  O331  1  0.58310286  0.00394294  0.57940379  1
  O  O332  1  0.57855087  0.01992079  0.91391848  1
  O  O333  1  0.58377990  0.52111732  0.24698659  1
  O  O334  1  0.59029365  0.51143130  0.58711289  1
  O  O335  1  0.58287866  0.52481244  0.91261850  1
  O  O336  1  0.91367520  0.02532325  0.24689925  1
  O  O337  1  0.91771584  0.02442468  0.57356895  1
  O  O338  1  0.91652193  0.01509427  0.91445127  1
  O  O339  1  0.90829387  0.51725008  0.23625212  1
  O  O340  1  0.91277613  0.52490862  0.57997045  1
  O  O341  1  0.91496853  0.52800849  0.91058450  1
  O  O342  1  0.07508048  0.23887212  0.26132189  1
  O  O343  1  0.07918751  0.22675148  0.59012707  1
  O  O344  1  0.08202298  0.23091570  0.92022747  1
  O  O345  1  0.09029441  0.73452656  0.25122179  1
  O  O346  1  0.07579714  0.73312773  0.59542297  1
  O  O347  1  0.07836484  0.72810768  0.91984780  1
  O  O348  1  0.41145156  0.23332515  0.24920675  1
  O  O349  1  0.41330826  0.25125848  0.58446348  1
  O  O350  1  0.41599552  0.22661289  0.91962859  1
  O  O351  1  0.41556924  0.72856381  0.24576382  1
  O  O352  1  0.41050448  0.74611232  0.58356038  1
  O  O353  1  0.41957217  0.72561409  0.91524626  1
  O  O354  1  0.75609952  0.23908435  0.24177852  1
  O  O355  1  0.76034089  0.24345177  0.57329126  1
  O  O356  1  0.74477265  0.23919876  0.92251589  1
  O  O357  1  0.74726370  0.72976884  0.25089163  1
  O  O358  1  0.75057352  0.72839954  0.58669143  1
  O  O359  1  0.74533849  0.72344261  0.92003243  1
