# generated using pymatgen
data_Ba17Sr5La8Pr42Mn72O216
_symmetry_space_group_name_H-M   'P 1'
_cell_length_a   16.67758384
_cell_length_b   15.70770968
_cell_length_c   16.81706719
_cell_angle_alpha   90.00345049
_cell_angle_beta   90.00839243
_cell_angle_gamma   89.99842276
_symmetry_Int_Tables_number   1
_chemical_formula_structural   Ba17Sr5La8Pr42Mn72O216
_chemical_formula_sum   'Ba17 Sr5 La8 Pr42 Mn72 O216'
_cell_volume   4405.51061639
_cell_formula_units_Z   1
loop_
 _symmetry_equiv_pos_site_id
 _symmetry_equiv_pos_as_xyz
  1  'x, y, z'
loop_
 _atom_site_type_symbol
 _atom_site_label
 _atom_site_symmetry_multiplicity
 _atom_site_fract_x
 _atom_site_fract_y
 _atom_site_fract_z
 _atom_site_occupancy
  Ba  Ba0  1  0.33296019  0.87603666  0.00342805  1
  Ba  Ba1  1  -0.00423581  0.37581645  0.33516916  1
  Ba  Ba2  1  0.00055357  0.87683104  0.66602994  1
  Ba  Ba3  1  0.83027310  0.62638298  0.83226281  1
  Ba  Ba4  1  0.00030511  0.62300429  0.33227161  1
  Ba  Ba5  1  -0.00037779  0.87336592  0.33321871  1
  Ba  Ba6  1  0.66240877  0.62557950  0.33017160  1
  Ba  Ba7  1  0.16841692  0.87576293  0.50091944  1
  Ba  Ba8  1  0.66413926  0.37467832  -0.00236265  1
  Ba  Ba9  1  0.17141448  0.12549507  0.50366167  1
  Ba  Ba10  1  -0.00083138  0.62396616  0.99742790  1
  Ba  Ba11  1  0.83387617  0.87687282  0.16338343  1
  Ba  Ba12  1  0.66646955  0.62512440  0.66231008  1
  Ba  Ba13  1  0.16982386  0.12711911  0.83633830  1
  Ba  Ba14  1  0.00395027  0.12636572  0.66877601  1
  Ba  Ba15  1  0.83457346  0.87643602  0.83242430  1
  Ba  Ba16  1  0.16635487  0.62173136  0.83586941  1
  Sr  Sr17  1  0.50472377  0.12457552  0.83392688  1
  Sr  Sr18  1  -0.00350423  0.37170527  0.66678868  1
  Sr  Sr19  1  -0.00062691  0.87250521  -0.00253195  1
  Sr  Sr20  1  0.83965835  0.12528189  0.83128403  1
  Sr  Sr21  1  0.66549496  0.62682535  0.99415429  1
  La  La22  1  0.17263770  0.12487973  0.16916149  1
  La  La23  1  0.49755498  0.62541979  0.50258817  1
  La  La24  1  0.33222758  0.87589779  0.67347144  1
  La  La25  1  0.82875909  0.62752163  0.16321638  1
  La  La26  1  0.49794480  0.62465569  0.16486280  1
  La  La27  1  0.49918988  0.37758799  0.49973916  1
  La  La28  1  0.32878473  0.37332831  0.00333073  1
  La  La29  1  0.84160195  0.12535465  0.50117101  1
  Pr  Pr30  1  0.50132384  0.87332306  0.16280166  1
  Pr  Pr31  1  0.15664038  0.37456686  0.83457253  1
  Pr  Pr32  1  0.50500075  0.12454092  0.16673697  1
  Pr  Pr33  1  0.33625613  0.87663092  0.33733018  1
  Pr  Pr34  1  0.82939183  0.37808880  0.83048179  1
  Pr  Pr35  1  -0.00406946  0.62751948  0.66583584  1
  Pr  Pr36  1  0.66756309  0.87661542  0.66773276  1
  Pr  Pr37  1  0.15506900  0.37690769  0.16788658  1
  Pr  Pr38  1  0.15871434  0.62337872  0.50512787  1
  Pr  Pr39  1  0.33992814  0.12469375  0.33732459  1
  Pr  Pr40  1  0.32999358  0.37375069  0.67355883  1
  Pr  Pr41  1  0.33008308  0.37335932  0.33847961  1
  Pr  Pr42  1  0.15764354  0.87287455  0.16427806  1
  Pr  Pr43  1  0.83064240  0.38037958  0.16246575  1
  Pr  Pr44  1  0.16623684  0.62683045  0.16876104  1
  Pr  Pr45  1  0.84326212  0.12737445  0.16627423  1
  Pr  Pr46  1  0.32913948  0.62542024  0.66642596  1
  Pr  Pr47  1  0.50574787  0.12609967  0.50556410  1
  Pr  Pr48  1  0.66155753  0.37334636  0.33044792  1
  Pr  Pr49  1  0.67528147  0.12427612  0.99335833  1
  Pr  Pr50  1  0.66918933  0.87655647  0.33212323  1
  Pr  Pr51  1  0.67269489  0.12428046  0.32884571  1
  Pr  Pr52  1  0.83352810  0.87447747  0.49438136  1
  Pr  Pr53  1  0.50126172  0.87507493  0.83133473  1
  Pr  Pr54  1  0.50312391  0.87378471  0.49896261  1
  Pr  Pr55  1  0.15825178  0.37361102  0.50070958  1
  Pr  Pr56  1  0.15963316  0.87330117  0.83219224  1
  Pr  Pr57  1  0.34408237  0.12525466  0.99863262  1
  Pr  Pr58  1  0.01235863  0.12360624  0.33229922  1
  Pr  Pr59  1  0.66456374  0.37343952  0.67020537  1
  Pr  Pr60  1  0.00427089  0.12013213  0.99470841  1
  Pr  Pr61  1  0.33192841  0.62472142  0.99943083  1
  Pr  Pr62  1  0.49535952  0.37753155  0.16388861  1
  Pr  Pr63  1  0.49855042  0.62536718  0.83579621  1
  Pr  Pr64  1  0.67452766  0.12460268  0.66435074  1
  Pr  Pr65  1  0.82555410  0.37494582  0.49609520  1
  Pr  Pr66  1  0.33957805  0.12481997  0.66643433  1
  Pr  Pr67  1  -0.00768406  0.37587757  -0.00219761  1
  Pr  Pr68  1  0.66908596  0.87544359  -0.00265253  1
  Pr  Pr69  1  0.50003440  0.37421031  0.83134923  1
  Pr  Pr70  1  0.33224289  0.62542728  0.33453502  1
  Pr  Pr71  1  0.83905222  0.62495606  0.50125957  1
  Mn  Mn72  1  0.00227048  0.00235607  0.16390570  1
  Mn  Mn73  1  0.00112191  0.00021248  0.49859914  1
  Mn  Mn74  1  0.00119228  0.00100300  0.83414591  1
  Mn  Mn75  1  -0.00206530  0.49972236  0.16524440  1
  Mn  Mn76  1  -0.00207841  0.49808840  0.50201545  1
  Mn  Mn77  1  -0.00299288  0.49661570  0.83074222  1
  Mn  Mn78  1  0.33467509  0.00162375  0.16997171  1
  Mn  Mn79  1  0.33867479  -0.00019058  0.50257806  1
  Mn  Mn80  1  0.33544784  0.00088581  0.83596046  1
  Mn  Mn81  1  0.33154553  0.49869859  0.16939392  1
  Mn  Mn82  1  0.33282879  0.49893417  0.50271180  1
  Mn  Mn83  1  0.33472432  0.49800758  0.83638456  1
  Mn  Mn84  1  0.66622183  0.00203410  0.16348575  1
  Mn  Mn85  1  0.66668956  0.00102348  0.49765215  1
  Mn  Mn86  1  0.66688006  0.00234778  0.83128740  1
  Mn  Mn87  1  0.66335352  0.50013767  0.16414310  1
  Mn  Mn88  1  0.66496527  0.49886322  0.49693029  1
  Mn  Mn89  1  0.66374860  0.49942946  0.83110298  1
  Mn  Mn90  1  0.00008920  0.25087580  0.16525249  1
  Mn  Mn91  1  -0.00087603  0.25162027  0.49992945  1
  Mn  Mn92  1  -0.00167968  0.25027356  0.83543877  1
  Mn  Mn93  1  -0.00102784  0.74819519  0.16506915  1
  Mn  Mn94  1  -0.00070578  0.74953084  0.49951050  1
  Mn  Mn95  1  0.00005255  0.74959275  0.83290373  1
  Mn  Mn96  1  0.33357416  0.24990700  0.17046404  1
  Mn  Mn97  1  0.33679233  0.25305403  0.50375347  1
  Mn  Mn98  1  0.33573871  0.24987157  0.83680700  1
  Mn  Mn99  1  0.33236840  0.74964971  0.17024639  1
  Mn  Mn100  1  0.33490559  0.74935217  0.50176721  1
  Mn  Mn101  1  0.33487398  0.74978304  0.83574889  1
  Mn  Mn102  1  0.66598830  0.24837072  0.16508875  1
  Mn  Mn103  1  0.66530032  0.24975947  0.49817452  1
  Mn  Mn104  1  0.66738384  0.24788622  0.83167214  1
  Mn  Mn105  1  0.66401419  0.75067479  0.16226843  1
  Mn  Mn106  1  0.66587875  0.75112391  0.49687181  1
  Mn  Mn107  1  0.66360063  0.75156816  0.83106821  1
  Mn  Mn108  1  0.16662970  0.25159886  0.00474378  1
  Mn  Mn109  1  0.17005644  0.25110549  0.33507309  1
  Mn  Mn110  1  0.17011478  0.25273009  0.66906054  1
  Mn  Mn111  1  0.16669465  0.75092485  0.00078065  1
  Mn  Mn112  1  0.17028371  0.74860886  0.33457125  1
  Mn  Mn113  1  0.16761961  0.74803900  0.66809691  1
  Mn  Mn114  1  0.49978966  0.24958899  -0.00014369  1
  Mn  Mn115  1  0.50010865  0.24935610  0.33391128  1
  Mn  Mn116  1  0.50106707  0.24981096  0.66679668  1
  Mn  Mn117  1  0.49977165  0.75072885  -0.00084642  1
  Mn  Mn118  1  0.49879357  0.75138842  0.33220712  1
  Mn  Mn119  1  0.49869342  0.75062475  0.66634994  1
  Mn  Mn120  1  0.83313815  0.24893545  -0.00012877  1
  Mn  Mn121  1  0.83171339  0.24891896  0.33163743  1
  Mn  Mn122  1  0.83255549  0.25035486  0.66440707  1
  Mn  Mn123  1  0.83143636  0.75063087  -0.00114607  1
  Mn  Mn124  1  0.83049288  0.74900892  0.33142571  1
  Mn  Mn125  1  0.83252685  0.75011104  0.66331253  1
  Mn  Mn126  1  0.16777650  0.00015972  0.00276184  1
  Mn  Mn127  1  0.17162426  0.00124937  0.33252816  1
  Mn  Mn128  1  0.17095963  0.00032247  0.66989131  1
  Mn  Mn129  1  0.16696314  0.49627877  0.00266677  1
  Mn  Mn130  1  0.16958603  0.49890009  0.33619543  1
  Mn  Mn131  1  0.16582695  0.49821059  0.66806820  1
  Mn  Mn132  1  0.50249052  0.00095929  -0.00029429  1
  Mn  Mn133  1  0.50131559  0.00136720  0.33378893  1
  Mn  Mn134  1  0.50129997  0.00116359  0.66653633  1
  Mn  Mn135  1  0.49759606  0.49923851  -0.00071856  1
  Mn  Mn136  1  0.49724472  0.49854524  0.33236491  1
  Mn  Mn137  1  0.49799943  0.49908497  0.66650564  1
  Mn  Mn138  1  0.83395780  0.00155498  -0.00124262  1
  Mn  Mn139  1  0.83401066  0.00293904  0.33234295  1
  Mn  Mn140  1  0.83347801  0.00174153  0.66370223  1
  Mn  Mn141  1  0.82989940  0.49952357  -0.00303979  1
  Mn  Mn142  1  0.82802122  0.49951721  0.33098705  1
  Mn  Mn143  1  0.83243032  0.49800459  0.66308648  1
  O  O144  1  0.15523666  0.12848158  0.02631104  1
  O  O145  1  0.16663966  0.12758570  0.34445654  1
  O  O146  1  0.18038275  0.12815337  0.67823144  1
  O  O147  1  0.17372029  0.61931951  0.02469495  1
  O  O148  1  0.17805454  0.61821682  0.36110965  1
  O  O149  1  0.16822707  0.62103376  0.67974434  1
  O  O150  1  0.49757219  0.12555263  0.02393030  1
  O  O151  1  0.49929788  0.12381744  0.36352910  1
  O  O152  1  0.49947141  0.12554886  0.68537305  1
  O  O153  1  0.49939964  0.62274222  0.02165221  1
  O  O154  1  0.49437728  0.62089936  0.35949752  1
  O  O155  1  0.49553445  0.62051003  0.69145181  1
  O  O156  1  0.82621698  0.12683351  0.02177443  1
  O  O157  1  0.82217804  0.12701244  0.35776680  1
  O  O158  1  0.82434921  0.12687173  0.68017796  1
  O  O159  1  0.82521528  0.62358802  0.01563404  1
  O  O160  1  0.82659111  0.62154882  0.35517927  1
  O  O161  1  0.83649311  0.62181529  0.67369408  1
  O  O162  1  0.17702912  0.37481861  0.31204032  1
  O  O163  1  0.17970279  0.37823488  0.64343151  1
  O  O164  1  0.17970002  0.37311392  0.98016950  1
  O  O165  1  0.18051435  0.87944370  0.30974723  1
  O  O166  1  0.17785587  0.87199507  0.65954044  1
  O  O167  1  0.16898241  0.87800888  0.97888588  1
  O  O168  1  0.49622825  0.37385171  0.30687515  1
  O  O169  1  0.50035460  0.37410755  0.64213443  1
  O  O170  1  0.49115617  0.37350765  0.97692846  1
  O  O171  1  0.49314594  0.88171643  0.30498650  1
  O  O172  1  0.49779925  0.87971920  0.64129771  1
  O  O173  1  0.50327431  0.87901083  0.97596765  1
  O  O174  1  0.82556548  0.37125468  0.30554801  1
  O  O175  1  0.82378511  0.37336673  0.64013818  1
  O  O176  1  0.83851410  0.37067458  0.97769155  1
  O  O177  1  0.82785622  0.87897414  0.32060112  1
  O  O178  1  0.82480510  0.87736412  0.64082786  1
  O  O179  1  0.82879362  0.87843694  0.99175771  1
  O  O180  1  -0.00635447  0.37427907  0.18111629  1
  O  O181  1  -0.00034445  0.37628866  0.51469431  1
  O  O182  1  -0.00566918  0.37183882  0.85245874  1
  O  O183  1  0.00380351  0.87587237  0.17627282  1
  O  O184  1  -0.00899145  0.87235848  0.50647863  1
  O  O185  1  0.00817181  0.87859793  0.84437436  1
  O  O186  1  0.34353201  0.37469293  0.19590797  1
  O  O187  1  0.34440179  0.37750785  0.52989653  1
  O  O188  1  0.34530045  0.37533303  0.86045173  1
  O  O189  1  0.34183335  0.87957954  0.19417722  1
  O  O190  1  0.34349370  0.87102646  0.52673332  1
  O  O191  1  0.33999753  0.87511376  0.84698541  1
  O  O192  1  0.66723937  0.36980740  0.18730261  1
  O  O193  1  0.66810699  0.37026896  0.52570959  1
  O  O194  1  0.66821053  0.37161129  0.84075953  1
  O  O195  1  0.65959486  0.87911119  0.18911904  1
  O  O196  1  0.66517494  0.87719139  0.52382338  1
  O  O197  1  0.65839201  0.87891196  0.85236088  1
  O  O198  1  0.00603701  0.13020254  0.14066865  1
  O  O199  1  -0.00441352  0.12856092  0.47862730  1
  O  O200  1  0.00025973  0.12909650  0.82883074  1
  O  O201  1  0.01007461  0.62119076  0.15562649  1
  O  O202  1  -0.00056556  0.62254825  0.49068021  1
  O  O203  1  0.00006346  0.61739571  0.81159032  1
  O  O204  1  0.32805301  0.12703624  0.14204452  1
  O  O205  1  0.34171893  0.12962375  0.48069230  1
  O  O206  1  0.33643497  0.12612445  0.80993621  1
  O  O207  1  0.33074881  0.61953417  0.14230526  1
  O  O208  1  0.33881327  0.62241082  0.47690838  1
  O  O209  1  0.34035703  0.62068479  0.80988525  1
  O  O210  1  0.65552446  0.12618879  0.13851212  1
  O  O211  1  0.65696556  0.12616147  0.47047349  1
  O  O212  1  0.66448551  0.12556163  0.80770653  1
  O  O213  1  0.65927966  0.62660676  0.14638712  1
  O  O214  1  0.65989780  0.62836700  0.48562161  1
  O  O215  1  0.65531596  0.62528788  0.82037483  1
  O  O216  1  0.09022864  0.01838037  0.24350100  1
  O  O217  1  0.08961839  0.00548284  0.58460991  1
  O  O218  1  0.08456382  0.01208084  0.92183529  1
  O  O219  1  0.09386189  0.50848433  0.24571654  1
  O  O220  1  0.08435736  0.51439671  0.58440989  1
  O  O221  1  0.08545695  0.49491166  0.91680272  1
  O  O222  1  0.42018840  0.02950992  0.25281451  1
  O  O223  1  0.42520105  0.02368318  0.58008123  1
  O  O224  1  0.42169766  0.01886480  0.91603081  1
  O  O225  1  0.41533073  0.52373900  0.24967421  1
  O  O226  1  0.41298468  0.52295956  0.58689933  1
  O  O227  1  0.41633657  0.52507464  0.91797034  1
  O  O228  1  0.75376616  0.02464319  0.24268750  1
  O  O229  1  0.75069240  0.02344900  0.57381641  1
  O  O230  1  0.75226489  0.01832906  0.91122382  1
  O  O231  1  0.74820920  0.51216246  0.24413506  1
  O  O232  1  0.75845362  0.51189825  0.57012256  1
  O  O233  1  0.74595324  0.50476819  0.91401486  1
  O  O234  1  0.26558268  0.23330755  0.26443285  1
  O  O235  1  0.26932990  0.24101809  0.59880114  1
  O  O236  1  0.26189548  0.23444251  0.93839131  1
  O  O237  1  0.25003894  0.72408294  0.25118790  1
  O  O238  1  0.24774075  0.72622846  0.57889066  1
  O  O239  1  0.25528719  0.73323926  0.92353432  1
  O  O240  1  0.59164830  0.22995593  0.25849270  1
  O  O241  1  0.59012965  0.22897277  0.58768908  1
  O  O242  1  0.59060332  0.23172382  0.92181769  1
  O  O243  1  0.57107133  0.73964391  0.23612728  1
  O  O244  1  0.57295407  0.74107155  0.57154151  1
  O  O245  1  0.57214781  0.73952895  0.90510573  1
  O  O246  1  0.92308802  0.22327058  0.25547214  1
  O  O247  1  0.91531853  0.23918684  0.58388869  1
  O  O248  1  0.92600983  0.23371820  0.93177234  1
  O  O249  1  0.91215425  0.73354669  0.24686801  1
  O  O250  1  0.91689102  0.73132341  0.58305758  1
  O  O251  1  0.91457748  0.74591751  0.91708771  1
  O  O252  1  0.08087994  0.47521973  0.08000052  1
  O  O253  1  0.08877254  0.48737489  0.42339018  1
  O  O254  1  0.08351411  0.47614776  0.74970260  1
  O  O255  1  0.08346408  0.98126799  0.08241343  1
  O  O256  1  0.08282045  0.99664315  0.40879509  1
  O  O257  1  0.09033892  0.99000383  0.75561528  1
  O  O258  1  0.41118378  0.48026130  0.08380737  1
  O  O259  1  0.41505325  0.47725637  0.41725523  1
  O  O260  1  0.41881441  0.47487819  0.75119674  1
  O  O261  1  0.42036917  0.99100915  0.09102922  1
  O  O262  1  0.41975622  0.97809677  0.41632656  1
  O  O263  1  0.41557709  0.98274914  0.74420874  1
  O  O264  1  0.75316086  0.48655809  0.08688236  1
  O  O265  1  0.74336173  0.47258789  0.40997470  1
  O  O266  1  0.74702943  0.48039801  0.74363385  1
  O  O267  1  0.73868194  0.99071947  0.07174660  1
  O  O268  1  0.74275431  0.98201858  0.41191293  1
  O  O269  1  0.73972164  0.98800807  0.73577870  1
  O  O270  1  0.23873039  0.26877145  0.10305532  1
  O  O271  1  0.24929873  0.27507665  0.43065450  1
  O  O272  1  0.24781695  0.27646383  0.76187457  1
  O  O273  1  0.24423877  0.76497394  0.09429481  1
  O  O274  1  0.26516077  0.76492117  0.40994382  1
  O  O275  1  0.25814786  0.75987248  0.74804463  1
  O  O276  1  0.56813979  0.26573577  0.09577501  1
  O  O277  1  0.57701566  0.27468170  0.42266228  1
  O  O278  1  0.57741855  0.27113803  0.75069867  1
  O  O279  1  0.58515021  0.77462249  0.07545119  1
  O  O280  1  0.58524909  0.77656831  0.40791860  1
  O  O281  1  0.58389357  0.77475434  0.74359480  1
  O  O282  1  0.90754592  0.26571660  0.09323049  1
  O  O283  1  0.90218644  0.26426690  0.42213542  1
  O  O284  1  0.90627998  0.26657765  0.75652526  1
  O  O285  1  0.91332986  0.74841902  0.08575539  1
  O  O286  1  0.90730042  0.75634980  0.42326008  1
  O  O287  1  0.91905009  0.75285203  0.74370867  1
  O  O288  1  0.24493955  0.47416196  0.09548905  1
  O  O289  1  0.25168591  0.47270004  0.42268396  1
  O  O290  1  0.25088321  0.47758753  0.75597307  1
  O  O291  1  0.24160401  0.98602375  0.09906285  1
  O  O292  1  0.26036360  0.98949463  0.41454406  1
  O  O293  1  0.25000800  0.97992307  0.75956176  1
  O  O294  1  0.57382575  0.48284458  0.08618228  1
  O  O295  1  0.58074529  0.47513254  0.41229229  1
  O  O296  1  0.58136687  0.47634153  0.74550828  1
  O  O297  1  0.57924877  0.97830318  0.08627258  1
  O  O298  1  0.58214564  0.97435959  0.41620273  1
  O  O299  1  0.57869717  0.97850670  0.75035282  1
  O  O300  1  0.91353993  0.48200848  0.07949011  1
  O  O301  1  0.90452827  0.48732649  0.42467492  1
  O  O302  1  0.90976915  0.47708140  0.74862762  1
  O  O303  1  0.91554260  1.00357386  0.08546713  1
  O  O304  1  0.90732674  0.99279077  0.41976546  1
  O  O305  1  0.91401671  0.99731411  0.75023465  1
  O  O306  1  0.07732064  0.27858607  0.07787651  1
  O  O307  1  0.08341334  0.26286116  0.41469363  1
  O  O308  1  0.08446763  0.26944716  0.75012630  1
  O  O309  1  0.08500532  0.76359391  0.08388383  1
  O  O310  1  0.08997632  0.75230769  0.41913334  1
  O  O311  1  0.09077930  0.76028957  0.75287335  1
  O  O312  1  0.40534374  0.26707280  0.08011859  1
  O  O313  1  0.41042033  0.27073681  0.41187637  1
  O  O314  1  0.41427115  0.26999740  0.74274483  1
  O  O315  1  0.42356355  0.76031148  0.09407330  1
  O  O316  1  0.42404260  0.76949572  0.42541277  1
  O  O317  1  0.42298319  0.76739344  0.75656757  1
  O  O318  1  0.74794807  0.26309251  0.08358079  1
  O  O319  1  0.73889561  0.27160131  0.40888343  1
  O  O320  1  0.74265748  0.26586995  0.73875454  1
  O  O321  1  0.74355765  0.76262547  0.07932463  1
  O  O322  1  0.74572772  0.77393363  0.41345073  1
  O  O323  1  0.74416030  0.76533417  0.74145412  1
  O  O324  1  0.25910507  0.02559007  0.25610015  1
  O  O325  1  0.26582226  0.00960236  0.59601015  1
  O  O326  1  0.25877464  0.02123222  0.93214505  1
  O  O327  1  0.25487633  0.52058345  0.25562770  1
  O  O328  1  0.25069021  0.52161315  0.58339491  1
  O  O329  1  0.25859705  0.51139292  0.92989171  1
  O  O330  1  0.58621774  0.02384395  0.25402992  1
  O  O331  1  0.58869269  0.02115435  0.58534603  1
  O  O332  1  0.59144691  0.01955414  0.92372194  1
  O  O333  1  0.57459320  0.50817749  0.24418510  1
  O  O334  1  0.57383681  0.51004779  0.57515185  1
  O  O335  1  0.57381667  0.50851355  0.90757128  1
  O  O336  1  0.92411168  0.02764575  0.25244386  1
  O  O337  1  0.91289449  0.01337788  0.58006548  1
  O  O338  1  0.92096837  0.01488855  0.92256868  1
  O  O339  1  0.90720467  0.51292358  0.24249388  1
  O  O340  1  0.92021953  0.51711510  0.58765178  1
  O  O341  1  0.91337336  0.50232309  0.91347431  1
  O  O342  1  0.08992072  0.23643132  0.24077521  1
  O  O343  1  0.09341209  0.25044816  0.58220089  1
  O  O344  1  0.08829268  0.24866655  0.91873672  1
  O  O345  1  0.09094319  0.74027705  0.24399108  1
  O  O346  1  0.08123311  0.73115483  0.58605566  1
  O  O347  1  0.08680474  0.74523610  0.91640815  1
  O  O348  1  0.42459036  0.22422512  0.24363983  1
  O  O349  1  0.42754678  0.23074855  0.57718822  1
  O  O350  1  0.42252927  0.22890589  0.91413649  1
  O  O351  1  0.41007173  0.72872792  0.25851331  1
  O  O352  1  0.41029312  0.72609913  0.59039311  1
  O  O353  1  0.41465736  0.72664091  0.92141259  1
  O  O354  1  0.75417447  0.22416556  0.24374034  1
  O  O355  1  0.75199117  0.22762710  0.57260213  1
  O  O356  1  0.75572960  0.23301896  0.91214505  1
  O  O357  1  0.74771475  0.73773595  0.24351155  1
  O  O358  1  0.75629138  0.73868069  0.57103594  1
  O  O359  1  0.73942901  0.74692918  0.91827393  1
