# generated using pymatgen
data_Ba17Sr5La8Pr42Mn72O216
_symmetry_space_group_name_H-M   'P 1'
_cell_length_a   16.69227068
_cell_length_b   15.71181285
_cell_length_c   16.83055489
_cell_angle_alpha   89.99628945
_cell_angle_beta   90.03564432
_cell_angle_gamma   90.01419578
_symmetry_Int_Tables_number   1
_chemical_formula_structural   Ba17Sr5La8Pr42Mn72O216
_chemical_formula_sum   'Ba17 Sr5 La8 Pr42 Mn72 O216'
_cell_volume   4414.07849789
_cell_formula_units_Z   1
loop_
 _symmetry_equiv_pos_site_id
 _symmetry_equiv_pos_as_xyz
  1  'x, y, z'
loop_
 _atom_site_type_symbol
 _atom_site_label
 _atom_site_symmetry_multiplicity
 _atom_site_fract_x
 _atom_site_fract_y
 _atom_site_fract_z
 _atom_site_occupancy
  Ba  Ba0  1  0.83312819  0.62705829  0.17013284  1
  Ba  Ba1  1  0.50667669  0.87478254  0.49984692  1
  Ba  Ba2  1  0.16794689  0.37449706  0.83102903  1
  Ba  Ba3  1  0.33133020  0.62410560  1.00095442  1
  Ba  Ba4  1  0.00263953  0.37504148  0.33357299  1
  Ba  Ba5  1  0.66217248  0.12437656  0.99872206  1
  Ba  Ba6  1  0.66744955  0.37416839  0.33289947  1
  Ba  Ba7  1  0.16861233  0.87488234  0.49839955  1
  Ba  Ba8  1  0.49998364  0.62551026  0.50160078  1
  Ba  Ba9  1  0.49924400  0.62613074  0.83699824  1
  Ba  Ba10  1  0.66606329  0.62372491  1.00313455  1
  Ba  Ba11  1  0.66527723  0.12553676  0.66639077  1
  Ba  Ba12  1  0.83603091  0.87492938  0.83227743  1
  Ba  Ba13  1  0.66901843  0.37399193  0.00102745  1
  Ba  Ba14  1  0.16808531  0.37497141  0.49798007  1
  Ba  Ba15  1  0.33326205  0.37551195  0.00011181  1
  Ba  Ba16  1  0.83820359  0.87456157  0.16526392  1
  Sr  Sr17  1  0.49550951  0.62193810  0.17015824  1
  Sr  Sr18  1  0.83388470  0.62165218  0.50043625  1
  Sr  Sr19  1  -0.00270454  0.62434002  0.66752393  1
  Sr  Sr20  1  0.83162526  0.37500812  0.83514561  1
  Sr  Sr21  1  0.16446738  0.62426274  0.16441284  1
  La  La22  1  0.50524496  0.37730787  0.16412339  1
  La  La23  1  0.83541971  0.37517235  0.49990815  1
  La  La24  1  0.82499899  0.12618161  0.83586094  1
  La  La25  1  0.32652920  0.12371235  0.66375127  1
  La  La26  1  0.34115858  0.37638028  0.67103456  1
  La  La27  1  0.32517380  0.12429510  0.99594683  1
  La  La28  1  0.67564091  0.87187313  0.33615718  1
  La  La29  1  0.00094333  0.37886915  0.66964724  1
  Pr  Pr30  1  -0.00344197  0.62600022  0.99835678  1
  Pr  Pr31  1  0.34885939  0.87406854  0.66806382  1
  Pr  Pr32  1  -0.00784900  0.12589593  0.66631077  1
  Pr  Pr33  1  0.50428296  0.37896445  0.83806473  1
  Pr  Pr34  1  0.15741123  0.12653825  0.16419249  1
  Pr  Pr35  1  0.51143672  0.87393410  0.83216041  1
  Pr  Pr36  1  0.83911000  0.37576312  0.16125122  1
  Pr  Pr37  1  -0.00590366  0.12496169  0.33242451  1
  Pr  Pr38  1  0.15947233  0.62429344  0.49922738  1
  Pr  Pr39  1  0.00425387  0.37609626  0.00447110  1
  Pr  Pr40  1  0.00677975  0.87175971  0.67081471  1
  Pr  Pr41  1  0.17109906  0.37658103  0.16212651  1
  Pr  Pr42  1  0.32253335  0.12007309  0.33317495  1
  Pr  Pr43  1  0.67273755  0.87080245  0.66634426  1
  Pr  Pr44  1  0.34502918  0.87416713  -0.00016290  1
  Pr  Pr45  1  0.15228835  0.12681428  0.83419980  1
  Pr  Pr46  1  0.50923053  0.87532543  0.16616707  1
  Pr  Pr47  1  0.49354229  0.12644547  0.50483623  1
  Pr  Pr48  1  0.01049198  0.87415844  0.00236202  1
  Pr  Pr49  1  0.49074929  0.13041700  0.16765993  1
  Pr  Pr50  1  -0.01059321  0.12498479  0.99753411  1
  Pr  Pr51  1  0.83734170  0.87617624  0.49927459  1
  Pr  Pr52  1  -0.00097629  0.62336647  0.33211077  1
  Pr  Pr53  1  0.50648825  0.37397732  0.49988331  1
  Pr  Pr54  1  0.15419900  0.12437943  0.50051156  1
  Pr  Pr55  1  0.17605887  0.87525831  0.16258893  1
  Pr  Pr56  1  0.65653344  0.62521129  0.32657291  1
  Pr  Pr57  1  0.17492302  0.87534277  0.82558835  1
  Pr  Pr58  1  0.32350907  0.62547800  0.66482754  1
  Pr  Pr59  1  0.34346050  0.87329483  0.33499018  1
  Pr  Pr60  1  0.65513170  0.12286186  0.33034731  1
  Pr  Pr61  1  0.83153171  0.62255701  0.83864693  1
  Pr  Pr62  1  0.66999877  0.37927790  0.66976448  1
  Pr  Pr63  1  0.32355874  0.62997320  0.32812062  1
  Pr  Pr64  1  0.67293249  0.87123418  0.00095897  1
  Pr  Pr65  1  0.66896049  0.62493911  0.66632330  1
  Pr  Pr66  1  0.00135042  0.87101239  0.33321331  1
  Pr  Pr67  1  0.82234217  0.12416176  0.16971826  1
  Pr  Pr68  1  0.49266325  0.12709730  0.83720913  1
  Pr  Pr69  1  0.15915364  0.62403572  0.83745821  1
  Pr  Pr70  1  0.82910830  0.12968487  0.50145781  1
  Pr  Pr71  1  0.33695251  0.37772994  0.33671604  1
  Mn  Mn72  1  0.00229681  0.00060860  0.16559314  1
  Mn  Mn73  1  -0.00189394  -0.00032274  0.50031149  1
  Mn  Mn74  1  -0.00019194  -0.00025208  0.83371527  1
  Mn  Mn75  1  0.00148856  0.50093835  0.16742341  1
  Mn  Mn76  1  -0.00099581  0.50128163  0.50163340  1
  Mn  Mn77  1  -0.00190295  0.49921654  0.83380689  1
  Mn  Mn78  1  0.33315826  0.00042621  0.16406340  1
  Mn  Mn79  1  0.33299644  -0.00022539  0.49809391  1
  Mn  Mn80  1  0.33242713  -0.00056339  0.83187564  1
  Mn  Mn81  1  0.33154595  0.50113826  0.17104371  1
  Mn  Mn82  1  0.33302014  0.50146806  0.50024000  1
  Mn  Mn83  1  0.33332940  0.49980971  0.83159081  1
  Mn  Mn84  1  0.66492209  0.00062980  0.16670905  1
  Mn  Mn85  1  0.66915369  0.00140107  0.49805457  1
  Mn  Mn86  1  0.66613962  0.00047746  0.83215836  1
  Mn  Mn87  1  0.66669913  0.49991159  0.16955013  1
  Mn  Mn88  1  0.66892502  0.50070811  0.50049386  1
  Mn  Mn89  1  0.66729995  0.49845220  0.83322626  1
  Mn  Mn90  1  -0.00058834  0.24807699  0.16605157  1
  Mn  Mn91  1  -0.00172311  0.24901431  0.50059704  1
  Mn  Mn92  1  -0.00369593  0.25111020  0.83325581  1
  Mn  Mn93  1  0.00528779  0.75031646  0.16639063  1
  Mn  Mn94  1  -0.00116880  0.75028882  0.50166981  1
  Mn  Mn95  1  0.00131346  0.74964733  0.83361277  1
  Mn  Mn96  1  0.33024527  0.24806432  0.16936103  1
  Mn  Mn97  1  0.33242164  0.24937900  0.49960298  1
  Mn  Mn98  1  0.33339564  0.24855353  0.83058918  1
  Mn  Mn99  1  0.33396600  0.75179520  0.16649541  1
  Mn  Mn100  1  0.33294167  0.74948550  0.49911485  1
  Mn  Mn101  1  0.33278047  0.75141598  0.83277229  1
  Mn  Mn102  1  0.66600979  0.24848964  0.16851479  1
  Mn  Mn103  1  0.66631927  0.24966141  0.49979579  1
  Mn  Mn104  1  0.66438119  0.25101600  0.83177793  1
  Mn  Mn105  1  0.66532761  0.75050183  0.16852466  1
  Mn  Mn106  1  0.67187343  0.74740000  0.50008413  1
  Mn  Mn107  1  0.66950409  0.74976922  0.83305988  1
  Mn  Mn108  1  0.16479115  0.24853201  0.00008862  1
  Mn  Mn109  1  0.16730631  0.24716927  0.33171049  1
  Mn  Mn110  1  0.16590776  0.24820350  0.66535511  1
  Mn  Mn111  1  0.16780219  0.75170529  -0.00329256  1
  Mn  Mn112  1  0.16558409  0.75265846  0.32960774  1
  Mn  Mn113  1  0.16766634  0.74960523  0.66625323  1
  Mn  Mn114  1  0.49648927  0.24908089  0.00221441  1
  Mn  Mn115  1  0.49554098  0.24859527  0.33609145  1
  Mn  Mn116  1  0.49950088  0.24993751  0.66807568  1
  Mn  Mn117  1  0.50061688  0.75150417  0.00140855  1
  Mn  Mn118  1  0.49981477  0.75051095  0.33248708  1
  Mn  Mn119  1  0.50233403  0.74859924  0.66877402  1
  Mn  Mn120  1  0.83477815  0.24995596  -0.00001015  1
  Mn  Mn121  1  0.83232094  0.24934637  0.33352770  1
  Mn  Mn122  1  0.83271149  0.25163149  0.66788566  1
  Mn  Mn123  1  0.83592220  0.74982118  -0.00074838  1
  Mn  Mn124  1  0.83558614  0.74978758  0.33737731  1
  Mn  Mn125  1  0.83623863  0.74775813  0.66512879  1
  Mn  Mn126  1  0.16696559  -0.00031085  -0.00421554  1
  Mn  Mn127  1  0.16441888  -0.00027423  0.32954424  1
  Mn  Mn128  1  0.16731948  0.00050064  0.66596813  1
  Mn  Mn129  1  0.16521543  0.50109879  0.00024560  1
  Mn  Mn130  1  0.16740953  0.50148855  0.33173978  1
  Mn  Mn131  1  0.16569057  0.50057158  0.66513924  1
  Mn  Mn132  1  0.49837801  -0.00061203  -0.00026937  1
  Mn  Mn133  1  0.49871218  0.00170331  0.33281418  1
  Mn  Mn134  1  0.50223117  0.00094597  0.66870662  1
  Mn  Mn135  1  0.49960943  0.50008131  0.00258881  1
  Mn  Mn136  1  0.49729536  0.49873138  0.33562005  1
  Mn  Mn137  1  0.50040822  0.50095399  0.66722173  1
  Mn  Mn138  1  0.83418807  -0.00080018  0.00033345  1
  Mn  Mn139  1  0.83371624  0.00100795  0.33469981  1
  Mn  Mn140  1  0.83463778  -0.00000201  0.66458928  1
  Mn  Mn141  1  0.83595090  0.49966545  0.00029438  1
  Mn  Mn142  1  0.83362665  0.49989867  0.33537586  1
  Mn  Mn143  1  0.83398114  0.50118615  0.66806685  1
  O  O144  1  0.17085783  0.12189308  0.02088695  1
  O  O145  1  0.17321546  0.12208266  0.35698074  1
  O  O146  1  0.17251802  0.12326291  0.69007673  1
  O  O147  1  0.16087499  0.62752423  0.01432106  1
  O  O148  1  0.17395362  0.63151669  0.35487401  1
  O  O149  1  0.17345875  0.62893376  0.69362561  1
  O  O150  1  0.49121892  0.12234260  0.02235365  1
  O  O151  1  0.50316584  0.12440088  0.36099420  1
  O  O152  1  0.49798535  0.12586014  0.69433186  1
  O  O153  1  0.49937639  0.62962526  0.01682908  1
  O  O154  1  0.50628083  0.62582753  0.34245305  1
  O  O155  1  0.51268040  0.62550218  0.68090447  1
  O  O156  1  0.84107126  0.12337725  0.02319358  1
  O  O157  1  0.84228425  0.12381720  0.35917840  1
  O  O158  1  0.84300816  0.12609462  0.69193463  1
  O  O159  1  0.84210250  0.62457183  0.01156532  1
  O  O160  1  0.84552473  0.62838853  0.35167305  1
  O  O161  1  0.83335137  0.62403584  0.69462276  1
  O  O162  1  0.17209479  0.36936369  0.30728221  1
  O  O163  1  0.15927369  0.37028324  0.65445055  1
  O  O164  1  0.15914327  0.37393878  0.98909330  1
  O  O165  1  0.15212373  0.87727238  0.30512745  1
  O  O166  1  0.15526236  0.87659699  0.65520044  1
  O  O167  1  0.15888453  0.87841418  0.96892619  1
  O  O168  1  0.48720994  0.37000991  0.30958787  1
  O  O169  1  0.49220983  0.37432833  0.64183012  1
  O  O170  1  0.49838725  0.37104008  0.98622092  1
  O  O171  1  0.49426929  0.87907374  0.31090864  1
  O  O172  1  0.49811382  0.87422245  0.65546093  1
  O  O173  1  0.49342965  0.87827385  0.97632400  1
  O  O174  1  0.83381149  0.36901196  0.30527447  1
  O  O175  1  0.82763685  0.37612681  0.64471347  1
  O  O176  1  0.84353602  0.37354473  0.98637897  1
  O  O177  1  0.83042529  0.87792527  0.32044528  1
  O  O178  1  0.83059407  0.87410967  0.64318677  1
  O  O179  1  0.82881403  0.87627238  0.99008938  1
  O  O180  1  -0.00475424  0.37222236  0.17804829  1
  O  O181  1  -0.00305923  0.37110785  0.52401903  1
  O  O182  1  -0.00249114  0.37308896  0.85905641  1
  O  O183  1  0.01019083  0.87940193  0.18922570  1
  O  O184  1  -0.00592711  0.87689077  0.52831720  1
  O  O185  1  0.00768213  0.87660550  0.85752896  1
  O  O186  1  0.32128812  0.37108647  0.19332606  1
  O  O187  1  0.33450081  0.37278011  0.52612860  1
  O  O188  1  0.33588422  0.37150257  0.84162567  1
  O  O189  1  0.32630498  0.87894638  0.19060580  1
  O  O190  1  0.33348525  0.87348806  0.52346608  1
  O  O191  1  0.32162124  0.87793496  0.85700961  1
  O  O192  1  0.66886390  0.37100648  0.17678238  1
  O  O193  1  0.66475886  0.37435195  0.52373503  1
  O  O194  1  0.66407631  0.37322163  0.84319317  1
  O  O195  1  0.66210497  0.87934280  0.19065774  1
  O  O196  1  0.67646594  0.87634021  0.52218271  1
  O  O197  1  0.66396089  0.87778226  0.85465685  1
  O  O198  1  0.00565646  0.12362172  0.13950686  1
  O  O199  1  -0.00479234  0.12344764  0.47726507  1
  O  O200  1  -0.00174433  0.12437804  0.81059118  1
  O  O201  1  0.00296778  0.62388297  0.14305844  1
  O  O202  1  0.00178753  0.62923893  0.47740608  1
  O  O203  1  0.00280077  0.62557920  0.81665727  1
  O  O204  1  0.33982333  0.12170849  0.13927060  1
  O  O205  1  0.34446255  0.12621126  0.47540975  1
  O  O206  1  0.34306525  0.12227488  0.80852304  1
  O  O207  1  0.33515034  0.62991535  0.15844694  1
  O  O208  1  0.32896020  0.62756834  0.47375754  1
  O  O209  1  0.32877863  0.62829725  0.80967791  1
  O  O210  1  0.66812123  0.12383463  0.15614741  1
  O  O211  1  0.67286272  0.12487365  0.47390433  1
  O  O212  1  0.66413883  0.12531214  0.82282044  1
  O  O213  1  0.66037721  0.62624758  0.16418651  1
  O  O214  1  0.67013543  0.62377051  0.47358272  1
  O  O215  1  0.67335434  0.62416103  0.81227947  1
  O  O216  1  0.07664856  0.02821419  0.25452098  1
  O  O217  1  0.07520517  0.02270479  0.58927149  1
  O  O218  1  0.07360213  0.02461866  0.92543695  1
  O  O219  1  0.08076941  0.51872365  0.25215376  1
  O  O220  1  0.08350938  0.51951466  0.58303089  1
  O  O221  1  0.07820334  0.51849406  0.91974684  1
  O  O222  1  0.40862605  0.02220635  0.25706618  1
  O  O223  1  0.41253255  0.01758359  0.59487602  1
  O  O224  1  0.40087997  0.01596099  0.92795001  1
  O  O225  1  0.40404971  0.51309009  0.26517776  1
  O  O226  1  0.40657000  0.51755111  0.59437751  1
  O  O227  1  0.41525350  0.50399767  0.91727196  1
  O  O228  1  0.74399818  0.02093731  0.26217114  1
  O  O229  1  0.75285820  0.01784669  0.57944273  1
  O  O230  1  0.74823318  0.01217539  0.91589306  1
  O  O231  1  0.74260101  0.51664733  0.26057910  1
  O  O232  1  0.74838153  0.51984075  0.58871716  1
  O  O233  1  0.75665756  0.51087348  0.91179939  1
  O  O234  1  0.24295616  0.21924566  0.24365820  1
  O  O235  1  0.24374684  0.22431014  0.57021418  1
  O  O236  1  0.24361343  0.22680224  0.90653459  1
  O  O237  1  0.24206001  0.74085253  0.23971553  1
  O  O238  1  0.24353194  0.72652547  0.57748217  1
  O  O239  1  0.23510384  0.73771149  0.89992151  1
  O  O240  1  0.57267306  0.22971672  0.25062297  1
  O  O241  1  0.57084121  0.23514116  0.57574044  1
  O  O242  1  0.57011785  0.23998528  0.90423257  1
  O  O243  1  0.57575476  0.74336742  0.24519194  1
  O  O244  1  0.59228990  0.74039431  0.58630942  1
  O  O245  1  0.58409850  0.74951112  0.91793590  1
  O  O246  1  0.91076709  0.22514540  0.24227574  1
  O  O247  1  0.91306844  0.23045948  0.58269477  1
  O  O248  1  0.91073493  0.22592367  0.91086909  1
  O  O249  1  0.92135503  0.74416164  0.25879380  1
  O  O250  1  0.91370521  0.73464851  0.58068830  1
  O  O251  1  0.91580132  0.73123342  0.91004969  1
  O  O252  1  0.08430271  0.48034930  0.08680159  1
  O  O253  1  0.08774322  0.49927403  0.41603227  1
  O  O254  1  0.07852663  0.48856990  0.74872981  1
  O  O255  1  0.09779821  0.98122395  0.08842962  1
  O  O256  1  0.08204921  0.99074945  0.41881008  1
  O  O257  1  0.09291085  0.98844418  0.76388595  1
  O  O258  1  0.42011791  0.48442255  0.09948871  1
  O  O259  1  0.42104349  0.47668697  0.42572545  1
  O  O260  1  0.42206470  0.48173948  0.75348286  1
  O  O261  1  0.42496792  0.97687408  0.09222968  1
  O  O262  1  0.41889427  0.98577309  0.41776766  1
  O  O263  1  0.42435107  0.97839260  0.76505676  1
  O  O264  1  0.75982688  0.48694513  0.09060546  1
  O  O265  1  0.75672102  0.48159139  0.42646843  1
  O  O266  1  0.74659213  0.48520807  0.74602670  1
  O  O267  1  0.75382563  0.99191484  0.08661505  1
  O  O268  1  0.75853958  0.98218354  0.42299249  1
  O  O269  1  0.75385839  0.98775014  0.74470367  1
  O  O270  1  0.24912477  0.25920701  0.08614352  1
  O  O271  1  0.26162073  0.26142106  0.40334551  1
  O  O272  1  0.26435198  0.25862729  0.73634557  1
  O  O273  1  0.25723684  0.77551067  0.07174658  1
  O  O274  1  0.25637365  0.77062165  0.40023498  1
  O  O275  1  0.26053326  0.77334081  0.73724125  1
  O  O276  1  0.58060594  0.25678183  0.08746860  1
  O  O277  1  0.58045707  0.26292358  0.41740714  1
  O  O278  1  0.58637622  0.27435975  0.73984197  1
  O  O279  1  0.58564364  0.77672103  0.08034328  1
  O  O280  1  0.59597856  0.76290602  0.40686927  1
  O  O281  1  0.58876299  0.77005718  0.74900603  1
  O  O282  1  0.92811983  0.26443530  0.07358348  1
  O  O283  1  0.91592395  0.26382608  0.41874184  1
  O  O284  1  0.92113395  0.27150795  0.74372038  1
  O  O285  1  0.93292380  0.76400587  0.07467551  1
  O  O286  1  0.91958619  0.77562609  0.41842444  1
  O  O287  1  0.92857718  0.76655943  0.74198031  1
  O  O288  1  0.24679405  0.48788965  0.08794383  1
  O  O289  1  0.25998354  0.48616849  0.40726910  1
  O  O290  1  0.25926502  0.48774461  0.73566424  1
  O  O291  1  0.25975520  0.97966981  0.06626606  1
  O  O292  1  0.25767148  0.98304431  0.39593343  1
  O  O293  1  0.26352547  0.98038980  0.73743271  1
  O  O294  1  0.58238078  0.48765772  0.08868981  1
  O  O295  1  0.58089004  0.48421143  0.42002499  1
  O  O296  1  0.58321915  0.47803764  0.74722872  1
  O  O297  1  0.58763335  0.97542196  0.07234819  1
  O  O298  1  0.59727487  0.98653844  0.40091951  1
  O  O299  1  0.59104939  0.97660044  0.74216025  1
  O  O300  1  0.92264983  0.48160770  0.08052853  1
  O  O301  1  0.91567552  0.48444228  0.42240052  1
  O  O302  1  0.91549255  0.48063913  0.75157790  1
  O  O303  1  0.93359973  0.98497693  0.07091779  1
  O  O304  1  0.92288548  0.97715994  0.41152320  1
  O  O305  1  0.93208949  0.98333317  0.73687727  1
  O  O306  1  0.08820314  0.26603584  0.09278424  1
  O  O307  1  0.08812044  0.25031234  0.41900750  1
  O  O308  1  0.08025021  0.25570530  0.75264530  1
  O  O309  1  0.09526673  0.77531487  0.08502347  1
  O  O310  1  0.07960424  0.76438251  0.41328255  1
  O  O311  1  0.09265432  0.76593566  0.75916408  1
  O  O312  1  0.42099819  0.26529604  0.10040046  1
  O  O313  1  0.42183828  0.27294872  0.42637263  1
  O  O314  1  0.42768358  0.26815845  0.75903293  1
  O  O315  1  0.42251145  0.77530261  0.09150321  1
  O  O316  1  0.41923239  0.76397804  0.41586906  1
  O  O317  1  0.42177123  0.77234387  0.76015478  1
  O  O318  1  0.76684874  0.25844127  0.09501705  1
  O  O319  1  0.75854892  0.26431094  0.42302097  1
  O  O320  1  0.75196337  0.26339776  0.74957627  1
  O  O321  1  0.74675483  0.76212967  0.08352348  1
  O  O322  1  0.75854501  0.77028816  0.42491513  1
  O  O323  1  0.74845173  0.76401021  0.74348328  1
  O  O324  1  0.23952741  0.01971137  0.23273623  1
  O  O325  1  0.24432736  0.02271162  0.56997584  1
  O  O326  1  0.23710736  0.02201780  0.89989296  1
  O  O327  1  0.24569994  0.51945754  0.24843703  1
  O  O328  1  0.24490236  0.52431784  0.57479095  1
  O  O329  1  0.24208895  0.51478793  0.90690033  1
  O  O330  1  0.56973747  0.02069688  0.24065558  1
  O  O331  1  0.57768507  0.01889729  0.56935688  1
  O  O332  1  0.56485186  0.01284510  0.90547036  1
  O  O333  1  0.57679374  0.50579453  0.25148949  1
  O  O334  1  0.58855588  0.50897124  0.58846988  1
  O  O335  1  0.58359596  0.50289176  0.91309540  1
  O  O336  1  0.91021234  0.02256553  0.24612022  1
  O  O337  1  0.91098316  0.02349552  0.57680935  1
  O  O338  1  0.91114143  0.02116606  0.90874755  1
  O  O339  1  0.91983186  0.51264038  0.25149056  1
  O  O340  1  0.91698829  0.50937489  0.58865183  1
  O  O341  1  0.91777253  0.52039752  0.91614828  1
  O  O342  1  0.07733794  0.22494523  0.25360845  1
  O  O343  1  0.07650197  0.22458664  0.58544733  1
  O  O344  1  0.07453931  0.22821943  0.92207679  1
  O  O345  1  0.07875209  0.72713319  0.25444074  1
  O  O346  1  0.08174520  0.73202996  0.58576137  1
  O  O347  1  0.07499949  0.73145083  0.92449677  1
  O  O348  1  0.40619010  0.22350109  0.26002145  1
  O  O349  1  0.40963387  0.22799081  0.59238557  1
  O  O350  1  0.40763489  0.22754197  0.92143331  1
  O  O351  1  0.40601538  0.74100561  0.25917771  1
  O  O352  1  0.40906948  0.73560482  0.59874235  1
  O  O353  1  0.40806435  0.74758349  0.92331448  1
  O  O354  1  0.74488811  0.22355593  0.25909069  1
  O  O355  1  0.75282972  0.23617645  0.58207329  1
  O  O356  1  0.75124742  0.23771286  0.91734933  1
  O  O357  1  0.74095535  0.73870148  0.26476916  1
  O  O358  1  0.74890966  0.72715847  0.58704954  1
  O  O359  1  0.75309294  0.73640131  0.91073473  1
