# generated using pymatgen
data_Ba17Sr5La8Pr42Mn72O216
_symmetry_space_group_name_H-M   'P 1'
_cell_length_a   16.67445605
_cell_length_b   15.70203204
_cell_length_c   16.81951872
_cell_angle_alpha   90.00110861
_cell_angle_beta   89.98916745
_cell_angle_gamma   90.01823414
_symmetry_Int_Tables_number   1
_chemical_formula_structural   Ba17Sr5La8Pr42Mn72O216
_chemical_formula_sum   'Ba17 Sr5 La8 Pr42 Mn72 O216'
_cell_volume   4403.73390848
_cell_formula_units_Z   1
loop_
 _symmetry_equiv_pos_site_id
 _symmetry_equiv_pos_as_xyz
  1  'x, y, z'
loop_
 _atom_site_type_symbol
 _atom_site_label
 _atom_site_symmetry_multiplicity
 _atom_site_fract_x
 _atom_site_fract_y
 _atom_site_fract_z
 _atom_site_occupancy
  Ba  Ba0  1  0.16619993  0.87567842  0.50214316  1
  Ba  Ba1  1  0.00116585  0.62535446  1.00077335  1
  Ba  Ba2  1  0.33432410  0.12426929  0.99729770  1
  Ba  Ba3  1  0.33120943  0.62569666  0.33303352  1
  Ba  Ba4  1  0.66620462  0.62378842  1.00068762  1
  Ba  Ba5  1  0.66820221  0.87525284  0.66858724  1
  Ba  Ba6  1  -0.00075337  0.87564642  0.00392679  1
  Ba  Ba7  1  0.49681251  0.37383611  0.49868642  1
  Ba  Ba8  1  0.49934486  0.37397185  0.16407639  1
  Ba  Ba9  1  0.66746454  0.62713301  0.33016369  1
  Ba  Ba10  1  -0.00113359  0.37320945  0.33757710  1
  Ba  Ba11  1  0.66697571  0.37435168  0.66519450  1
  Ba  Ba12  1  0.33059753  0.37686607  0.66733241  1
  Ba  Ba13  1  0.16803696  0.62737511  0.16795723  1
  Ba  Ba14  1  0.33652177  0.87690881  -0.00132789  1
  Ba  Ba15  1  0.16620452  0.62688599  0.50198697  1
  Ba  Ba16  1  0.66666836  0.12231921  0.33103103  1
  Sr  Sr17  1  0.16825528  0.87335117  0.16539683  1
  Sr  Sr18  1  0.33605983  0.62589087  0.66223445  1
  Sr  Sr19  1  0.66935021  0.87413927  0.33541688  1
  Sr  Sr20  1  0.49994384  0.87497489  0.82935005  1
  Sr  Sr21  1  0.83240535  0.87594826  0.16753813  1
  La  La22  1  0.83480160  0.87537758  0.49766711  1
  La  La23  1  0.33383553  0.12480535  0.32996153  1
  La  La24  1  0.33353620  0.12404907  0.66609400  1
  La  La25  1  0.16325664  0.12665740  0.50492151  1
  La  La26  1  -0.00134220  0.62670973  0.66720189  1
  La  La27  1  0.00141567  0.12175647  0.33570357  1
  La  La28  1  0.50056170  0.12400627  0.49842948  1
  La  La29  1  0.49984460  0.37587693  0.82567141  1
  Pr  Pr30  1  0.82783334  0.12658060  0.83642331  1
  Pr  Pr31  1  0.83190157  0.62417246  0.49957550  1
  Pr  Pr32  1  0.66270584  0.37523969  -0.00190664  1
  Pr  Pr33  1  0.00129010  0.37496477  0.66688191  1
  Pr  Pr34  1  0.83039179  0.12651763  0.50250168  1
  Pr  Pr35  1  0.49915379  0.62433887  0.50044945  1
  Pr  Pr36  1  0.66881991  0.87486547  0.00082754  1
  Pr  Pr37  1  0.66206855  0.12487574  0.65985115  1
  Pr  Pr38  1  0.50398866  0.62569033  0.82921172  1
  Pr  Pr39  1  0.32811693  0.37405948  -0.00005174  1
  Pr  Pr40  1  0.66157831  0.37520568  0.33923075  1
  Pr  Pr41  1  0.49853455  0.12106680  0.16622157  1
  Pr  Pr42  1  0.33410761  0.87240648  0.33068894  1
  Pr  Pr43  1  -0.00486092  0.12235634  0.66636986  1
  Pr  Pr44  1  0.16960130  0.87465085  0.83463254  1
  Pr  Pr45  1  0.00566301  0.87535793  0.67201296  1
  Pr  Pr46  1  0.33190427  0.86980290  0.67252693  1
  Pr  Pr47  1  0.00352735  0.62827473  0.32923511  1
  Pr  Pr48  1  0.32863012  0.37774013  0.33751970  1
  Pr  Pr49  1  0.33698767  0.62586554  0.99929848  1
  Pr  Pr50  1  0.83896180  0.87020540  0.83226358  1
  Pr  Pr51  1  0.49874258  0.62788353  0.16885983  1
  Pr  Pr52  1  -0.00061450  0.12277071  1.00086183  1
  Pr  Pr53  1  0.83762311  0.12096292  0.17057130  1
  Pr  Pr54  1  0.16718920  0.37758772  0.49804813  1
  Pr  Pr55  1  0.83803464  0.62968771  0.17079266  1
  Pr  Pr56  1  0.49922435  0.87342960  0.49594222  1
  Pr  Pr57  1  0.17266983  0.62376213  0.83854785  1
  Pr  Pr58  1  0.82928512  0.62557546  0.83766112  1
  Pr  Pr59  1  0.66462338  0.12705894  1.00111087  1
  Pr  Pr60  1  0.16603435  0.12538349  0.83931011  1
  Pr  Pr61  1  0.66270240  0.62509524  0.66238276  1
  Pr  Pr62  1  -0.00243399  0.37408856  0.00993704  1
  Pr  Pr63  1  0.16102964  0.37358928  0.83546329  1
  Pr  Pr64  1  0.82660642  0.37460170  0.16810152  1
  Pr  Pr65  1  0.16882489  0.11860530  0.16815711  1
  Pr  Pr66  1  0.50548202  0.87421499  0.16209475  1
  Pr  Pr67  1  0.83648046  0.38070543  0.83268006  1
  Pr  Pr68  1  0.16616129  0.37672336  0.16858510  1
  Pr  Pr69  1  0.82840735  0.37410003  0.49470766  1
  Pr  Pr70  1  0.00258682  0.87357226  0.33325837  1
  Pr  Pr71  1  0.50600341  0.12367486  0.83032726  1
  Mn  Mn72  1  0.00108207  0.00139907  0.16793571  1
  Mn  Mn73  1  -0.00247965  -0.00030899  0.50201077  1
  Mn  Mn74  1  -0.00072698  0.00247178  0.83455808  1
  Mn  Mn75  1  -0.00127327  0.49819385  0.16981718  1
  Mn  Mn76  1  -0.00296372  0.50121235  0.50232583  1
  Mn  Mn77  1  0.00095187  0.49893021  0.83376152  1
  Mn  Mn78  1  0.33460806  0.00011114  0.16640407  1
  Mn  Mn79  1  0.33332590  0.00012943  0.49916673  1
  Mn  Mn80  1  0.33350546  -0.00015825  0.83020117  1
  Mn  Mn81  1  0.33333807  0.49713726  0.16559144  1
  Mn  Mn82  1  0.33235858  0.50077729  0.50065535  1
  Mn  Mn83  1  0.33464605  0.50125950  0.83471239  1
  Mn  Mn84  1  0.66837369  -0.00143190  0.16477022  1
  Mn  Mn85  1  0.66702853  -0.00175851  0.49936200  1
  Mn  Mn86  1  0.66916799  0.00083941  0.83330691  1
  Mn  Mn87  1  0.66729649  0.49932244  0.16579310  1
  Mn  Mn88  1  0.66621243  0.50182527  0.49791826  1
  Mn  Mn89  1  0.66769275  0.49980629  0.83116740  1
  Mn  Mn90  1  0.00030687  0.24892545  0.16925591  1
  Mn  Mn91  1  -0.00220980  0.24876574  0.50398795  1
  Mn  Mn92  1  -0.00209171  0.24972017  0.83626229  1
  Mn  Mn93  1  0.00016794  0.75194843  0.16759550  1
  Mn  Mn94  1  -0.00238101  0.75015405  0.50095562  1
  Mn  Mn95  1  0.00212321  0.74992645  0.83292092  1
  Mn  Mn96  1  0.33265859  0.24938718  0.16629253  1
  Mn  Mn97  1  0.33050937  0.24722831  0.49739082  1
  Mn  Mn98  1  0.33282325  0.24950568  0.83208942  1
  Mn  Mn99  1  0.33540357  0.75190112  0.16488756  1
  Mn  Mn100  1  0.33447078  0.75258355  0.50130009  1
  Mn  Mn101  1  0.33453549  0.74767370  0.83230548  1
  Mn  Mn102  1  0.66711164  0.25014587  0.16535104  1
  Mn  Mn103  1  0.66605483  0.24883543  0.49822229  1
  Mn  Mn104  1  0.66771202  0.24924822  0.83253937  1
  Mn  Mn105  1  0.66885698  0.75185631  0.16544012  1
  Mn  Mn106  1  0.66727525  0.75043716  0.49948042  1
  Mn  Mn107  1  0.66800732  0.75102426  0.83257908  1
  Mn  Mn108  1  0.16470112  0.25056350  0.00222895  1
  Mn  Mn109  1  0.16681334  0.24643412  0.33532123  1
  Mn  Mn110  1  0.16402829  0.24865824  0.66988643  1
  Mn  Mn111  1  0.16911530  0.74997323  0.00066751  1
  Mn  Mn112  1  0.16614402  0.75368140  0.33354970  1
  Mn  Mn113  1  0.16629653  0.74968332  0.67079218  1
  Mn  Mn114  1  0.49993762  0.24952681  -0.00500832  1
  Mn  Mn115  1  0.49840848  0.24854576  0.32983121  1
  Mn  Mn116  1  0.49819083  0.24837571  0.66545427  1
  Mn  Mn117  1  0.50218361  0.75004057  -0.00280454  1
  Mn  Mn118  1  0.49966974  0.75206536  0.33119668  1
  Mn  Mn119  1  0.50002356  0.75044718  0.66427011  1
  Mn  Mn120  1  0.83208348  0.25018525  0.00138575  1
  Mn  Mn121  1  0.83316140  0.24768681  0.33306730  1
  Mn  Mn122  1  0.83456265  0.25113293  0.66944954  1
  Mn  Mn123  1  0.83274385  0.75049380  0.00115134  1
  Mn  Mn124  1  0.83517807  0.75263839  0.33410762  1
  Mn  Mn125  1  0.83492123  0.74878789  0.66673500  1
  Mn  Mn126  1  0.16623525  0.00002848  0.00170713  1
  Mn  Mn127  1  0.16751770  -0.00014710  0.33524097  1
  Mn  Mn128  1  0.16641439  0.00135128  0.67038289  1
  Mn  Mn129  1  0.16776801  0.49890671  0.00073194  1
  Mn  Mn130  1  0.16474572  0.49940954  0.33403819  1
  Mn  Mn131  1  0.16462453  0.49883295  0.66975486  1
  Mn  Mn132  1  0.50345578  0.00044888  -0.00329921  1
  Mn  Mn133  1  0.49930254  -0.00210537  0.33156922  1
  Mn  Mn134  1  0.49876299  0.00008281  0.66458447  1
  Mn  Mn135  1  0.49865480  0.50038894  -0.00410320  1
  Mn  Mn136  1  0.49876782  0.50062792  0.33064022  1
  Mn  Mn137  1  0.49934390  0.50079592  0.66558068  1
  Mn  Mn138  1  0.83125681  0.00282640  0.00074575  1
  Mn  Mn139  1  0.83517298  -0.00126643  0.33436965  1
  Mn  Mn140  1  0.83452493  0.00064111  0.66880638  1
  Mn  Mn141  1  0.83292049  0.49765833  0.00096180  1
  Mn  Mn142  1  0.83379073  0.50027539  0.33318584  1
  Mn  Mn143  1  0.83479562  0.50027119  0.66650164  1
  O  O144  1  0.16213830  0.12912838  0.02275965  1
  O  O145  1  0.17093004  0.12315610  0.36191564  1
  O  O146  1  0.16468186  0.12526348  0.69663693  1
  O  O147  1  0.17607108  0.62156927  0.00961261  1
  O  O148  1  0.15906198  0.62724167  0.34288932  1
  O  O149  1  0.15854560  0.62742359  0.69401315  1
  O  O150  1  0.50770811  0.12563183  0.02250332  1
  O  O151  1  0.49384280  0.12126522  0.35462413  1
  O  O152  1  0.50605014  0.12318689  0.68464553  1
  O  O153  1  0.49493921  0.62265581  0.02499945  1
  O  O154  1  0.49896148  0.62817672  0.35477608  1
  O  O155  1  0.50381325  0.62579083  0.68327999  1
  O  O156  1  0.82532947  0.12893249  0.02817516  1
  O  O157  1  0.83918195  0.12288439  0.35784651  1
  O  O158  1  0.83914024  0.12654642  0.69493157  1
  O  O159  1  0.83210646  0.61787198  0.02467910  1
  O  O160  1  0.84114223  0.62794056  0.35547852  1
  O  O161  1  0.83839731  0.62267201  0.69548226  1
  O  O162  1  0.16968227  0.36843561  0.31371661  1
  O  O163  1  0.15667340  0.36814910  0.64078839  1
  O  O164  1  0.16116736  0.37390711  0.97867888  1
  O  O165  1  0.15699222  0.88018138  0.31695115  1
  O  O166  1  0.16342688  0.87785657  0.65728322  1
  O  O167  1  0.16589158  0.87525916  0.97976243  1
  O  O168  1  0.50129605  0.37366992  0.32101838  1
  O  O169  1  0.49827282  0.37423512  0.66071317  1
  O  O170  1  0.50228752  0.37438542  0.97012226  1
  O  O171  1  0.49163859  0.87637807  0.30594250  1
  O  O172  1  0.49172498  0.87716846  0.64311401  1
  O  O173  1  0.50863511  0.87811693  0.97829977  1
  O  O174  1  0.82847207  0.37195994  0.31338423  1
  O  O175  1  0.84139835  0.37676960  0.63757189  1
  O  O176  1  0.84192688  0.37192965  0.97441141  1
  O  O177  1  0.83819410  0.87708673  0.31686970  1
  O  O178  1  0.84061968  0.87552545  0.64284967  1
  O  O179  1  0.82873665  0.88204244  0.97432309  1
  O  O180  1  0.00097959  0.37109386  0.18183987  1
  O  O181  1  -0.00325833  0.37377534  0.52389641  1
  O  O182  1  -0.00199873  0.37008117  0.86568397  1
  O  O183  1  -0.00188101  0.87965728  0.18846465  1
  O  O184  1  -0.00848883  0.87824264  0.52866437  1
  O  O185  1  -0.00644432  0.87726978  0.84723438  1
  O  O186  1  0.33061690  0.36928329  0.19233392  1
  O  O187  1  0.32606483  0.37152461  0.51039596  1
  O  O188  1  0.34717251  0.37805047  0.85540747  1
  O  O189  1  0.34530601  0.87898401  0.18546284  1
  O  O190  1  0.34226197  0.87974194  0.52788747  1
  O  O191  1  0.33521357  0.87419950  0.84069887  1
  O  O192  1  0.67263015  0.37257866  0.19446994  1
  O  O193  1  0.67341140  0.37537086  0.50811445  1
  O  O194  1  0.66263733  0.37206298  0.85392757  1
  O  O195  1  0.66115348  0.87653922  0.18544833  1
  O  O196  1  0.66772278  0.87431589  0.51265887  1
  O  O197  1  0.67067511  0.87858171  0.85569972  1
  O  O198  1  -0.00088298  0.12803122  0.14478533  1
  O  O199  1  -0.00304449  0.12327388  0.48044174  1
  O  O200  1  0.00027592  0.12822632  0.80769043  1
  O  O201  1  -0.00712544  0.62320316  0.15975759  1
  O  O202  1  -0.00857995  0.62420817  0.47451996  1
  O  O203  1  0.00277921  0.62574730  0.81031637  1
  O  O204  1  0.33004068  0.12632404  0.15312531  1
  O  O205  1  0.32685244  0.12273318  0.47367060  1
  O  O206  1  0.31934032  0.12262720  0.81218097  1
  O  O207  1  0.33917840  0.62325527  0.14454300  1
  O  O208  1  0.33890741  0.62723800  0.49112823  1
  O  O209  1  0.32199233  0.62366441  0.81306416  1
  O  O210  1  0.66931801  0.12535605  0.14375550  1
  O  O211  1  0.66983405  0.12381204  0.48962204  1
  O  O212  1  0.67390475  0.12562325  0.80432390  1
  O  O213  1  0.67056436  0.62636145  0.15523709  1
  O  O214  1  0.66863391  0.62599175  0.48702897  1
  O  O215  1  0.67457693  0.62530026  0.80951257  1
  O  O216  1  0.08478822  0.02496061  0.25323727  1
  O  O217  1  0.07809701  0.02002265  0.59156872  1
  O  O218  1  0.07770039  0.02427737  0.91983203  1
  O  O219  1  0.08082176  0.50863958  0.25503896  1
  O  O220  1  0.07146904  0.51400574  0.59127169  1
  O  O221  1  0.09506894  0.51226954  0.90929296  1
  O  O222  1  0.41347164  0.02203871  0.25287923  1
  O  O223  1  0.41561323  0.02832315  0.57900244  1
  O  O224  1  0.42296077  0.01637304  0.90580719  1
  O  O225  1  0.42223952  0.51563242  0.24032681  1
  O  O226  1  0.42144943  0.51538775  0.57983839  1
  O  O227  1  0.41919334  0.52958576  0.91213155  1
  O  O228  1  0.75716128  0.01392874  0.24377246  1
  O  O229  1  0.74871591  0.02172903  0.59331197  1
  O  O230  1  0.74720076  0.02776085  0.91988369  1
  O  O231  1  0.76237007  0.51282937  0.24121491  1
  O  O232  1  0.75172016  0.52133994  0.58476792  1
  O  O233  1  0.75328692  0.50759826  0.91273326  1
  O  O234  1  0.24866700  0.22713168  0.25457343  1
  O  O235  1  0.24679370  0.22560369  0.58544027  1
  O  O236  1  0.24650251  0.24414377  0.91687478  1
  O  O237  1  0.25258157  0.75487710  0.25125138  1
  O  O238  1  0.25487873  0.74494970  0.59431823  1
  O  O239  1  0.25417660  0.73259257  0.91591597  1
  O  O240  1  0.58032507  0.23218300  0.24171422  1
  O  O241  1  0.58308953  0.23144329  0.58279523  1
  O  O242  1  0.58669379  0.22463255  0.91404753  1
  O  O243  1  0.57808768  0.73946843  0.24138379  1
  O  O244  1  0.58341525  0.73061632  0.58214657  1
  O  O245  1  0.57968778  0.73308891  0.90930989  1
  O  O246  1  0.91980660  0.22662994  0.25495510  1
  O  O247  1  0.91629579  0.22604093  0.58850330  1
  O  O248  1  0.91540952  0.22237258  0.91957187  1
  O  O249  1  0.91930212  0.73385693  0.25569584  1
  O  O250  1  0.91013391  0.72597237  0.57867618  1
  O  O251  1  0.91206606  0.73572638  0.90727417  1
  O  O252  1  0.08114289  0.48031620  0.08291667  1
  O  O253  1  0.08471429  0.48398083  0.42621562  1
  O  O254  1  0.08075138  0.47259018  0.75109555  1
  O  O255  1  0.08592483  0.99473091  0.08980157  1
  O  O256  1  0.07863811  0.98986255  0.41575008  1
  O  O257  1  0.08895041  0.98289270  0.75952730  1
  O  O258  1  0.40635008  0.48195606  0.06914819  1
  O  O259  1  0.41067441  0.48664911  0.40773704  1
  O  O260  1  0.42056391  0.49380883  0.75483196  1
  O  O261  1  0.42835128  0.99180371  0.08948342  1
  O  O262  1  0.42013198  0.97790156  0.41721113  1
  O  O263  1  0.41150075  0.99145779  0.74005137  1
  O  O264  1  0.74827453  0.47076710  0.07945157  1
  O  O265  1  0.74827397  0.48267786  0.41184867  1
  O  O266  1  0.75817692  0.48250789  0.75339177  1
  O  O267  1  0.74766570  0.98049782  0.07954046  1
  O  O268  1  0.75735470  0.98681039  0.42347873  1
  O  O269  1  0.76426192  0.98425373  0.76206143  1
  O  O270  1  0.24512322  0.27399135  0.08677493  1
  O  O271  1  0.24563368  0.27013664  0.41855878  1
  O  O272  1  0.24076629  0.26798852  0.75683534  1
  O  O273  1  0.25473660  0.76031158  0.08315246  1
  O  O274  1  0.25404200  0.76741499  0.41527661  1
  O  O275  1  0.24613949  0.76897684  0.75599784  1
  O  O276  1  0.58884173  0.26533405  0.07161202  1
  O  O277  1  0.58250671  0.25918397  0.40982115  1
  O  O278  1  0.58040252  0.25851406  0.75663613  1
  O  O279  1  0.58671488  0.77009361  0.07935632  1
  O  O280  1  0.57766795  0.76877796  0.41592160  1
  O  O281  1  0.58316975  0.75650881  0.74879165  1
  O  O282  1  0.91253443  0.26804272  0.08444723  1
  O  O283  1  0.90622765  0.26165244  0.42703173  1
  O  O284  1  0.91817128  0.27595313  0.75235272  1
  O  O285  1  0.91108611  0.75876743  0.08984178  1
  O  O286  1  0.91811048  0.77484828  0.41677865  1
  O  O287  1  0.92332814  0.76833172  0.74223374  1
  O  O288  1  0.24593402  0.47273487  0.08665814  1
  O  O289  1  0.24599775  0.48184879  0.41730156  1
  O  O290  1  0.24105108  0.48198826  0.76700730  1
  O  O291  1  0.25039053  0.99138288  0.08747209  1
  O  O292  1  0.25831494  0.97989410  0.40930527  1
  O  O293  1  0.25230625  0.97885979  0.74586764  1
  O  O294  1  0.58513127  0.48247455  0.07333307  1
  O  O295  1  0.58396996  0.48851043  0.41151666  1
  O  O296  1  0.58359141  0.49388915  0.74891965  1
  O  O297  1  0.58947320  0.98175562  0.07725002  1
  O  O298  1  0.58002303  0.98168820  0.41322083  1
  O  O299  1  0.58303036  0.99210925  0.75181976  1
  O  O300  1  0.91339440  0.47672100  0.08675208  1
  O  O301  1  0.90618551  0.48328204  0.42721288  1
  O  O302  1  0.91967935  0.47634266  0.74641268  1
  O  O303  1  0.91360494  0.99818332  0.08478461  1
  O  O304  1  0.91936117  0.97893964  0.41640343  1
  O  O305  1  0.92529441  0.98362011  0.74252815  1
  O  O306  1  0.08169476  0.27025075  0.08316081  1
  O  O307  1  0.08735284  0.25991808  0.42690255  1
  O  O308  1  0.07960050  0.27359133  0.75473414  1
  O  O309  1  0.08409047  0.75922057  0.08755302  1
  O  O310  1  0.07684340  0.76414881  0.41531493  1
  O  O311  1  0.08380101  0.77332648  0.75279027  1
  O  O312  1  0.41157108  0.26537658  0.07014473  1
  O  O313  1  0.40663211  0.25884369  0.40383171  1
  O  O314  1  0.41238456  0.25003796  0.74519282  1
  O  O315  1  0.42563121  0.76321546  0.08593084  1
  O  O316  1  0.41609206  0.77558243  0.41340485  1
  O  O317  1  0.41248401  0.76054070  0.74246868  1
  O  O318  1  0.74852676  0.27790885  0.07951724  1
  O  O319  1  0.74777609  0.26656542  0.41213849  1
  O  O320  1  0.75894618  0.26834274  0.75861719  1
  O  O321  1  0.74713584  0.77091844  0.07995052  1
  O  O322  1  0.75676465  0.76403390  0.42126147  1
  O  O323  1  0.76134676  0.76522330  0.75689325  1
  O  O324  1  0.24833264  0.01635880  0.25025079  1
  O  O325  1  0.24606364  0.02225714  0.58392817  1
  O  O326  1  0.24081436  0.00980395  0.90751998  1
  O  O327  1  0.25057155  0.50022364  0.25068653  1
  O  O328  1  0.24584980  0.50830416  0.58932792  1
  O  O329  1  0.26169383  0.50966712  0.92726512  1
  O  O330  1  0.57500569  0.01379534  0.23866751  1
  O  O331  1  0.57994123  0.01712814  0.58046245  1
  O  O332  1  0.58689826  0.02648687  0.91431918  1
  O  O333  1  0.58115081  0.51389673  0.24478258  1
  O  O334  1  0.58354587  0.52000042  0.58175478  1
  O  O335  1  0.57730324  0.51503089  0.90707607  1
  O  O336  1  0.92129813  0.02202026  0.25318755  1
  O  O337  1  0.90998249  0.02537273  0.58075948  1
  O  O338  1  0.91233037  0.02643992  0.91465283  1
  O  O339  1  0.91876415  0.51859376  0.25640232  1
  O  O340  1  0.91377831  0.52632402  0.58419658  1
  O  O341  1  0.91298028  0.51500837  0.90985875  1
  O  O342  1  0.08757095  0.22375937  0.25325830  1
  O  O343  1  0.07939981  0.22422998  0.59103669  1
  O  O344  1  0.08113425  0.22687200  0.91757376  1
  O  O345  1  0.07663487  0.74348597  0.25640403  1
  O  O346  1  0.07433744  0.73822263  0.59205354  1
  O  O347  1  0.09137507  0.73819775  0.90865799  1
  O  O348  1  0.42009808  0.22667015  0.24419903  1
  O  O349  1  0.41498354  0.22602245  0.57552981  1
  O  O350  1  0.42604743  0.23134171  0.90472185  1
  O  O351  1  0.42014502  0.73421663  0.24531082  1
  O  O352  1  0.42586182  0.73582189  0.57398036  1
  O  O353  1  0.41802035  0.72651471  0.91258511  1
  O  O354  1  0.76097695  0.23323971  0.24090681  1
  O  O355  1  0.75264681  0.23006316  0.58673435  1
  O  O356  1  0.74822385  0.23072986  0.91934690  1
  O  O357  1  0.75874154  0.73980195  0.24469929  1
  O  O358  1  0.75004986  0.72794368  0.59046666  1
  O  O359  1  0.75323929  0.73746371  0.91362295  1
