# generated using pymatgen
data_Ba17Sr5La8Pr42Mn72O216
_symmetry_space_group_name_H-M   'P 1'
_cell_length_a   16.66659222
_cell_length_b   15.70202940
_cell_length_c   16.81417957
_cell_angle_alpha   90.00005859
_cell_angle_beta   90.01903836
_cell_angle_gamma   89.96897558
_symmetry_Int_Tables_number   1
_chemical_formula_structural   Ba17Sr5La8Pr42Mn72O216
_chemical_formula_sum   'Ba17 Sr5 La8 Pr42 Mn72 O216'
_cell_volume   4400.25848806
_cell_formula_units_Z   1
loop_
 _symmetry_equiv_pos_site_id
 _symmetry_equiv_pos_as_xyz
  1  'x, y, z'
loop_
 _atom_site_type_symbol
 _atom_site_label
 _atom_site_symmetry_multiplicity
 _atom_site_fract_x
 _atom_site_fract_y
 _atom_site_fract_z
 _atom_site_occupancy
  Ba  Ba0  1  0.66719624  0.87457776  0.66718303  1
  Ba  Ba1  1  0.83295970  0.12694985  0.50323684  1
  Ba  Ba2  1  0.83064833  0.12642259  0.83416153  1
  Ba  Ba3  1  0.83342927  0.37588539  0.16861565  1
  Ba  Ba4  1  0.66683666  0.12505250  0.66450241  1
  Ba  Ba5  1  0.66757794  0.87382413  0.33352070  1
  Ba  Ba6  1  0.16775739  0.87373067  0.83101155  1
  Ba  Ba7  1  0.33182756  0.12732502  0.66301886  1
  Ba  Ba8  1  0.33215817  0.37606156  0.00055172  1
  Ba  Ba9  1  0.33134402  0.12341599  0.33349919  1
  Ba  Ba10  1  -0.00003463  0.37732194  0.33569634  1
  Ba  Ba11  1  0.49685678  0.37580098  0.16362224  1
  Ba  Ba12  1  0.33170200  0.37513578  0.66679781  1
  Ba  Ba13  1  0.50205302  0.87447203  0.49949349  1
  Ba  Ba14  1  0.00174366  0.62451715  0.33325210  1
  Ba  Ba15  1  0.00253311  0.87517178  -0.00017535  1
  Ba  Ba16  1  0.00153485  0.87388283  0.66964947  1
  Sr  Sr17  1  0.50323194  0.87517159  0.16373190  1
  Sr  Sr18  1  0.66735440  0.62280447  0.99840202  1
  Sr  Sr19  1  0.67090406  0.87233672  0.00256092  1
  Sr  Sr20  1  0.49912837  0.12149169  0.50160190  1
  Sr  Sr21  1  0.50163174  0.62479046  0.83402589  1
  La  La22  1  0.66265756  0.37539725  0.33381184  1
  La  La23  1  0.50477009  0.87148169  0.82893993  1
  La  La24  1  0.66816478  0.62609153  0.33060843  1
  La  La25  1  0.33290410  0.12517349  0.99836018  1
  La  La26  1  0.82679653  0.37375602  0.49588031  1
  La  La27  1  0.83691817  0.87266374  0.16500115  1
  La  La28  1  0.17033033  0.87452269  0.50067403  1
  La  La29  1  0.83434843  0.62708054  0.83735329  1
  Pr  Pr30  1  0.66121117  0.12716108  0.99539480  1
  Pr  Pr31  1  0.33851935  0.87587989  0.33402630  1
  Pr  Pr32  1  0.49675454  0.36967299  0.49538532  1
  Pr  Pr33  1  0.66730232  0.62585405  0.66772103  1
  Pr  Pr34  1  0.33424426  0.62617363  0.66314686  1
  Pr  Pr35  1  -0.00321013  0.12583017  0.99861402  1
  Pr  Pr36  1  0.16496659  0.12465918  0.83345820  1
  Pr  Pr37  1  0.82555282  0.37533622  0.83551525  1
  Pr  Pr38  1  0.49762164  0.12354017  0.83101587  1
  Pr  Pr39  1  -0.00556763  0.12647879  0.33285488  1
  Pr  Pr40  1  0.49469055  0.12493995  0.16928519  1
  Pr  Pr41  1  0.17333430  0.87397522  0.16212994  1
  Pr  Pr42  1  0.83313049  0.62722881  0.16854019  1
  Pr  Pr43  1  0.50563551  0.62517288  0.16399427  1
  Pr  Pr44  1  0.00273808  0.87507330  0.33794144  1
  Pr  Pr45  1  0.83331341  0.87970186  0.49936110  1
  Pr  Pr46  1  0.33061612  0.37512100  0.33490963  1
  Pr  Pr47  1  0.00189834  0.62265843  1.00064573  1
  Pr  Pr48  1  0.65975376  0.12304052  0.33319145  1
  Pr  Pr49  1  0.83643159  0.87537875  0.83157423  1
  Pr  Pr50  1  0.33906865  0.87757406  0.66987609  1
  Pr  Pr51  1  0.16351027  0.12741186  0.50319167  1
  Pr  Pr52  1  0.16843696  0.37470264  0.49722727  1
  Pr  Pr53  1  0.16594391  0.62211511  0.50031211  1
  Pr  Pr54  1  0.83409705  0.62401508  0.50379354  1
  Pr  Pr55  1  0.66298397  0.37594503  0.00271056  1
  Pr  Pr56  1  0.50023310  0.37766468  0.83030180  1
  Pr  Pr57  1  0.82650745  0.12366677  0.16868259  1
  Pr  Pr58  1  0.33827154  0.87351162  -0.00039639  1
  Pr  Pr59  1  0.33714149  0.62901694  0.32835088  1
  Pr  Pr60  1  0.16453224  0.37488124  0.16551998  1
  Pr  Pr61  1  0.16304744  0.37534882  0.83154769  1
  Pr  Pr62  1  0.17079160  0.62500812  0.83429585  1
  Pr  Pr63  1  -0.00297114  0.37208591  0.00750456  1
  Pr  Pr64  1  0.66324251  0.37202754  0.66526947  1
  Pr  Pr65  1  -0.00516742  0.37663479  0.66949331  1
  Pr  Pr66  1  0.33843511  0.62433659  0.99678466  1
  Pr  Pr67  1  -0.00032762  0.12062316  0.66580518  1
  Pr  Pr68  1  0.16252410  0.12371617  0.16966871  1
  Pr  Pr69  1  0.50249590  0.62617870  0.50092159  1
  Pr  Pr70  1  0.00544214  0.62965416  0.66502023  1
  Pr  Pr71  1  0.16961665  0.62640074  0.16811442  1
  Mn  Mn72  1  0.00062065  0.00068814  0.16893498  1
  Mn  Mn73  1  0.00163790  -0.00134363  0.49989041  1
  Mn  Mn74  1  -0.00042566  0.00231860  0.83438965  1
  Mn  Mn75  1  0.00090331  0.50073933  0.16540804  1
  Mn  Mn76  1  0.00015862  0.50228429  0.50491239  1
  Mn  Mn77  1  -0.00069256  0.49887960  0.83576352  1
  Mn  Mn78  1  0.33343758  -0.00189183  0.16455906  1
  Mn  Mn79  1  0.33196847  -0.00153006  0.49925609  1
  Mn  Mn80  1  0.33387876  0.00130018  0.83362674  1
  Mn  Mn81  1  0.33198479  0.50299037  0.16612108  1
  Mn  Mn82  1  0.33355783  0.50155050  0.49691083  1
  Mn  Mn83  1  0.33375401  0.49962289  0.83261518  1
  Mn  Mn84  1  0.66626085  -0.00069258  0.16372182  1
  Mn  Mn85  1  0.66725915  -0.00042408  0.49908995  1
  Mn  Mn86  1  0.66550572  -0.00052546  0.83676339  1
  Mn  Mn87  1  0.66721970  0.50121852  0.16548066  1
  Mn  Mn88  1  0.66432011  0.50177154  0.50033423  1
  Mn  Mn89  1  0.66652019  0.49919547  0.83266318  1
  Mn  Mn90  1  -0.00013200  0.24789575  0.16704947  1
  Mn  Mn91  1  0.00101436  0.25134419  0.50328406  1
  Mn  Mn92  1  -0.00085283  0.25287601  0.83562458  1
  Mn  Mn93  1  0.00242861  0.75017624  0.16755670  1
  Mn  Mn94  1  0.00026179  0.75013941  0.50052816  1
  Mn  Mn95  1  0.00040776  0.74572775  0.83379216  1
  Mn  Mn96  1  0.32991114  0.24927976  0.16600631  1
  Mn  Mn97  1  0.33212068  0.25098781  0.49836534  1
  Mn  Mn98  1  0.33223203  0.24976488  0.83392423  1
  Mn  Mn99  1  0.33608285  0.75034831  0.16394352  1
  Mn  Mn100  1  0.33237163  0.74846276  0.49769587  1
  Mn  Mn101  1  0.33517798  0.74819525  0.83239109  1
  Mn  Mn102  1  0.66547981  0.24883075  0.16457803  1
  Mn  Mn103  1  0.66311306  0.25160809  0.49944599  1
  Mn  Mn104  1  0.66351997  0.25106429  0.83367248  1
  Mn  Mn105  1  0.66748347  0.74977707  0.16508333  1
  Mn  Mn106  1  0.66965799  0.74729912  0.49962333  1
  Mn  Mn107  1  0.66774734  0.74849184  0.83596777  1
  Mn  Mn108  1  0.16592816  0.24847102  0.00045226  1
  Mn  Mn109  1  0.16560675  0.24916990  0.33366509  1
  Mn  Mn110  1  0.16239265  0.25279382  0.66704582  1
  Mn  Mn111  1  0.16860938  0.74919148  0.00045330  1
  Mn  Mn112  1  0.16857322  0.75197965  0.33209151  1
  Mn  Mn113  1  0.17030651  0.74733146  0.66566885  1
  Mn  Mn114  1  0.49826930  0.24794828  -0.00100394  1
  Mn  Mn115  1  0.49815471  0.24999161  0.33088626  1
  Mn  Mn116  1  0.49938038  0.25200450  0.66447340  1
  Mn  Mn117  1  0.50253408  0.75064896  -0.00180342  1
  Mn  Mn118  1  0.50032556  0.74828256  0.33137844  1
  Mn  Mn119  1  0.50058074  0.74634435  0.66745475  1
  Mn  Mn120  1  0.83204579  0.25036488  0.00187467  1
  Mn  Mn121  1  0.83067468  0.24985970  0.33404745  1
  Mn  Mn122  1  0.83477145  0.25387238  0.66753755  1
  Mn  Mn123  1  0.83458935  0.74843183  0.00113612  1
  Mn  Mn124  1  0.83539072  0.74970617  0.33470218  1
  Mn  Mn125  1  0.83274361  0.74705399  0.66948109  1
  Mn  Mn126  1  0.16808040  0.00011240  0.00128005  1
  Mn  Mn127  1  0.16496338  -0.00161738  0.33316478  1
  Mn  Mn128  1  0.16779918  0.00052107  0.66599870  1
  Mn  Mn129  1  0.16607495  0.50103954  -0.00016669  1
  Mn  Mn130  1  0.16947849  0.50221513  0.33269778  1
  Mn  Mn131  1  0.16540592  0.49980896  0.66759474  1
  Mn  Mn132  1  0.50124741  -0.00100091  -0.00020857  1
  Mn  Mn133  1  0.50011414  0.00033192  0.33141320  1
  Mn  Mn134  1  0.50016490  -0.00022267  0.66654729  1
  Mn  Mn135  1  0.50045936  0.50219733  -0.00230903  1
  Mn  Mn136  1  0.49837707  0.50193389  0.33282469  1
  Mn  Mn137  1  0.50012209  0.50214611  0.66496142  1
  Mn  Mn138  1  0.83258665  -0.00023094  0.00223395  1
  Mn  Mn139  1  0.83332621  0.00211296  0.33208833  1
  Mn  Mn140  1  0.83397451  -0.00096049  0.66755909  1
  Mn  Mn141  1  0.83426206  0.50028538  0.00005601  1
  Mn  Mn142  1  0.83197319  0.50055172  0.33550751  1
  Mn  Mn143  1  0.83288043  0.49867443  0.66978249  1
  O  O144  1  0.16792222  0.12427783  0.02652894  1
  O  O145  1  0.16172509  0.11997585  0.35989299  1
  O  O146  1  0.16122451  0.13097356  0.68798602  1
  O  O147  1  0.16718606  0.62542630  0.02502453  1
  O  O148  1  0.17708885  0.62785323  0.35746646  1
  O  O149  1  0.17158357  0.62199970  0.68968865  1
  O  O150  1  0.50491505  0.12173502  0.02567605  1
  O  O151  1  0.50456710  0.12800858  0.34856899  1
  O  O152  1  0.49919770  0.12527179  0.68541783  1
  O  O153  1  0.49498501  0.62817944  0.01979228  1
  O  O154  1  0.49193710  0.62343821  0.35704848  1
  O  O155  1  0.49314955  0.62333591  0.68494095  1
  O  O156  1  0.83002105  0.12621801  0.02238589  1
  O  O157  1  0.83632898  0.12667360  0.34758385  1
  O  O158  1  0.83946343  0.13150186  0.67740692  1
  O  O159  1  0.83658420  0.62366030  0.02385257  1
  O  O160  1  0.82852777  0.62223377  0.35852127  1
  O  O161  1  0.82251156  0.61987528  0.69408276  1
  O  O162  1  0.17310786  0.37897909  0.30978804  1
  O  O163  1  0.15646686  0.37777703  0.64131321  1
  O  O164  1  0.15989268  0.37505425  0.97462248  1
  O  O165  1  0.16026878  0.87527587  0.30501465  1
  O  O166  1  0.17340542  0.86932912  0.64620219  1
  O  O167  1  0.17248796  0.87402538  0.98608957  1
  O  O168  1  0.50290314  0.37780790  0.31916041  1
  O  O169  1  0.50743523  0.38250200  0.63968218  1
  O  O170  1  0.50516002  0.37426148  0.97701444  1
  O  O171  1  0.49429020  0.87173563  0.31518480  1
  O  O172  1  0.49533343  0.86967733  0.65899313  1
  O  O173  1  0.49471317  0.87576035  0.97299559  1
  O  O174  1  0.82763055  0.37505259  0.32551336  1
  O  O175  1  0.84196182  0.37881639  0.64119312  1
  O  O176  1  0.84193502  0.37591660  0.97961682  1
  O  O177  1  0.83988916  0.87863095  0.30876687  1
  O  O178  1  0.83574675  0.86730914  0.64546573  1
  O  O179  1  0.83209759  0.87251092  0.97720116  1
  O  O180  1  0.00868270  0.37422019  0.17806722  1
  O  O181  1  0.00932439  0.38154013  0.52536605  1
  O  O182  1  0.01025658  0.37684437  0.86586122  1
  O  O183  1  -0.00270710  0.87849330  0.19319971  1
  O  O184  1  -0.00235326  0.87281082  0.51377176  1
  O  O185  1  -0.00721151  0.87128710  0.84379267  1
  O  O186  1  0.32606622  0.38029932  0.19017250  1
  O  O187  1  0.33337387  0.37875924  0.51073782  1
  O  O188  1  0.33294456  0.37539172  0.84598064  1
  O  O189  1  0.32931669  0.87349922  0.19035186  1
  O  O190  1  0.32656014  0.86817790  0.52530495  1
  O  O191  1  0.33855997  0.87648498  0.85584186  1
  O  O192  1  0.66399313  0.37605900  0.18955355  1
  O  O193  1  0.65619369  0.38242124  0.52140745  1
  O  O194  1  0.66137233  0.37516834  0.85851451  1
  O  O195  1  0.67141549  0.87374254  0.17885603  1
  O  O196  1  0.67385406  0.86896971  0.50866808  1
  O  O197  1  0.66067850  0.87581822  0.85203415  1
  O  O198  1  0.00950152  0.12400200  0.14239072  1
  O  O199  1  0.00804243  0.12068544  0.47599714  1
  O  O200  1  0.00423968  0.13271853  0.80948850  1
  O  O201  1  0.00406795  0.62332736  0.14495622  1
  O  O202  1  -0.00155505  0.62636283  0.48829223  1
  O  O203  1  -0.00624384  0.61860705  0.80787120  1
  O  O204  1  0.33026622  0.11942374  0.14508662  1
  O  O205  1  0.32562513  0.12799859  0.48944761  1
  O  O206  1  0.33263397  0.12533829  0.81885127  1
  O  O207  1  0.32465860  0.62874832  0.14036693  1
  O  O208  1  0.33058661  0.62464916  0.47082245  1
  O  O209  1  0.32805860  0.62172778  0.80802752  1
  O  O210  1  0.67031182  0.12399710  0.13883853  1
  O  O211  1  0.66492064  0.12918083  0.48062141  1
  O  O212  1  0.66114161  0.12855358  0.82146918  1
  O  O213  1  0.66921516  0.62540834  0.14842553  1
  O  O214  1  0.67478784  0.62125295  0.47570750  1
  O  O215  1  0.67638581  0.61884778  0.81076039  1
  O  O216  1  0.07413231  0.02302256  0.26029861  1
  O  O217  1  0.08299576  0.01950509  0.58372402  1
  O  O218  1  0.08188103  0.02328235  0.92161943  1
  O  O219  1  0.09543557  0.51452138  0.24065097  1
  O  O220  1  0.08543719  0.52716685  0.58526834  1
  O  O221  1  0.08785171  0.52703397  0.91128302  1
  O  O222  1  0.41812275  0.01307252  0.24345828  1
  O  O223  1  0.41214169  0.00284517  0.58696023  1
  O  O224  1  0.41512181  0.02314905  0.91927786  1
  O  O225  1  0.41822447  0.52563927  0.24477760  1
  O  O226  1  0.41760097  0.52322921  0.57609928  1
  O  O227  1  0.41644946  0.51736901  0.91514775  1
  O  O228  1  0.74509444  0.02391841  0.25311231  1
  O  O229  1  0.75364618  0.00209819  0.58318514  1
  O  O230  1  0.74003652  0.01355132  0.92795037  1
  O  O231  1  0.75109219  0.52119239  0.24782538  1
  O  O232  1  0.75102349  0.51631896  0.57636765  1
  O  O233  1  0.76007513  0.50922555  0.90770122  1
  O  O234  1  0.24009731  0.23509398  0.24480082  1
  O  O235  1  0.23859225  0.24481385  0.57493080  1
  O  O236  1  0.24740748  0.22893815  0.92018822  1
  O  O237  1  0.25350977  0.73224617  0.24978151  1
  O  O238  1  0.24921935  0.72187267  0.57801444  1
  O  O239  1  0.24989850  0.72720013  0.91419231  1
  O  O240  1  0.58218551  0.22686279  0.24568122  1
  O  O241  1  0.57911520  0.24260540  0.57790224  1
  O  O242  1  0.57545138  0.22947600  0.91192546  1
  O  O243  1  0.58323922  0.72720071  0.24814211  1
  O  O244  1  0.58377690  0.72608631  0.58205202  1
  O  O245  1  0.58221214  0.73516879  0.91512343  1
  O  O246  1  0.91662090  0.22960558  0.24703013  1
  O  O247  1  0.92645976  0.24133338  0.59555192  1
  O  O248  1  0.92283555  0.23652359  0.92318844  1
  O  O249  1  0.91075873  0.73376692  0.24494462  1
  O  O250  1  0.91320854  0.72426721  0.58774663  1
  O  O251  1  0.91871716  0.72577905  0.91990496  1
  O  O252  1  0.07866827  0.48270259  0.07446295  1
  O  O253  1  0.08998152  0.49140132  0.42211567  1
  O  O254  1  0.07581739  0.47923987  0.74959224  1
  O  O255  1  0.09416985  0.98521537  0.09837387  1
  O  O256  1  0.08805303  0.97386497  0.42000462  1
  O  O257  1  0.08639912  0.99859513  0.75275955  1
  O  O258  1  0.41115187  0.49875108  0.08130188  1
  O  O259  1  0.41215222  0.47994679  0.41063282  1
  O  O260  1  0.41977602  0.48490784  0.75197968  1
  O  O261  1  0.41761995  0.98075314  0.07897448  1
  O  O262  1  0.41209760  0.98568775  0.41305246  1
  O  O263  1  0.41961765  0.98195263  0.75567203  1
  O  O264  1  0.74578544  0.48345416  0.07214554  1
  O  O265  1  0.73773374  0.47791734  0.41651223  1
  O  O266  1  0.74551849  0.47011053  0.74506732  1
  O  O267  1  0.75994752  0.98406566  0.09420898  1
  O  O268  1  0.75934283  0.98707875  0.41957301  1
  O  O269  1  0.75401060  0.98419473  0.76101785  1
  O  O270  1  0.24244632  0.26561320  0.08669965  1
  O  O271  1  0.25164445  0.27178087  0.41216954  1
  O  O272  1  0.23802295  0.26462553  0.75586753  1
  O  O273  1  0.25547822  0.77099384  0.08167325  1
  O  O274  1  0.25015783  0.77659148  0.41280355  1
  O  O275  1  0.26076778  0.76155672  0.73942620  1
  O  O276  1  0.58866553  0.26347573  0.07368531  1
  O  O277  1  0.58236626  0.27080370  0.41308707  1
  O  O278  1  0.58434937  0.27518388  0.74797136  1
  O  O279  1  0.58182399  0.75982105  0.08381229  1
  O  O280  1  0.58629317  0.74693356  0.41537479  1
  O  O281  1  0.58590128  0.75173658  0.75145267  1
  O  O282  1  0.92207115  0.25776392  0.08179384  1
  O  O283  1  0.91555223  0.26505976  0.42658112  1
  O  O284  1  0.91464977  0.27926903  0.75907924  1
  O  O285  1  0.91654847  0.76249341  0.08566231  1
  O  O286  1  0.91970440  0.77112034  0.41288063  1
  O  O287  1  0.91255518  0.75606939  0.75509299  1
  O  O288  1  0.23785300  0.48629121  0.09443732  1
  O  O289  1  0.24905833  0.47848803  0.41690737  1
  O  O290  1  0.23886816  0.48471331  0.75907766  1
  O  O291  1  0.25708793  0.97793951  0.07713518  1
  O  O292  1  0.25139781  0.97365223  0.40883118  1
  O  O293  1  0.25805547  0.98501954  0.74190146  1
  O  O294  1  0.58337756  0.49062998  0.08067201  1
  O  O295  1  0.57624524  0.48834149  0.42608450  1
  O  O296  1  0.58460752  0.48050217  0.74941566  1
  O  O297  1  0.58828462  0.98390629  0.07714049  1
  O  O298  1  0.58774587  0.99740911  0.41070739  1
  O  O299  1  0.57843925  0.98943901  0.75698260  1
  O  O300  1  0.91977982  0.48811129  0.07928588  1
  O  O301  1  0.90725093  0.48895282  0.43278014  1
  O  O302  1  0.91184125  0.47322757  0.76227271  1
  O  O303  1  0.91871674  0.98981753  0.08750837  1
  O  O304  1  0.92308336  0.98274540  0.41120581  1
  O  O305  1  0.91390232  0.98922999  0.75372891  1
  O  O306  1  0.08360427  0.26780880  0.08208551  1
  O  O307  1  0.09164949  0.26593822  0.42457295  1
  O  O308  1  0.07790702  0.27735810  0.75010311  1
  O  O309  1  0.09205763  0.76281933  0.08983019  1
  O  O310  1  0.08813426  0.76884375  0.41494950  1
  O  O311  1  0.08686062  0.74738910  0.75115425  1
  O  O312  1  0.41512757  0.25125550  0.08163082  1
  O  O313  1  0.41548322  0.26997572  0.41260678  1
  O  O314  1  0.42544445  0.26495173  0.75552410  1
  O  O315  1  0.41551219  0.76939850  0.07961292  1
  O  O316  1  0.40925736  0.76277201  0.40828595  1
  O  O317  1  0.41803051  0.76595393  0.75190541  1
  O  O318  1  0.74646753  0.26752593  0.08187229  1
  O  O319  1  0.74240232  0.27093668  0.41686352  1
  O  O320  1  0.74968366  0.27444560  0.75020480  1
  O  O321  1  0.75775582  0.76221237  0.09023100  1
  O  O322  1  0.76380732  0.76129822  0.42794292  1
  O  O323  1  0.75678239  0.76581246  0.75883251  1
  O  O324  1  0.23702145  0.01156326  0.24005966  1
  O  O325  1  0.23952652  0.01090395  0.57149358  1
  O  O326  1  0.24760385  0.02132298  0.91251503  1
  O  O327  1  0.25639852  0.52536599  0.25475127  1
  O  O328  1  0.25226955  0.52130886  0.58082893  1
  O  O329  1  0.25234126  0.52214476  0.92211922  1
  O  O330  1  0.58186742  0.02176830  0.24308518  1
  O  O331  1  0.57985871  0.00810892  0.58127837  1
  O  O332  1  0.57777843  0.02308825  0.91493650  1
  O  O333  1  0.58364839  0.52314483  0.25530773  1
  O  O334  1  0.58848295  0.53049538  0.58391381  1
  O  O335  1  0.58665813  0.51364703  0.91465153  1
  O  O336  1  0.91299766  0.02540249  0.24590513  1
  O  O337  1  0.92275256  0.01182656  0.58491931  1
  O  O338  1  0.91882399  0.01702654  0.92210946  1
  O  O339  1  0.91657297  0.51553707  0.24490900  1
  O  O340  1  0.92153309  0.52253277  0.59672434  1
  O  O341  1  0.92257214  0.52193993  0.92157144  1
  O  O342  1  0.07967875  0.22729556  0.25348184  1
  O  O343  1  0.08059390  0.22560110  0.58601602  1
  O  O344  1  0.08528028  0.22476116  0.91638294  1
  O  O345  1  0.09078608  0.73388725  0.24782649  1
  O  O346  1  0.08767711  0.72930063  0.58346359  1
  O  O347  1  0.08278231  0.72524212  0.91769391  1
  O  O348  1  0.41741922  0.23655933  0.24650140  1
  O  O349  1  0.41778899  0.24627246  0.57759728  1
  O  O350  1  0.41657272  0.22710947  0.91938494  1
  O  O351  1  0.41904445  0.72539548  0.24234175  1
  O  O352  1  0.41462703  0.72668915  0.58042751  1
  O  O353  1  0.41222991  0.73182146  0.91889259  1
  O  O354  1  0.74454373  0.22805316  0.24884617  1
  O  O355  1  0.74813586  0.25617374  0.58186528  1
  O  O356  1  0.74136573  0.24396081  0.92264316  1
  O  O357  1  0.75017428  0.72977626  0.25449427  1
  O  O358  1  0.74844383  0.72357409  0.58880230  1
  O  O359  1  0.75334599  0.73122342  0.91818942  1
