# generated using pymatgen
data_Ba17Sr5La8Pr42Mn72O216
_symmetry_space_group_name_H-M   'P 1'
_cell_length_a   16.67545254
_cell_length_b   15.70447319
_cell_length_c   16.81861735
_cell_angle_alpha   90.00148858
_cell_angle_beta   90.00564098
_cell_angle_gamma   89.98767404
_symmetry_Int_Tables_number   1
_chemical_formula_structural   Ba17Sr5La8Pr42Mn72O216
_chemical_formula_sum   'Ba17 Sr5 La8 Pr42 Mn72 O216'
_cell_volume   4404.44588802
_cell_formula_units_Z   1
loop_
 _symmetry_equiv_pos_site_id
 _symmetry_equiv_pos_as_xyz
  1  'x, y, z'
loop_
 _atom_site_type_symbol
 _atom_site_label
 _atom_site_symmetry_multiplicity
 _atom_site_fract_x
 _atom_site_fract_y
 _atom_site_fract_z
 _atom_site_occupancy
  Ba  Ba0  1  0.83544981  0.12536430  0.83651457  1
  Ba  Ba1  1  0.66376953  0.62519549  0.33074238  1
  Ba  Ba2  1  0.33007706  0.12562951  0.33014906  1
  Ba  Ba3  1  0.50303783  0.87452335  0.82989593  1
  Ba  Ba4  1  0.33594161  0.37513586  0.66853114  1
  Ba  Ba5  1  0.66770082  0.12682733  0.99828748  1
  Ba  Ba6  1  0.83343526  0.12549593  0.16798409  1
  Ba  Ba7  1  0.83108331  0.62375514  0.17015065  1
  Ba  Ba8  1  0.66613165  0.12449028  0.33067211  1
  Ba  Ba9  1  0.49891668  0.12366981  0.16566867  1
  Ba  Ba10  1  0.33329416  0.37474927  0.33505162  1
  Ba  Ba11  1  -0.00261433  0.37578437  0.33746146  1
  Ba  Ba12  1  0.00265686  0.87616688  0.00235632  1
  Ba  Ba13  1  -0.00427970  0.62531602  0.33721080  1
  Ba  Ba14  1  0.83928352  0.87645654  0.83422390  1
  Ba  Ba15  1  0.49921484  0.87455077  0.16136795  1
  Ba  Ba16  1  0.32817606  0.62561003  0.33275386  1
  Sr  Sr17  1  0.00155610  0.12630150  0.99960564  1
  Sr  Sr18  1  0.83449048  0.37475955  0.49747997  1
  Sr  Sr19  1  0.32759918  0.62571750  0.66273407  1
  Sr  Sr20  1  0.50602420  0.37450122  0.82730958  1
  Sr  Sr21  1  0.83312766  0.37572242  0.17202815  1
  La  La22  1  0.00308089  0.37189715  0.00838562  1
  La  La23  1  0.83074565  0.13045582  0.50392592  1
  La  La24  1  0.48762908  0.62372236  0.49986242  1
  La  La25  1  0.67336386  0.37564497  0.66605061  1
  La  La26  1  0.67211745  0.37293027  0.00000395  1
  La  La27  1  0.83626960  0.87449880  0.50187567  1
  La  La28  1  0.65923277  0.62483198  0.99706157  1
  La  La29  1  -0.00614196  0.62638401  0.66448397  1
  Pr  Pr30  1  0.17097675  0.87365339  0.49793465  1
  Pr  Pr31  1  0.50233545  0.12973237  0.83572919  1
  Pr  Pr32  1  0.49376957  0.12562124  0.49777234  1
  Pr  Pr33  1  -0.00299515  0.12656657  0.33330586  1
  Pr  Pr34  1  0.66489236  0.12360726  0.66345081  1
  Pr  Pr35  1  0.00301910  0.37360480  0.66918884  1
  Pr  Pr36  1  0.16392432  0.62340399  0.83440962  1
  Pr  Pr37  1  0.33605077  0.87480672  0.00100311  1
  Pr  Pr38  1  -0.00219888  0.87528010  0.33354244  1
  Pr  Pr39  1  0.33727981  0.12205384  0.66426862  1
  Pr  Pr40  1  0.48850051  0.62231187  0.82974035  1
  Pr  Pr41  1  0.16972662  0.37350463  0.83390039  1
  Pr  Pr42  1  0.50078892  0.37320037  0.16696130  1
  Pr  Pr43  1  0.33908667  0.87657097  0.33212538  1
  Pr  Pr44  1  0.67107939  0.37293430  0.33189316  1
  Pr  Pr45  1  0.16992171  0.37721441  0.16992663  1
  Pr  Pr46  1  0.84107797  0.37130684  0.83491982  1
  Pr  Pr47  1  0.50352569  0.37650625  0.49342680  1
  Pr  Pr48  1  0.82715947  0.61759449  0.49998553  1
  Pr  Pr49  1  -0.00887143  0.62402195  1.00108709  1
  Pr  Pr50  1  0.65762970  0.62684637  0.65898746  1
  Pr  Pr51  1  0.17155416  0.12721661  0.83984147  1
  Pr  Pr52  1  0.17126092  0.87690634  0.83248195  1
  Pr  Pr53  1  0.16794967  0.37593030  0.49710523  1
  Pr  Pr54  1  0.33750050  0.12336464  0.99919485  1
  Pr  Pr55  1  0.32843037  0.62857561  0.99774569  1
  Pr  Pr56  1  0.16160579  0.12451852  0.16902859  1
  Pr  Pr57  1  0.66855534  0.87766230  0.32758622  1
  Pr  Pr58  1  0.67498599  0.87854292  0.00024310  1
  Pr  Pr59  1  0.33867445  0.37555640  0.00213963  1
  Pr  Pr60  1  0.00661197  0.87452840  0.67637234  1
  Pr  Pr61  1  0.16957221  0.87322026  0.16529991  1
  Pr  Pr62  1  0.82971814  0.87240795  0.16597939  1
  Pr  Pr63  1  0.49298058  0.62457150  0.16756828  1
  Pr  Pr64  1  0.50469610  0.87166176  0.49436271  1
  Pr  Pr65  1  0.82546280  0.62527739  0.83797096  1
  Pr  Pr66  1  0.67818603  0.87404083  0.67098159  1
  Pr  Pr67  1  0.34004784  0.87270405  0.66887047  1
  Pr  Pr68  1  0.15902045  0.62522261  0.17086490  1
  Pr  Pr69  1  0.16557197  0.12935079  0.50290736  1
  Pr  Pr70  1  0.00210417  0.12228693  0.66986810  1
  Pr  Pr71  1  0.16076067  0.61801982  0.50334782  1
  Mn  Mn72  1  0.00090117  0.00064651  0.16979542  1
  Mn  Mn73  1  0.00032903  -0.00085102  0.50287739  1
  Mn  Mn74  1  0.00556770  0.00117394  0.83566930  1
  Mn  Mn75  1  0.00115720  0.49781105  0.16769225  1
  Mn  Mn76  1  -0.00287213  0.49999256  0.50561352  1
  Mn  Mn77  1  0.00177869  0.50023143  0.83488574  1
  Mn  Mn78  1  0.32983911  -0.00063977  0.16490849  1
  Mn  Mn79  1  0.33243951  -0.00060577  0.50071599  1
  Mn  Mn80  1  0.33477138  0.00025220  0.83090163  1
  Mn  Mn81  1  0.33236646  0.49955121  0.16389643  1
  Mn  Mn82  1  0.33092557  0.49989743  0.50228503  1
  Mn  Mn83  1  0.33229647  0.50111984  0.83368456  1
  Mn  Mn84  1  0.66661747  -0.00081285  0.16515566  1
  Mn  Mn85  1  0.66640444  -0.00132829  0.50017335  1
  Mn  Mn86  1  0.66815567  -0.00065619  0.83083498  1
  Mn  Mn87  1  0.66422684  0.49813198  0.16371092  1
  Mn  Mn88  1  0.66458784  0.50036827  0.49942711  1
  Mn  Mn89  1  0.66644780  0.50093001  0.82983888  1
  Mn  Mn90  1  0.00071805  0.24985428  0.16892046  1
  Mn  Mn91  1  0.00009844  0.24709071  0.50416081  1
  Mn  Mn92  1  0.00472505  0.25171794  0.83705129  1
  Mn  Mn93  1  0.00079825  0.75079729  0.16828431  1
  Mn  Mn94  1  -0.00164642  0.75291126  0.50477315  1
  Mn  Mn95  1  0.00350758  0.74710254  0.83354745  1
  Mn  Mn96  1  0.33132797  0.25209504  0.16491925  1
  Mn  Mn97  1  0.33318814  0.24860851  0.50230156  1
  Mn  Mn98  1  0.33513077  0.25051545  0.83362102  1
  Mn  Mn99  1  0.33057368  0.74873247  0.16393800  1
  Mn  Mn100  1  0.32912368  0.75162527  0.50043332  1
  Mn  Mn101  1  0.33214757  0.74886553  0.83078708  1
  Mn  Mn102  1  0.66650303  0.25236417  0.16676374  1
  Mn  Mn103  1  0.66504455  0.24936368  0.50002467  1
  Mn  Mn104  1  0.66850473  0.25391097  0.83032773  1
  Mn  Mn105  1  0.66408440  0.74897033  0.16268589  1
  Mn  Mn106  1  0.66610997  0.75213769  0.49932841  1
  Mn  Mn107  1  0.66628541  0.74704782  0.82980374  1
  Mn  Mn108  1  0.17053066  0.25095393  0.00198772  1
  Mn  Mn109  1  0.16413250  0.24879807  0.33590302  1
  Mn  Mn110  1  0.16730746  0.24848419  0.66968989  1
  Mn  Mn111  1  0.16651760  0.74789695  0.00006006  1
  Mn  Mn112  1  0.16439957  0.75223508  0.33411740  1
  Mn  Mn113  1  0.16634736  0.75073907  0.66727076  1
  Mn  Mn114  1  0.49979100  0.25304632  -0.00414931  1
  Mn  Mn115  1  0.50000097  0.25109262  0.33198688  1
  Mn  Mn116  1  0.50246659  0.24900596  0.66515844  1
  Mn  Mn117  1  0.49970643  0.74816162  -0.00460009  1
  Mn  Mn118  1  0.49901989  0.74975087  0.33104128  1
  Mn  Mn119  1  0.49963256  0.75024661  0.66235956  1
  Mn  Mn120  1  0.83637773  0.25196342  0.00142061  1
  Mn  Mn121  1  0.83262032  0.25050287  0.33711170  1
  Mn  Mn122  1  0.83495198  0.25157102  0.66792082  1
  Mn  Mn123  1  0.83276305  0.74785934  0.00077230  1
  Mn  Mn124  1  0.83235709  0.75329253  0.33479730  1
  Mn  Mn125  1  0.83414735  0.74760195  0.66695184  1
  Mn  Mn126  1  0.16955392  0.00037061  0.00119215  1
  Mn  Mn127  1  0.16389311  -0.00181556  0.33409105  1
  Mn  Mn128  1  0.16848694  0.00088107  0.66740008  1
  Mn  Mn129  1  0.16741408  0.50128424  0.00097922  1
  Mn  Mn130  1  0.16424549  0.50105012  0.33511692  1
  Mn  Mn131  1  0.16505803  0.49837120  0.66973962  1
  Mn  Mn132  1  0.50067644  0.00046517  -0.00520201  1
  Mn  Mn133  1  0.49944533  -0.00288382  0.33283361  1
  Mn  Mn134  1  0.50271379  0.00038103  0.66349544  1
  Mn  Mn135  1  0.49881321  0.49941738  -0.00335000  1
  Mn  Mn136  1  0.49918638  0.50084705  0.33094091  1
  Mn  Mn137  1  0.50028346  0.49974208  0.66447150  1
  Mn  Mn138  1  0.83622793  0.00003160  0.00144337  1
  Mn  Mn139  1  0.83389212  -0.00254914  0.33596007  1
  Mn  Mn140  1  0.83593774  0.00305615  0.66547145  1
  Mn  Mn141  1  0.83304761  0.50021570  -0.00013074  1
  Mn  Mn142  1  0.83098878  0.49873561  0.33540353  1
  Mn  Mn143  1  0.83412908  0.49769536  0.67051055  1
  O  O144  1  0.17793773  0.12874316  0.02560592  1
  O  O145  1  0.15990537  0.12024793  0.35988306  1
  O  O146  1  0.16522675  0.12405561  0.69662694  1
  O  O147  1  0.17623467  0.62436048  0.02871993  1
  O  O148  1  0.16440222  0.62993808  0.35922551  1
  O  O149  1  0.16283966  0.62599738  0.68927893  1
  O  O150  1  0.49683111  0.12680401  0.00772808  1
  O  O151  1  0.49918237  0.12045931  0.35306564  1
  O  O152  1  0.50236883  0.12253590  0.69156399  1
  O  O153  1  0.50386497  0.62107788  0.02366117  1
  O  O154  1  0.49898984  0.62710346  0.35442686  1
  O  O155  1  0.50663054  0.62490486  0.68557793  1
  O  O156  1  0.83815440  0.12586332  0.00954496  1
  O  O157  1  0.83570592  0.11993685  0.35775762  1
  O  O158  1  0.82344902  0.12770332  0.67927909  1
  O  O159  1  0.83560811  0.62357001  0.01272775  1
  O  O160  1  0.82913256  0.63034096  0.35532360  1
  O  O161  1  0.83696541  0.61812862  0.69517458  1
  O  O162  1  0.16444880  0.37427971  0.31797810  1
  O  O163  1  0.16040727  0.36979840  0.64103409  1
  O  O164  1  0.16321442  0.37808421  0.97477759  1
  O  O165  1  0.15889666  0.87603709  0.30909808  1
  O  O166  1  0.16339862  0.87873660  0.64162043  1
  O  O167  1  0.17108327  0.87035461  0.97423466  1
  O  O168  1  0.50278925  0.37895765  0.31393231  1
  O  O169  1  0.50721614  0.37512802  0.63887538  1
  O  O170  1  0.48935952  0.37826955  0.97388908  1
  O  O171  1  0.49436540  0.87209979  0.32130446  1
  O  O172  1  0.49506084  0.87711836  0.63927814  1
  O  O173  1  0.48995068  0.87512343  0.98473422  1
  O  O174  1  0.82996374  0.37428374  0.32751699  1
  O  O175  1  0.84085997  0.37491842  0.64627445  1
  O  O176  1  0.83740354  0.38068642  0.97866333  1
  O  O177  1  0.83887830  0.87596976  0.31354032  1
  O  O178  1  0.83920410  0.87903021  0.64713885  1
  O  O179  1  0.82919898  0.87020997  0.99145192  1
  O  O180  1  0.01179420  0.37361968  0.17856114  1
  O  O181  1  0.00095779  0.37225890  0.52607238  1
  O  O182  1  0.00315820  0.38000909  0.86247287  1
  O  O183  1  0.00960504  0.87750044  0.18872425  1
  O  O184  1  -0.00866430  0.87782658  0.53429079  1
  O  O185  1  0.00953301  0.87487130  0.84384149  1
  O  O186  1  0.33392541  0.37697249  0.17846230  1
  O  O187  1  0.32892577  0.37257451  0.51236526  1
  O  O188  1  0.32700935  0.37944446  0.85783306  1
  O  O189  1  0.32484855  0.87275105  0.18656867  1
  O  O190  1  0.32430052  0.87680726  0.52796347  1
  O  O191  1  0.32793372  0.87539014  0.85701197  1
  O  O192  1  0.65446983  0.37706285  0.18502195  1
  O  O193  1  0.65443373  0.37534558  0.52434090  1
  O  O194  1  0.66161474  0.38066408  0.85375768  1
  O  O195  1  0.66830993  0.87296982  0.17895057  1
  O  O196  1  0.65634154  0.87572251  0.52954361  1
  O  O197  1  0.66590396  0.86728417  0.85330434  1
  O  O198  1  0.00555206  0.12559178  0.14993372  1
  O  O199  1  0.00941056  0.11942681  0.47595689  1
  O  O200  1  0.01280072  0.12652716  0.81370025  1
  O  O201  1  0.00800333  0.62325204  0.14614041  1
  O  O202  1  0.00979231  0.62966399  0.49501578  1
  O  O203  1  0.01093045  0.62072800  0.80676677  1
  O  O204  1  0.32197392  0.12738048  0.14380972  1
  O  O205  1  0.33567986  0.12252417  0.48623706  1
  O  O206  1  0.32835770  0.12143898  0.80657101  1
  O  O207  1  0.33272448  0.62249700  0.14086908  1
  O  O208  1  0.32999766  0.62793662  0.49043341  1
  O  O209  1  0.33135285  0.62440236  0.81117718  1
  O  O210  1  0.66629506  0.12564510  0.15767867  1
  O  O211  1  0.67773226  0.12178771  0.48637729  1
  O  O212  1  0.66263220  0.12971975  0.80965409  1
  O  O213  1  0.66034064  0.62331075  0.14227014  1
  O  O214  1  0.67855371  0.62803821  0.48827952  1
  O  O215  1  0.67614226  0.62276130  0.80230336  1
  O  O216  1  0.07990105  0.02342853  0.25683238  1
  O  O217  1  0.08287906  0.02288515  0.58799506  1
  O  O218  1  0.09394748  0.01819403  0.91541305  1
  O  O219  1  0.08498000  0.51510542  0.24982547  1
  O  O220  1  0.07507289  0.51457616  0.59544018  1
  O  O221  1  0.07972291  0.52622272  0.92433291  1
  O  O222  1  0.40859343  0.00338116  0.25109819  1
  O  O223  1  0.41827257  0.02122242  0.58367638  1
  O  O224  1  0.41687962  0.02311788  0.90958317  1
  O  O225  1  0.41503915  0.51603988  0.24552216  1
  O  O226  1  0.41438063  0.51636781  0.58717879  1
  O  O227  1  0.40925285  0.52570229  0.92201136  1
  O  O228  1  0.75206018  -0.00290140  0.25003909  1
  O  O229  1  0.74976823  0.01113906  0.58314002  1
  O  O230  1  0.74825164  0.00242434  0.91849819  1
  O  O231  1  0.74170755  0.49999013  0.25346840  1
  O  O232  1  0.74391524  0.51505899  0.59340362  1
  O  O233  1  0.74218997  0.52000261  0.91737995  1
  O  O234  1  0.23936634  0.23996919  0.24158485  1
  O  O235  1  0.24918838  0.22559142  0.58955981  1
  O  O236  1  0.25418507  0.23057563  0.92091004  1
  O  O237  1  0.24079636  0.73572126  0.23655311  1
  O  O238  1  0.23409760  0.73515591  0.57321051  1
  O  O239  1  0.24315562  0.72695555  0.91193367  1
  O  O240  1  0.58061215  0.24701294  0.24735306  1
  O  O241  1  0.57900254  0.22213936  0.57638723  1
  O  O242  1  0.57878857  0.24116517  0.90514319  1
  O  O243  1  0.57502388  0.73423657  0.23525995  1
  O  O244  1  0.57350583  0.72897852  0.57090651  1
  O  O245  1  0.57759865  0.72156954  0.90152277  1
  O  O246  1  0.91895681  0.23661626  0.26001653  1
  O  O247  1  0.92141903  0.22534259  0.58943476  1
  O  O248  1  0.92605913  0.24585022  0.92063488  1
  O  O249  1  0.91494936  0.74879286  0.24921738  1
  O  O250  1  0.90400074  0.72697797  0.57467937  1
  O  O251  1  0.91388602  0.72728079  0.91141979  1
  O  O252  1  0.09318880  0.48222564  0.08775818  1
  O  O253  1  0.08622728  0.48775571  0.43302202  1
  O  O254  1  0.08750418  0.47365944  0.75731295  1
  O  O255  1  0.09237436  0.99006109  0.09311115  1
  O  O256  1  0.08211932  0.97117102  0.42243323  1
  O  O257  1  0.08988221  0.97994290  0.75102449  1
  O  O258  1  0.42108156  0.48046841  0.08540505  1
  O  O259  1  0.42447333  0.48998151  0.42470170  1
  O  O260  1  0.42633473  0.49078761  0.75759716  1
  O  O261  1  0.40856382  0.99263112  0.07306375  1
  O  O262  1  0.41714872  0.97658713  0.42100923  1
  O  O263  1  0.41203396  0.98560171  0.74109086  1
  O  O264  1  0.74834902  0.48109161  0.08350466  1
  O  O265  1  0.74797294  0.48372071  0.42405418  1
  O  O266  1  0.76047056  0.47417547  0.75831412  1
  O  O267  1  0.75098113  0.98119990  0.08475632  1
  O  O268  1  0.74841072  0.97202338  0.41813245  1
  O  O269  1  0.75121685  0.98591687  0.74509168  1
  O  O270  1  0.25104614  0.27950682  0.08038213  1
  O  O271  1  0.24402080  0.25786275  0.42495650  1
  O  O272  1  0.24452887  0.26496917  0.75878570  1
  O  O273  1  0.25388498  0.77142941  0.07442308  1
  O  O274  1  0.25292043  0.77718712  0.41034172  1
  O  O275  1  0.25443204  0.77331059  0.74223066  1
  O  O276  1  0.58134874  0.27364364  0.07723788  1
  O  O277  1  0.58490118  0.26973241  0.41571675  1
  O  O278  1  0.59462329  0.26572179  0.73646663  1
  O  O279  1  0.59269603  0.76271278  0.06350946  1
  O  O280  1  0.58949400  0.77239622  0.41211484  1
  O  O281  1  0.59547950  0.76336257  0.73277709  1
  O  O282  1  0.92042472  0.26876794  0.08552439  1
  O  O283  1  0.91320506  0.25117283  0.42779323  1
  O  O284  1  0.92246633  0.26903433  0.75398364  1
  O  O285  1  0.92055344  0.75847863  0.08541552  1
  O  O286  1  0.92060836  0.77298660  0.41787434  1
  O  O287  1  0.93131630  0.75926347  0.73819902  1
  O  O288  1  0.25580603  0.47785498  0.07429179  1
  O  O289  1  0.24381124  0.48992235  0.42091245  1
  O  O290  1  0.24580568  0.48512951  0.75493322  1
  O  O291  1  0.25151987  0.97364690  0.07931929  1
  O  O292  1  0.25016022  0.97574109  0.41241187  1
  O  O293  1  0.25193922  0.97552200  0.74778284  1
  O  O294  1  0.58666394  0.47787602  0.07085201  1
  O  O295  1  0.58593561  0.48026097  0.41046543  1
  O  O296  1  0.59591104  0.48673324  0.73485894  1
  O  O297  1  0.58879848  0.98549118  0.07154535  1
  O  O298  1  0.58353206  0.97804834  0.41813480  1
  O  O299  1  0.59280046  0.98388098  0.73521734  1
  O  O300  1  0.92964768  0.48820746  0.07529973  1
  O  O301  1  0.91236333  0.49809776  0.42695698  1
  O  O302  1  0.92505614  0.47561807  0.74825554  1
  O  O303  1  0.91357831  0.98277070  0.09597733  1
  O  O304  1  0.91752061  0.97686450  0.42211222  1
  O  O305  1  0.92874095  0.99458396  0.74049714  1
  O  O306  1  0.09042611  0.26631233  0.08421668  1
  O  O307  1  0.08665762  0.26339044  0.42813342  1
  O  O308  1  0.08369285  0.27467741  0.75096883  1
  O  O309  1  0.09410917  0.76164388  0.09150862  1
  O  O310  1  0.08427885  0.77496302  0.42864736  1
  O  O311  1  0.09660637  0.76957047  0.75866508  1
  O  O312  1  0.41501106  0.26729072  0.07935024  1
  O  O313  1  0.42563997  0.26093995  0.42558318  1
  O  O314  1  0.42450616  0.25822077  0.75417814  1
  O  O315  1  0.41037357  0.75756020  0.07790632  1
  O  O316  1  0.41582763  0.76973086  0.42270793  1
  O  O317  1  0.41870519  0.76174227  0.74566647  1
  O  O318  1  0.74767027  0.27009696  0.08256470  1
  O  O319  1  0.74661394  0.26727636  0.41952870  1
  O  O320  1  0.75547029  0.27658983  0.75280912  1
  O  O321  1  0.75176501  0.76624015  0.08593112  1
  O  O322  1  0.75251360  0.77693352  0.42373124  1
  O  O323  1  0.75592897  0.76398943  0.75183360  1
  O  O324  1  0.23816154  0.01198994  0.24079631  1
  O  O325  1  0.24775584  0.02432648  0.58409547  1
  O  O326  1  0.25471802  0.02142589  0.91649675  1
  O  O327  1  0.24214925  0.51129194  0.23634307  1
  O  O328  1  0.23914096  0.51307556  0.58130559  1
  O  O329  1  0.24398951  0.52384484  0.91518111  1
  O  O330  1  0.58490925  -0.00129973  0.25180326  1
  O  O331  1  0.58094668  0.02659841  0.57790788  1
  O  O332  1  0.57842157  0.01455411  0.90508471  1
  O  O333  1  0.57102577  0.51463017  0.23473748  1
  O  O334  1  0.57645479  0.52462297  0.57231933  1
  O  O335  1  0.57639040  0.52433599  0.90402780  1
  O  O336  1  0.92524637  0.01136874  0.26251851  1
  O  O337  1  0.91601061  0.02951107  0.58050678  1
  O  O338  1  0.92600340  0.00972028  0.91914158  1
  O  O339  1  0.91470212  0.50347713  0.24651601  1
  O  O340  1  0.91101060  0.52217763  0.58478636  1
  O  O341  1  0.91356319  0.52331726  0.90744127  1
  O  O342  1  0.08070226  0.22696824  0.25454492  1
  O  O343  1  0.08351796  0.22398583  0.58854903  1
  O  O344  1  0.09373348  0.23456331  0.91415284  1
  O  O345  1  0.08142758  0.73569114  0.25229596  1
  O  O346  1  0.07145652  0.73988276  0.59873304  1
  O  O347  1  0.08052276  0.72188108  0.92430999  1
  O  O348  1  0.41488084  0.24528073  0.24641967  1
  O  O349  1  0.41584257  0.22725083  0.58776999  1
  O  O350  1  0.41416376  0.22896270  0.91578968  1
  O  O351  1  0.41218755  0.73583674  0.24511005  1
  O  O352  1  0.41055914  0.73829194  0.58475022  1
  O  O353  1  0.41255515  0.72689000  0.91676557  1
  O  O354  1  0.74819381  0.25215665  0.25239413  1
  O  O355  1  0.74368585  0.23925102  0.58639750  1
  O  O356  1  0.75187129  0.25316755  0.91414790  1
  O  O357  1  0.74398182  0.75106732  0.25407088  1
  O  O358  1  0.74108488  0.73868885  0.59087452  1
  O  O359  1  0.74262542  0.72738380  0.91864837  1
