# generated using pymatgen
data_Ba17Sr5La8Pr42Mn72O216
_symmetry_space_group_name_H-M   'P 1'
_cell_length_a   16.67706518
_cell_length_b   15.70907527
_cell_length_c   16.81957902
_cell_angle_alpha   90.00455335
_cell_angle_beta   90.00066600
_cell_angle_gamma   89.99299724
_symmetry_Int_Tables_number   1
_chemical_formula_structural   Ba17Sr5La8Pr42Mn72O216
_chemical_formula_sum   'Ba17 Sr5 La8 Pr42 Mn72 O216'
_cell_volume   4406.41466351
_cell_formula_units_Z   1
loop_
 _symmetry_equiv_pos_site_id
 _symmetry_equiv_pos_as_xyz
  1  'x, y, z'
loop_
 _atom_site_type_symbol
 _atom_site_label
 _atom_site_symmetry_multiplicity
 _atom_site_fract_x
 _atom_site_fract_y
 _atom_site_fract_z
 _atom_site_occupancy
  Ba  Ba0  1  0.66633316  0.62422932  1.00089167  1
  Ba  Ba1  1  0.83580010  0.87571138  0.83287303  1
  Ba  Ba2  1  0.16528345  0.62398237  0.50120540  1
  Ba  Ba3  1  0.83332622  0.62534644  0.83223711  1
  Ba  Ba4  1  -0.00055876  0.62521871  0.66492433  1
  Ba  Ba5  1  0.33097196  0.62309852  1.00180348  1
  Ba  Ba6  1  0.67022620  0.87608125  0.33339184  1
  Ba  Ba7  1  0.50038213  0.87769563  0.16673481  1
  Ba  Ba8  1  0.33146252  0.62358096  0.33237723  1
  Ba  Ba9  1  0.66516306  0.37389279  0.66937563  1
  Ba  Ba10  1  0.83318636  0.37417468  0.83189615  1
  Ba  Ba11  1  0.33672650  0.87702257  0.66594553  1
  Ba  Ba12  1  0.66687710  0.37568598  0.00111964  1
  Ba  Ba13  1  0.66212409  0.12615516  1.00148102  1
  Ba  Ba14  1  0.50254047  0.62501426  0.49910315  1
  Ba  Ba15  1  0.50225186  0.87484513  0.49889827  1
  Ba  Ba16  1  0.00498388  0.87643590  0.00108596  1
  Sr  Sr17  1  0.16313607  0.62517464  0.17161259  1
  Sr  Sr18  1  0.49812600  0.12725651  0.16866490  1
  Sr  Sr19  1  0.32923486  0.12462736  0.32979417  1
  Sr  Sr20  1  0.50042651  0.37592920  0.83391540  1
  Sr  Sr21  1  0.83515063  0.37498745  0.16057677  1
  La  La22  1  0.33576076  0.37670527  0.66689261  1
  La  La23  1  0.50040246  0.62416621  0.16984284  1
  La  La24  1  0.00074671  0.62420225  0.99682531  1
  La  La25  1  0.83344674  0.62434486  0.16390619  1
  La  La26  1  0.33297801  0.12544384  1.00248967  1
  La  La27  1  0.83963808  0.87587477  0.49569095  1
  La  La28  1  0.00327404  0.37492395  0.33173129  1
  La  La29  1  0.82389058  0.12571774  0.83466648  1
  Pr  Pr30  1  0.83092773  0.62604160  0.50280026  1
  Pr  Pr31  1  -0.01185570  0.12414348  0.66353001  1
  Pr  Pr32  1  0.00454370  0.37575075  0.66995673  1
  Pr  Pr33  1  0.67435833  0.87246728  0.00426991  1
  Pr  Pr34  1  0.16006489  0.12467318  0.17395253  1
  Pr  Pr35  1  0.33710350  0.87478522  0.00190816  1
  Pr  Pr36  1  0.16949059  0.37576776  0.83435208  1
  Pr  Pr37  1  0.49983407  0.62261985  0.83479096  1
  Pr  Pr38  1  0.16779522  0.37781273  0.49986919  1
  Pr  Pr39  1  0.17670748  0.87419416  0.16650500  1
  Pr  Pr40  1  0.83704952  0.87652207  0.15962615  1
  Pr  Pr41  1  0.66418107  0.62879364  0.32919230  1
  Pr  Pr42  1  0.16657236  0.62651523  0.83606858  1
  Pr  Pr43  1  0.49872899  0.37337045  0.49687633  1
  Pr  Pr44  1  -0.01030882  0.12729667  0.33054794  1
  Pr  Pr45  1  0.49913023  0.12081380  0.49926650  1
  Pr  Pr46  1  0.83775796  0.37609960  0.49682727  1
  Pr  Pr47  1  -0.00311546  0.62394753  0.33107280  1
  Pr  Pr48  1  0.33157277  0.12764464  0.66316457  1
  Pr  Pr49  1  0.17176709  0.37598065  0.16593947  1
  Pr  Pr50  1  0.66061070  0.12607328  0.66980088  1
  Pr  Pr51  1  0.66625713  0.37335243  0.33662188  1
  Pr  Pr52  1  0.33371767  0.37453480  0.33475483  1
  Pr  Pr53  1  -0.00809387  0.12568565  0.99808109  1
  Pr  Pr54  1  0.01078927  0.87305171  0.67077634  1
  Pr  Pr55  1  0.16148818  0.12541658  0.50491786  1
  Pr  Pr56  1  0.50469552  0.87578331  0.83164114  1
  Pr  Pr57  1  0.00184707  0.37687885  0.00290250  1
  Pr  Pr58  1  0.33597699  0.37391453  0.00057647  1
  Pr  Pr59  1  0.65778430  0.12175870  0.32711224  1
  Pr  Pr60  1  0.33903472  0.87489862  0.33865536  1
  Pr  Pr61  1  0.49526649  0.12931321  0.83554395  1
  Pr  Pr62  1  0.49486204  0.37337055  0.16368555  1
  Pr  Pr63  1  0.67206391  0.62292553  0.66760251  1
  Pr  Pr64  1  0.00772637  0.87640897  0.33287666  1
  Pr  Pr65  1  0.16544001  0.12307240  0.83888582  1
  Pr  Pr66  1  0.17406183  0.87177178  0.49965188  1
  Pr  Pr67  1  0.66695831  0.87277281  0.66601075  1
  Pr  Pr68  1  0.33564174  0.62359654  0.66003824  1
  Pr  Pr69  1  0.82181636  0.12594453  0.16643689  1
  Pr  Pr70  1  0.17330920  0.87244840  0.83337862  1
  Pr  Pr71  1  0.82145678  0.12669696  0.49813548  1
  Mn  Mn72  1  -0.00006494  0.00243416  0.16805695  1
  Mn  Mn73  1  0.00032737  0.00230219  0.49942573  1
  Mn  Mn74  1  0.00291967  0.00127837  0.83110989  1
  Mn  Mn75  1  0.00047354  0.49910342  0.16643403  1
  Mn  Mn76  1  -0.00094481  0.49750654  0.49916441  1
  Mn  Mn77  1  0.00254322  0.49801691  0.83468257  1
  Mn  Mn78  1  0.33194400  0.00178958  0.16816467  1
  Mn  Mn79  1  0.33081197  0.00417354  0.49768259  1
  Mn  Mn80  1  0.33355514  0.00213025  0.83508028  1
  Mn  Mn81  1  0.33298681  0.49861500  0.16682719  1
  Mn  Mn82  1  0.33424907  0.49753001  0.50081348  1
  Mn  Mn83  1  0.33276584  0.49909332  0.83126359  1
  Mn  Mn84  1  0.66565695  0.00000337  0.16591304  1
  Mn  Mn85  1  0.66796481  0.00276931  0.50005703  1
  Mn  Mn86  1  0.66465081  -0.00051346  0.83336305  1
  Mn  Mn87  1  0.66813485  0.49879988  0.17126109  1
  Mn  Mn88  1  0.66783320  0.49756409  0.49936314  1
  Mn  Mn89  1  0.66469484  0.50002833  0.83293173  1
  Mn  Mn90  1  -0.00027049  0.24941739  0.16558122  1
  Mn  Mn91  1  -0.00098833  0.24842419  0.49982694  1
  Mn  Mn92  1  0.00234716  0.24729833  0.83217299  1
  Mn  Mn93  1  0.00103764  0.74985579  0.16823771  1
  Mn  Mn94  1  0.00088445  0.75336198  0.49850986  1
  Mn  Mn95  1  0.00287611  0.75101069  0.83399707  1
  Mn  Mn96  1  0.33082011  0.24873445  0.16782194  1
  Mn  Mn97  1  0.33090844  0.24841351  0.49827746  1
  Mn  Mn98  1  0.33120936  0.25013234  0.83213916  1
  Mn  Mn99  1  0.33366999  0.74999159  0.16728431  1
  Mn  Mn100  1  0.33424071  0.74901474  0.50009783  1
  Mn  Mn101  1  0.33466087  0.74906561  0.83322036  1
  Mn  Mn102  1  0.66579917  0.25159302  0.16983312  1
  Mn  Mn103  1  0.66549987  0.25022739  0.49971559  1
  Mn  Mn104  1  0.66351345  0.25042391  0.83296528  1
  Mn  Mn105  1  0.66756018  0.75019296  0.16664945  1
  Mn  Mn106  1  0.66954164  0.74892683  0.49960452  1
  Mn  Mn107  1  0.66494008  0.75182912  0.83385021  1
  Mn  Mn108  1  0.16650216  0.24857471  0.00297765  1
  Mn  Mn109  1  0.16436922  0.24977723  0.33599830  1
  Mn  Mn110  1  0.16572102  0.24829707  0.66944932  1
  Mn  Mn111  1  0.16820999  0.74970214  0.00250498  1
  Mn  Mn112  1  0.16527995  0.75096556  0.33221638  1
  Mn  Mn113  1  0.16972994  0.75027485  0.66764229  1
  Mn  Mn114  1  0.49768952  0.25028951  0.00059675  1
  Mn  Mn115  1  0.49802848  0.25062964  0.33228391  1
  Mn  Mn116  1  0.49768326  0.24756768  0.66515996  1
  Mn  Mn117  1  0.49888132  0.75043954  -0.00172729  1
  Mn  Mn118  1  0.50022555  0.74994470  0.33266734  1
  Mn  Mn119  1  0.50121392  0.75045518  0.66914311  1
  Mn  Mn120  1  0.83426012  0.25021026  -0.00033866  1
  Mn  Mn121  1  0.83244345  0.25226756  0.33123541  1
  Mn  Mn122  1  0.83308683  0.24787649  0.66429084  1
  Mn  Mn123  1  0.83614453  0.74954770  0.00038928  1
  Mn  Mn124  1  0.83723009  0.74939273  0.33237845  1
  Mn  Mn125  1  0.83308543  0.75223266  0.66235945  1
  Mn  Mn126  1  0.16861555  0.00255336  0.00401661  1
  Mn  Mn127  1  0.16483337  0.00174187  0.33552156  1
  Mn  Mn128  1  0.16674072  0.00329555  0.66933599  1
  Mn  Mn129  1  0.16664965  0.49864815  0.00098114  1
  Mn  Mn130  1  0.16459862  0.49806871  0.33267374  1
  Mn  Mn131  1  0.16806228  0.49678037  0.66846591  1
  Mn  Mn132  1  0.49812373  0.00150918  -0.00226278  1
  Mn  Mn133  1  0.49752394  0.00247778  0.33351777  1
  Mn  Mn134  1  0.49998584  0.00144275  0.66802006  1
  Mn  Mn135  1  0.49863043  0.49942591  0.00073992  1
  Mn  Mn136  1  0.50236352  0.49669002  0.33215137  1
  Mn  Mn137  1  0.50070154  0.49998329  0.66725162  1
  Mn  Mn138  1  0.83410158  0.00235539  -0.00018696  1
  Mn  Mn139  1  0.83602478  0.00125641  0.33134104  1
  Mn  Mn140  1  0.83213959  0.00030263  0.66312076  1
  Mn  Mn141  1  0.83511442  0.49853688  0.00016591  1
  Mn  Mn142  1  0.83340711  0.49831882  0.33152379  1
  Mn  Mn143  1  0.83420166  0.49883931  0.66361286  1
  O  O144  1  0.17595224  0.12666076  0.03274726  1
  O  O145  1  0.16506090  0.12708955  0.36102768  1
  O  O146  1  0.17561066  0.12678604  0.69528280  1
  O  O147  1  0.16114940  0.62008007  0.02176990  1
  O  O148  1  0.15842574  0.62423496  0.34458722  1
  O  O149  1  0.17580118  0.62042821  0.68961277  1
  O  O150  1  0.49300672  0.12679691  0.01874591  1
  O  O151  1  0.50520433  0.12941612  0.35410695  1
  O  O152  1  0.49619005  0.12362724  0.69105681  1
  O  O153  1  0.49913935  0.62232389  0.02460594  1
  O  O154  1  0.50925452  0.62155410  0.33760228  1
  O  O155  1  0.49330285  0.62811656  0.68982953  1
  O  O156  1  0.84018791  0.12641417  0.01921410  1
  O  O157  1  0.84128621  0.12801684  0.35713073  1
  O  O158  1  0.84032016  0.12268436  0.68892065  1
  O  O159  1  0.84371171  0.62471472  0.01600167  1
  O  O160  1  0.84180783  0.62134125  0.36056492  1
  O  O161  1  0.83072264  0.62771752  0.67304886  1
  O  O162  1  0.15938892  0.37134209  0.31020755  1
  O  O163  1  0.16161089  0.36853842  0.64288687  1
  O  O164  1  0.16166850  0.37159337  0.97617819  1
  O  O165  1  0.15796426  0.87883135  0.30929665  1
  O  O166  1  0.16119409  0.88237401  0.64450515  1
  O  O167  1  0.17279601  0.88058509  0.97633365  1
  O  O168  1  0.49836454  0.37234739  0.30895247  1
  O  O169  1  0.49558609  0.36819049  0.64037192  1
  O  O170  1  0.49085192  0.37383978  0.98430316  1
  O  O171  1  0.48958171  0.87752889  0.32716005  1
  O  O172  1  0.50606751  0.87885173  0.65427929  1
  O  O173  1  0.48905845  0.87804274  0.97462046  1
  O  O174  1  0.82842635  0.37495235  0.30802203  1
  O  O175  1  0.83823795  0.37012633  0.64209962  1
  O  O176  1  0.84191643  0.37153736  0.99149178  1
  O  O177  1  0.84187110  0.87671176  0.30501716  1
  O  O178  1  0.82189669  0.87809053  0.63847737  1
  O  O179  1  0.82720492  0.87742920  0.99687019  1
  O  O180  1  -0.00058386  0.37238710  0.18914060  1
  O  O181  1  -0.00690119  0.36802436  0.52661259  1
  O  O182  1  0.00781008  0.37017270  0.85841294  1
  O  O183  1  -0.00961463  0.87933660  0.19050929  1
  O  O184  1  -0.00649926  0.88230322  0.52626683  1
  O  O185  1  0.00810862  0.87760480  0.84369998  1
  O  O186  1  0.33470025  0.37222275  0.19032842  1
  O  O187  1  0.33522666  0.37055136  0.52235939  1
  O  O188  1  0.32825384  0.37239557  0.85781989  1
  O  O189  1  0.32692186  0.87925983  0.19229066  1
  O  O190  1  0.32857436  0.87776457  0.50701516  1
  O  O191  1  0.33152576  0.87892667  0.85871363  1
  O  O192  1  0.67304888  0.37416937  0.19221225  1
  O  O193  1  0.66330941  0.37212241  0.51484125  1
  O  O194  1  0.66180249  0.37257875  0.84012168  1
  O  O195  1  0.68024179  0.87518594  0.17365996  1
  O  O196  1  0.67472849  0.88046945  0.52152381  1
  O  O197  1  0.65658784  0.87771546  0.85838049  1
  O  O198  1  0.01169108  0.12681823  0.14250084  1
  O  O199  1  0.00905475  0.12589681  0.47214949  1
  O  O200  1  0.01278527  0.12457554  0.80534412  1
  O  O201  1  0.00298459  0.62238749  0.14373066  1
  O  O202  1  -0.00505251  0.62610359  0.47546691  1
  O  O203  1  0.01064015  0.62440503  0.82304883  1
  O  O204  1  0.32316628  0.12691888  0.14641071  1
  O  O205  1  0.32100445  0.12871796  0.47788821  1
  O  O206  1  0.33150836  0.12742241  0.80664237  1
  O  O207  1  0.33509053  0.62029287  0.15884500  1
  O  O208  1  0.33196390  0.62178049  0.49321024  1
  O  O209  1  0.32932656  0.62100096  0.80545421  1
  O  O210  1  0.66551198  0.12521257  0.16012327  1
  O  O211  1  0.66917657  0.12924677  0.47167282  1
  O  O212  1  0.66455250  0.12190218  0.81596812  1
  O  O213  1  0.65504342  0.62456645  0.16102017  1
  O  O214  1  0.67721249  0.61782340  0.47309457  1
  O  O215  1  0.65755268  0.62943759  0.81325412  1
  O  O216  1  0.07227888  0.02165272  0.26391603  1
  O  O217  1  0.07576401  0.02583358  0.59090983  1
  O  O218  1  0.08451333  0.02647687  0.92824882  1
  O  O219  1  0.07475080  0.51251118  0.25571069  1
  O  O220  1  0.08404428  0.50127607  0.58622978  1
  O  O221  1  0.08414041  0.51620188  0.92018595  1
  O  O222  1  0.40906018  0.01586208  0.25199687  1
  O  O223  1  0.41240203  0.02422202  0.58564961  1
  O  O224  1  0.40954061  0.02586397  0.91971131  1
  O  O225  1  0.42904198  0.50717130  0.24130846  1
  O  O226  1  0.41751384  0.50900188  0.58541372  1
  O  O227  1  0.41659549  0.51480019  0.90704371  1
  O  O228  1  0.74895166  0.02214938  0.25828329  1
  O  O229  1  0.74361170  0.02895173  0.58762767  1
  O  O230  1  0.74905963  0.01166420  0.91711599  1
  O  O231  1  0.75245171  0.52754908  0.25328998  1
  O  O232  1  0.75206137  0.51493846  0.57751948  1
  O  O233  1  0.74950048  0.50521242  0.91462350  1
  O  O234  1  0.23942273  0.23681667  0.24509217  1
  O  O235  1  0.24424523  0.23010377  0.58455380  1
  O  O236  1  0.24416328  0.22863312  0.91545611  1
  O  O237  1  0.24030052  0.74424476  0.24505842  1
  O  O238  1  0.25063753  0.74000892  0.58625626  1
  O  O239  1  0.24425864  0.73552942  0.90902007  1
  O  O240  1  0.58457681  0.23733440  0.25596740  1
  O  O241  1  0.57919378  0.22337505  0.58063204  1
  O  O242  1  0.57439385  0.23735844  0.91254331  1
  O  O243  1  0.58317634  0.74081667  0.24751404  1
  O  O244  1  0.58935441  0.73674226  0.59337846  1
  O  O245  1  0.57262190  0.73676018  0.90774357  1
  O  O246  1  0.91114885  0.22755018  0.23986737  1
  O  O247  1  0.90939891  0.22355689  0.57205787  1
  O  O248  1  0.91623145  0.22398926  0.90570710  1
  O  O249  1  0.91397318  0.72360733  0.24696263  1
  O  O250  1  0.90722521  0.74153295  0.56753162  1
  O  O251  1  0.92184463  0.74015056  0.91893439  1
  O  O252  1  0.08638681  0.47441412  0.08678125  1
  O  O253  1  0.08303827  0.47539302  0.42020207  1
  O  O254  1  0.08814442  0.47658450  0.75477771  1
  O  O255  1  0.09526126  0.98589897  0.10064757  1
  O  O256  1  0.09217523  0.97833523  0.42964950  1
  O  O257  1  0.09172326  0.98067188  0.75584074  1
  O  O258  1  0.41226417  0.47699934  0.08155647  1
  O  O259  1  0.41622523  0.47616911  0.41223620  1
  O  O260  1  0.41025317  0.48109562  0.74459990  1
  O  O261  1  0.41301359  0.98925883  0.07813504  1
  O  O262  1  0.41624537  0.99895440  0.41752027  1
  O  O263  1  0.42617487  0.98849811  0.76134920  1
  O  O264  1  0.75398481  0.49673534  0.09168494  1
  O  O265  1  0.75105727  0.47328977  0.41501012  1
  O  O266  1  0.74672859  0.49897304  0.74468098  1
  O  O267  1  0.75775077  0.99290280  0.09139574  1
  O  O268  1  0.76513502  0.98982388  0.42502592  1
  O  O269  1  0.75105772  0.98944732  0.74848964  1
  O  O270  1  0.25235956  0.27628121  0.07946937  1
  O  O271  1  0.24976792  0.27699143  0.41397479  1
  O  O272  1  0.24991136  0.27349554  0.74818764  1
  O  O273  1  0.25432476  0.77212208  0.07959519  1
  O  O274  1  0.24924213  0.77000124  0.41112991  1
  O  O275  1  0.25065513  0.76714585  0.75352729  1
  O  O276  1  0.57836387  0.26545549  0.09230520  1
  O  O277  1  0.58143372  0.27124088  0.41640000  1
  O  O278  1  0.57887742  0.25152459  0.74934872  1
  O  O279  1  0.58888358  0.76867045  0.07131166  1
  O  O280  1  0.59185666  0.75375827  0.41495839  1
  O  O281  1  0.58551958  0.77369759  0.74987028  1
  O  O282  1  0.93137536  0.26097431  0.07212961  1
  O  O283  1  0.92062355  0.27103878  0.40643633  1
  O  O284  1  0.92759678  0.26040881  0.73424046  1
  O  O285  1  0.91764347  0.76214014  0.08941678  1
  O  O286  1  0.92760936  0.77327630  0.40638820  1
  O  O287  1  0.92218006  0.76772294  0.73579949  1
  O  O288  1  0.25081764  0.47399304  0.07950423  1
  O  O289  1  0.24914890  0.47624068  0.41687646  1
  O  O290  1  0.24922712  0.47229038  0.75009023  1
  O  O291  1  0.25511661  0.97617104  0.07983306  1
  O  O292  1  0.25113332  0.97858031  0.40847868  1
  O  O293  1  0.24990914  0.98484257  0.75667690  1
  O  O294  1  0.57651453  0.48406936  0.10075189  1
  O  O295  1  0.57998118  0.47541434  0.42087364  1
  O  O296  1  0.57520262  0.49460159  0.75414398  1
  O  O297  1  0.58918536  0.98282538  0.06868607  1
  O  O298  1  0.58796941  0.99802010  0.41645227  1
  O  O299  1  0.59238434  0.98371815  0.74167131  1
  O  O300  1  0.92506588  0.48494571  0.08105361  1
  O  O301  1  0.91817581  0.47313204  0.40947481  1
  O  O302  1  0.92524010  0.48297946  0.74278611  1
  O  O303  1  0.92121000  0.99345337  0.08242729  1
  O  O304  1  0.92896840  0.98393142  0.40393875  1
  O  O305  1  0.92619951  0.98573384  0.72840108  1
  O  O306  1  0.09042465  0.27163704  0.09176788  1
  O  O307  1  0.08782490  0.27337489  0.42608869  1
  O  O308  1  0.08949327  0.27227017  0.75613844  1
  O  O309  1  0.09165061  0.76754342  0.09731281  1
  O  O310  1  0.08794651  0.77637806  0.42231524  1
  O  O311  1  0.09148335  0.76685439  0.75435468  1
  O  O312  1  0.41318408  0.26792824  0.08292580  1
  O  O313  1  0.41812829  0.27181623  0.41502354  1
  O  O314  1  0.41177633  0.26434218  0.74325682  1
  O  O315  1  0.41535644  0.76538566  0.07906175  1
  O  O316  1  0.41330461  0.75809239  0.41262972  1
  O  O317  1  0.42452280  0.76513865  0.75917730  1
  O  O318  1  0.75531984  0.25509693  0.09403093  1
  O  O319  1  0.75584718  0.26998999  0.42186640  1
  O  O320  1  0.75237672  0.24792207  0.74935870  1
  O  O321  1  0.75662247  0.75686722  0.08993234  1
  O  O322  1  0.76615549  0.76433284  0.42279153  1
  O  O323  1  0.74516978  0.76427291  0.74320338  1
  O  O324  1  0.23624237  0.01755108  0.24373683  1
  O  O325  1  0.24336014  0.02193146  0.58089695  1
  O  O326  1  0.24806643  0.02569771  0.91754955  1
  O  O327  1  0.24683093  0.50065969  0.24724858  1
  O  O328  1  0.25491064  0.50541491  0.59187076  1
  O  O329  1  0.24273751  0.51221605  0.90843824  1
  O  O330  1  0.57992874  0.01288326  0.24982662  1
  O  O331  1  0.57984311  0.02582444  0.58139924  1
  O  O332  1  0.56802690  0.01517048  0.90284714  1
  O  O333  1  0.59672680  0.50507346  0.26492866  1
  O  O334  1  0.59065335  0.51724913  0.58968670  1
  O  O335  1  0.57892396  0.51261481  0.91566886  1
  O  O336  1  0.91085376  0.02841752  0.24177462  1
  O  O337  1  0.90710883  0.02433028  0.56739468  1
  O  O338  1  0.91603819  0.02242983  0.90843865  1
  O  O339  1  0.91529365  0.52099354  0.24746852  1
  O  O340  1  0.91036969  0.51172197  0.57063897  1
  O  O341  1  0.92524536  0.50822949  0.91936638  1
  O  O342  1  0.07474386  0.22983295  0.25908989  1
  O  O343  1  0.07950014  0.22496658  0.59317400  1
  O  O344  1  0.08154160  0.22340539  0.92633843  1
  O  O345  1  0.07101060  0.73781918  0.26183706  1
  O  O346  1  0.08056057  0.74803460  0.58537632  1
  O  O347  1  0.08613359  0.73269070  0.92337146  1
  O  O348  1  0.41321544  0.23636230  0.25121896  1
  O  O349  1  0.41521805  0.22314374  0.58002388  1
  O  O350  1  0.40994983  0.23031380  0.91615181  1
  O  O351  1  0.41767728  0.73933112  0.24533626  1
  O  O352  1  0.41507664  0.73706669  0.59155337  1
  O  O353  1  0.41537579  0.73183184  0.91492955  1
  O  O354  1  0.74565204  0.22686117  0.25920580  1
  O  O355  1  0.74549573  0.22584849  0.58619289  1
  O  O356  1  0.75094251  0.23695724  0.91430192  1
  O  O357  1  0.75133313  0.72795537  0.25616357  1
  O  O358  1  0.74697943  0.72814591  0.58324874  1
  O  O359  1  0.74516350  0.74773459  0.91899860  1
