# generated using pymatgen
data_Ba17Sr5La8Pr42Mn72O216
_symmetry_space_group_name_H-M   'P 1'
_cell_length_a   16.67332866
_cell_length_b   15.70512837
_cell_length_c   16.81359661
_cell_angle_alpha   90.00459434
_cell_angle_beta   90.00086268
_cell_angle_gamma   90.00715207
_symmetry_Int_Tables_number   1
_chemical_formula_structural   Ba17Sr5La8Pr42Mn72O216
_chemical_formula_sum   'Ba17 Sr5 La8 Pr42 Mn72 O216'
_cell_volume   4402.75400021
_cell_formula_units_Z   1
loop_
 _symmetry_equiv_pos_site_id
 _symmetry_equiv_pos_as_xyz
  1  'x, y, z'
loop_
 _atom_site_type_symbol
 _atom_site_label
 _atom_site_symmetry_multiplicity
 _atom_site_fract_x
 _atom_site_fract_y
 _atom_site_fract_z
 _atom_site_occupancy
  Ba  Ba0  1  0.33247448  0.62587074  0.32940100  1
  Ba  Ba1  1  0.33388110  0.12415505  1.00040915  1
  Ba  Ba2  1  -0.00126607  0.37494706  0.33333838  1
  Ba  Ba3  1  0.49616382  0.12498107  0.16824079  1
  Ba  Ba4  1  0.50333388  0.87368500  0.50233294  1
  Ba  Ba5  1  0.66644741  0.62430483  0.99916454  1
  Ba  Ba6  1  0.66577104  0.37523204  0.33511995  1
  Ba  Ba7  1  0.33168974  0.37789193  0.33508520  1
  Ba  Ba8  1  0.17097896  0.87487789  0.83193811  1
  Ba  Ba9  1  0.66850475  0.87497384  0.33540573  1
  Ba  Ba10  1  0.33637257  0.87422247  0.66870441  1
  Ba  Ba11  1  0.49919614  0.12538650  0.50312937  1
  Ba  Ba12  1  0.16457822  0.37445156  0.49646309  1
  Ba  Ba13  1  0.16558631  0.62724882  0.16625166  1
  Ba  Ba14  1  0.16608208  0.12596551  0.83251397  1
  Ba  Ba15  1  0.16308150  0.12528576  0.49863435  1
  Ba  Ba16  1  0.16838808  0.37618504  0.83152332  1
  Sr  Sr17  1  0.49931012  0.37516963  0.49534427  1
  Sr  Sr18  1  0.33933879  0.87521662  -0.00395404  1
  Sr  Sr19  1  0.50012421  0.62511243  0.83825075  1
  Sr  Sr20  1  -0.00053671  0.12491071  0.66492449  1
  Sr  Sr21  1  0.50032524  0.62559984  0.16784002  1
  La  La22  1  0.49797270  0.62204900  0.49936181  1
  La  La23  1  0.83431368  0.62494789  0.83746228  1
  La  La24  1  0.00744442  0.87712172  0.00207730  1
  La  La25  1  0.83257822  0.87470633  0.83202185  1
  La  La26  1  0.66782686  0.87208899  0.00433630  1
  La  La27  1  0.16525931  0.62171062  0.49498564  1
  La  La28  1  0.17212355  0.87646708  0.49924742  1
  La  La29  1  0.83101276  0.37504022  0.83305543  1
  Pr  Pr30  1  0.82644465  0.12469268  0.16912598  1
  Pr  Pr31  1  0.34033419  0.87326059  0.33389972  1
  Pr  Pr32  1  0.49499612  0.37804498  0.16675993  1
  Pr  Pr33  1  0.49951956  0.12225773  0.83879640  1
  Pr  Pr34  1  -0.00094081  0.36995384  0.66663384  1
  Pr  Pr35  1  0.17236309  0.37809724  0.16476922  1
  Pr  Pr36  1  -0.00109347  0.12534043  0.99567211  1
  Pr  Pr37  1  0.83072690  0.12706345  0.50143529  1
  Pr  Pr38  1  0.32696230  0.62529758  0.66350383  1
  Pr  Pr39  1  0.32418215  0.12484532  0.66486679  1
  Pr  Pr40  1  0.33523461  0.62553407  0.99730616  1
  Pr  Pr41  1  0.33580821  0.37180179  0.66521311  1
  Pr  Pr42  1  0.66375249  0.62308017  0.66768626  1
  Pr  Pr43  1  0.83813897  0.87686872  0.49729177  1
  Pr  Pr44  1  0.66619044  0.37728765  0.00704485  1
  Pr  Pr45  1  0.66542190  0.87774946  0.66842818  1
  Pr  Pr46  1  -0.00275384  0.62133872  0.32973940  1
  Pr  Pr47  1  0.00230485  0.87794978  0.67024817  1
  Pr  Pr48  1  0.66304272  0.37364704  0.66537313  1
  Pr  Pr49  1  0.82984682  0.62480733  0.16964534  1
  Pr  Pr50  1  0.66644328  0.12652423  0.66420391  1
  Pr  Pr51  1  0.00724975  0.37193325  0.00533368  1
  Pr  Pr52  1  0.00262891  0.62473315  0.99608929  1
  Pr  Pr53  1  0.83044704  0.62279960  0.50029216  1
  Pr  Pr54  1  0.32950776  0.13003295  0.33521449  1
  Pr  Pr55  1  0.83439285  0.12498438  0.83377957  1
  Pr  Pr56  1  0.00105717  0.62386469  0.66507327  1
  Pr  Pr57  1  0.16130761  0.12267524  0.17127305  1
  Pr  Pr58  1  0.83412925  0.37363384  0.49584240  1
  Pr  Pr59  1  0.17142669  0.62846073  0.83616675  1
  Pr  Pr60  1  0.50071108  0.37767557  0.83475176  1
  Pr  Pr61  1  0.66663893  0.12592789  0.99674641  1
  Pr  Pr62  1  -0.00799771  0.12825246  0.33551045  1
  Pr  Pr63  1  0.83495209  0.37320495  0.16273012  1
  Pr  Pr64  1  0.00391925  0.87442821  0.33396198  1
  Pr  Pr65  1  0.65851654  0.62542656  0.33018472  1
  Pr  Pr66  1  0.33528735  0.37316653  0.00233667  1
  Pr  Pr67  1  0.65607918  0.12455676  0.33470652  1
  Pr  Pr68  1  0.83698151  0.87602886  0.16260650  1
  Pr  Pr69  1  0.49991628  0.87191136  0.16527741  1
  Pr  Pr70  1  0.50132487  0.87151727  0.83148670  1
  Pr  Pr71  1  0.17880620  0.87220391  0.15968153  1
  Mn  Mn72  1  -0.00110527  0.00034693  0.16811180  1
  Mn  Mn73  1  -0.00147410  -0.00254790  0.50060351  1
  Mn  Mn74  1  -0.00151818  0.00062694  0.83349117  1
  Mn  Mn75  1  -0.00192053  0.49989445  0.16448906  1
  Mn  Mn76  1  -0.00322244  0.50355119  0.49982561  1
  Mn  Mn77  1  -0.00164107  0.49904198  0.83195692  1
  Mn  Mn78  1  0.33133680  -0.00073030  0.16664826  1
  Mn  Mn79  1  0.33337608  -0.00134002  0.49898945  1
  Mn  Mn80  1  0.33629372  0.00058205  0.83318515  1
  Mn  Mn81  1  0.33454156  0.50032897  0.16397313  1
  Mn  Mn82  1  0.33307264  0.50262309  0.50096296  1
  Mn  Mn83  1  0.33627385  0.50017344  0.83173745  1
  Mn  Mn84  1  0.66693449  -0.00029136  0.16727864  1
  Mn  Mn85  1  0.66944933  0.00051116  0.50167174  1
  Mn  Mn86  1  0.66847891  0.00099627  0.83453636  1
  Mn  Mn87  1  0.66747904  0.49971946  0.16855852  1
  Mn  Mn88  1  0.66706651  0.50156046  0.50045429  1
  Mn  Mn89  1  0.66786775  0.49748608  0.83343607  1
  Mn  Mn90  1  -0.00065253  0.24839846  0.16576285  1
  Mn  Mn91  1  -0.00318913  0.24893467  0.50116008  1
  Mn  Mn92  1  -0.00200490  0.25094252  0.83372889  1
  Mn  Mn93  1  -0.00266738  0.75100783  0.16704932  1
  Mn  Mn94  1  -0.00124453  0.74974540  0.49993017  1
  Mn  Mn95  1  -0.00149709  0.74932961  0.83169748  1
  Mn  Mn96  1  0.32995274  0.24979065  0.16693656  1
  Mn  Mn97  1  0.33336158  0.24981134  0.50039795  1
  Mn  Mn98  1  0.33686103  0.25253068  0.83297134  1
  Mn  Mn99  1  0.33656846  0.75091512  0.16393230  1
  Mn  Mn100  1  0.33291487  0.74950902  0.49897779  1
  Mn  Mn101  1  0.33722383  0.74725559  0.83250555  1
  Mn  Mn102  1  0.66610856  0.25048045  0.16740201  1
  Mn  Mn103  1  0.66682515  0.25065111  0.50100052  1
  Mn  Mn104  1  0.66730092  0.25125150  0.83359994  1
  Mn  Mn105  1  0.66854248  0.74998022  0.16830272  1
  Mn  Mn106  1  0.66980600  0.74712653  0.50147957  1
  Mn  Mn107  1  0.66861032  0.75040765  0.83320898  1
  Mn  Mn108  1  0.16724343  0.25051212  0.00171791  1
  Mn  Mn109  1  0.16361652  0.24771849  0.33093123  1
  Mn  Mn110  1  0.16533158  0.25188371  0.66550137  1
  Mn  Mn111  1  0.16843339  0.74995084  -0.00103656  1
  Mn  Mn112  1  0.16360392  0.75370036  0.33148348  1
  Mn  Mn113  1  0.16388898  0.74656843  0.66530583  1
  Mn  Mn114  1  0.50254697  0.25063276  0.00008613  1
  Mn  Mn115  1  0.49794162  0.25046855  0.33432970  1
  Mn  Mn116  1  0.50027009  0.25217712  0.67000257  1
  Mn  Mn117  1  0.50100307  0.74992211  -0.00039923  1
  Mn  Mn118  1  0.50068079  0.74979506  0.33259312  1
  Mn  Mn119  1  0.50261867  0.74571597  0.66950668  1
  Mn  Mn120  1  0.83399239  0.24924703  -0.00125858  1
  Mn  Mn121  1  0.83082284  0.24861012  0.33320447  1
  Mn  Mn122  1  0.83181357  0.25136660  0.66656303  1
  Mn  Mn123  1  0.83659380  0.75043133  0.00006611  1
  Mn  Mn124  1  0.83479959  0.75014569  0.33414577  1
  Mn  Mn125  1  0.83214641  0.74884750  0.66662878  1
  Mn  Mn126  1  0.16862986  -0.00038912  0.00201829  1
  Mn  Mn127  1  0.16421129  -0.00351555  0.32912019  1
  Mn  Mn128  1  0.16491047  -0.00001641  0.66505674  1
  Mn  Mn129  1  0.16730302  0.50138871  -0.00298783  1
  Mn  Mn130  1  0.16375584  0.50147650  0.33093639  1
  Mn  Mn131  1  0.16479800  0.49968977  0.66641234  1
  Mn  Mn132  1  0.50284120  -0.00101532  0.00054340  1
  Mn  Mn133  1  0.49741426  0.00055989  0.33357240  1
  Mn  Mn134  1  0.50157755  0.00146489  0.67211330  1
  Mn  Mn135  1  0.49995739  0.50029480  -0.00017572  1
  Mn  Mn136  1  0.49973712  0.50008651  0.33327685  1
  Mn  Mn137  1  0.50067284  0.49982656  0.66781187  1
  Mn  Mn138  1  0.83466198  0.00122609  -0.00045087  1
  Mn  Mn139  1  0.83402405  0.00020932  0.33286099  1
  Mn  Mn140  1  0.83223102  -0.00024255  0.66549162  1
  Mn  Mn141  1  0.83645682  0.49912591  -0.00011849  1
  Mn  Mn142  1  0.83214650  0.50083880  0.33401863  1
  Mn  Mn143  1  0.83202655  0.49973810  0.66751831  1
  O  O144  1  0.16101297  0.12588736  0.02489462  1
  O  O145  1  0.17929195  0.11838457  0.33824398  1
  O  O146  1  0.16939895  0.12921026  0.67297851  1
  O  O147  1  0.16594503  0.62561701  0.01030444  1
  O  O148  1  0.15900911  0.63283375  0.34941386  1
  O  O149  1  0.16126143  0.62149270  0.69185528  1
  O  O150  1  0.51088154  0.12627314  0.01288901  1
  O  O151  1  0.50221656  0.12430753  0.34238669  1
  O  O152  1  0.51207722  0.12951266  0.69622837  1
  O  O153  1  0.49452916  0.62389699  0.01838239  1
  O  O154  1  0.50543565  0.62462111  0.34905825  1
  O  O155  1  0.51129739  0.62148204  0.69124902  1
  O  O156  1  0.83636008  0.12534347  0.02568597  1
  O  O157  1  0.84071616  0.12330926  0.35706146  1
  O  O158  1  0.82765987  0.12980402  0.69272140  1
  O  O159  1  0.84331076  0.62101666  0.02513593  1
  O  O160  1  0.84276930  0.62829326  0.35679661  1
  O  O161  1  0.83343093  0.62420710  0.69699237  1
  O  O162  1  0.16091511  0.37189388  0.31149170  1
  O  O163  1  0.16559294  0.37812238  0.65422579  1
  O  O164  1  0.16101903  0.37743751  0.98808768  1
  O  O165  1  0.14979828  0.87590441  0.30349644  1
  O  O166  1  0.15773340  0.86832556  0.64684036  1
  O  O167  1  0.15908241  0.87202798  0.98957546  1
  O  O168  1  0.49881411  0.37534931  0.31437760  1
  O  O169  1  0.50093540  0.37759594  0.64311608  1
  O  O170  1  0.49998747  0.37453927  0.97879119  1
  O  O171  1  0.49431851  0.87665517  0.31277439  1
  O  O172  1  0.50703644  0.87226476  0.65857280  1
  O  O173  1  0.50670897  0.87578743  0.97679379  1
  O  O174  1  0.83163430  0.37213666  0.30757445  1
  O  O175  1  0.83417840  0.37674072  0.63816627  1
  O  O176  1  0.83060784  0.37311196  0.97668330  1
  O  O177  1  0.83739265  0.87559852  0.30614504  1
  O  O178  1  0.82954566  0.86921271  0.63933649  1
  O  O179  1  0.83053101  0.87989010  0.97618751  1
  O  O180  1  -0.00206253  0.37366862  0.17866501  1
  O  O181  1  -0.01071963  0.38057748  0.52234771  1
  O  O182  1  -0.00750263  0.37679589  0.86055510  1
  O  O183  1  -0.01115690  0.87803777  0.19242510  1
  O  O184  1  -0.00901865  0.87084872  0.52763336  1
  O  O185  1  -0.00763508  0.87555823  0.85639458  1
  O  O186  1  0.33435517  0.37446578  0.17582554  1
  O  O187  1  0.33628354  0.37996877  0.52069917  1
  O  O188  1  0.34117445  0.37791279  0.85827436  1
  O  O189  1  0.33667752  0.87656034  0.18717081  1
  O  O190  1  0.32868950  0.87229893  0.51090901  1
  O  O191  1  0.34348026  0.87070101  0.84474721  1
  O  O192  1  0.67883740  0.37426684  0.17933633  1
  O  O193  1  0.67233996  0.37740379  0.52206063  1
  O  O194  1  0.67197484  0.37148129  0.86308769  1
  O  O195  1  0.67465161  0.87495647  0.17844362  1
  O  O196  1  0.67635892  0.87226721  0.52410998  1
  O  O197  1  0.67162863  0.88047402  0.86092422  1
  O  O198  1  -0.00068859  0.12396588  0.13780422  1
  O  O199  1  -0.00929424  0.11857131  0.47977029  1
  O  O200  1  -0.00839639  0.12537722  0.81610825  1
  O  O201  1  -0.01038475  0.62436524  0.13924658  1
  O  O202  1  -0.00802961  0.63012571  0.47300541  1
  O  O203  1  -0.00793907  0.62234020  0.80831762  1
  O  O204  1  0.31911268  0.12406057  0.15812969  1
  O  O205  1  0.33094537  0.12028779  0.48012425  1
  O  O206  1  0.34688939  0.13067777  0.81084305  1
  O  O207  1  0.33775466  0.62500492  0.14267015  1
  O  O208  1  0.33516993  0.62810401  0.48869213  1
  O  O209  1  0.33546092  0.62164955  0.80895855  1
  O  O210  1  0.67094604  0.12571212  0.14025024  1
  O  O211  1  0.67569400  0.12593002  0.48073077  1
  O  O212  1  0.66646862  0.12704040  0.80631566  1
  O  O213  1  0.67128429  0.62497323  0.15468898  1
  O  O214  1  0.67543224  0.62446278  0.47559096  1
  O  O215  1  0.67333577  0.62239521  0.81151294  1
  O  O216  1  0.06812207  0.02374061  0.26104495  1
  O  O217  1  0.07331921  0.00433315  0.58774959  1
  O  O218  1  0.07486839  0.01199168  0.93182231  1
  O  O219  1  0.07451036  0.51684133  0.24990280  1
  O  O220  1  0.07917373  0.52423789  0.57919576  1
  O  O221  1  0.08366375  0.52252723  0.91023022  1
  O  O222  1  0.39807032  0.01300588  0.26043667  1
  O  O223  1  0.41406236  0.01820504  0.59911854  1
  O  O224  1  0.42346186  0.01184512  0.91706411  1
  O  O225  1  0.42147466  0.50705715  0.24222855  1
  O  O226  1  0.41442243  0.52253274  0.59110055  1
  O  O227  1  0.41194139  0.51755687  0.92075443  1
  O  O228  1  0.74513857  0.02557871  0.25570586  1
  O  O229  1  0.74811602  0.02273098  0.58844223  1
  O  O230  1  0.74985237  0.02737084  0.91620044  1
  O  O231  1  0.75013179  0.52323785  0.25418656  1
  O  O232  1  0.74827736  0.52333290  0.58784729  1
  O  O233  1  0.76084258  0.51324951  0.91193561  1
  O  O234  1  0.23656527  0.24105495  0.23878578  1
  O  O235  1  0.25328515  0.24198971  0.58505533  1
  O  O236  1  0.25361571  0.24561599  0.91775005  1
  O  O237  1  0.24704898  0.75107638  0.24607745  1
  O  O238  1  0.24364937  0.72859817  0.58134629  1
  O  O239  1  0.25308777  0.72891211  0.91236410  1
  O  O240  1  0.58410684  0.23942811  0.25144670  1
  O  O241  1  0.59081370  0.23942056  0.59442584  1
  O  O242  1  0.59046638  0.23165031  0.91875669  1
  O  O243  1  0.58428011  0.73712147  0.25079554  1
  O  O244  1  0.58432126  0.72635415  0.58432654  1
  O  O245  1  0.58188836  0.74221790  0.91247268  1
  O  O246  1  0.91113812  0.22834351  0.24391046  1
  O  O247  1  0.91000350  0.23225726  0.58318321  1
  O  O248  1  0.91264155  0.22860274  0.91537091  1
  O  O249  1  0.90959343  0.72816882  0.24372896  1
  O  O250  1  0.91308975  0.72499659  0.58326608  1
  O  O251  1  0.92036126  0.72846939  0.91846128  1
  O  O252  1  0.08092111  0.48505171  0.08154817  1
  O  O253  1  0.07856727  0.50074538  0.41599951  1
  O  O254  1  0.07031731  0.48419318  0.74138380  1
  O  O255  1  0.08869101  0.98056916  0.10002539  1
  O  O256  1  0.08719916  0.97660444  0.42164600  1
  O  O257  1  0.07913438  0.98640686  0.74989253  1
  O  O258  1  0.41765666  0.47724873  0.08072765  1
  O  O259  1  0.42131150  0.49597345  0.42385680  1
  O  O260  1  0.42182505  0.47670758  0.75304182  1
  O  O261  1  0.42388559  0.98315865  0.09196841  1
  O  O262  1  0.41597913  0.98557538  0.41642147  1
  O  O263  1  0.42968148  0.98999516  0.76204021  1
  O  O264  1  0.75384835  0.48117895  0.08269861  1
  O  O265  1  0.75619564  0.48664444  0.42523327  1
  O  O266  1  0.74891403  0.47462921  0.74628415  1
  O  O267  1  0.75826443  0.98406349  0.08661247  1
  O  O268  1  0.76423927  0.98666950  0.42538576  1
  O  O269  1  0.74992439  0.97881534  0.75224044  1
  O  O270  1  0.25157118  0.27314578  0.08020685  1
  O  O271  1  0.24932236  0.25362886  0.40827267  1
  O  O272  1  0.25877875  0.26253713  0.74324292  1
  O  O273  1  0.25556054  0.76487186  0.08034511  1
  O  O274  1  0.24574486  0.77209060  0.41067311  1
  O  O275  1  0.25053127  0.74913281  0.74765551  1
  O  O276  1  0.58451930  0.27510813  0.08333327  1
  O  O277  1  0.58589812  0.25639772  0.42043758  1
  O  O278  1  0.58288903  0.27840671  0.75574385  1
  O  O279  1  0.58528678  0.76972366  0.08221840  1
  O  O280  1  0.58686968  0.75202037  0.41689525  1
  O  O281  1  0.59146038  0.76968886  0.74776640  1
  O  O282  1  0.92031985  0.26990935  0.07910254  1
  O  O283  1  0.91156978  0.26246132  0.41996213  1
  O  O284  1  0.91167037  0.27394146  0.74832001  1
  O  O285  1  0.91976651  0.77599374  0.08140351  1
  O  O286  1  0.92191695  0.77521702  0.41186028  1
  O  O287  1  0.91289807  0.77215895  0.74993489  1
  O  O288  1  0.25417423  0.48222591  0.07686802  1
  O  O289  1  0.24593184  0.49973943  0.41865242  1
  O  O290  1  0.26129664  0.48714836  0.74295932  1
  O  O291  1  0.25531959  0.97858510  0.07881203  1
  O  O292  1  0.25044832  0.97499564  0.40048562  1
  O  O293  1  0.25593828  0.99978863  0.74451337  1
  O  O294  1  0.58263283  0.47790533  0.08537375  1
  O  O295  1  0.58383103  0.49618361  0.42048825  1
  O  O296  1  0.58615776  0.47511129  0.74672647  1
  O  O297  1  0.58907686  0.97778451  0.07961013  1
  O  O298  1  0.59093881  0.99621495  0.41743954  1
  O  O299  1  0.58717728  0.97708656  0.75547637  1
  O  O300  1  0.91645898  0.47274626  0.08106715  1
  O  O301  1  0.91075723  0.48654583  0.42188949  1
  O  O302  1  0.91128789  0.47601008  0.75270048  1
  O  O303  1  0.92390007  0.97863875  0.07829049  1
  O  O304  1  0.92442568  0.97756482  0.40881913  1
  O  O305  1  0.91372695  0.97872133  0.74468710  1
  O  O306  1  0.08804034  0.26944107  0.09118397  1
  O  O307  1  0.07787785  0.24789809  0.41162207  1
  O  O308  1  0.07719565  0.26429300  0.74830300  1
  O  O309  1  0.08178638  0.76828103  0.08926639  1
  O  O310  1  0.08521676  0.77411228  0.42322719  1
  O  O311  1  0.07377808  0.76120447  0.74248474  1
  O  O312  1  0.41812381  0.26794498  0.08309212  1
  O  O313  1  0.41663146  0.25691274  0.42052342  1
  O  O314  1  0.42019350  0.27902634  0.75155527  1
  O  O315  1  0.42284624  0.77184610  0.08478023  1
  O  O316  1  0.41609763  0.76125258  0.41191716  1
  O  O317  1  0.42867284  0.75814663  0.75942676  1
  O  O318  1  0.75317809  0.26811101  0.08148009  1
  O  O319  1  0.75539336  0.26283014  0.42352091  1
  O  O320  1  0.74685841  0.27502367  0.74740267  1
  O  O321  1  0.75670922  0.76584846  0.08634174  1
  O  O322  1  0.76377685  0.76308580  0.42676957  1
  O  O323  1  0.75092596  0.77384889  0.74912111  1
  O  O324  1  0.23105350  0.00247750  0.23351142  1
  O  O325  1  0.24694992  0.00570099  0.57857006  1
  O  O326  1  0.25311930  0.00689275  0.91152008  1
  O  O327  1  0.24544698  0.50367439  0.24224127  1
  O  O328  1  0.24775285  0.52311955  0.58243121  1
  O  O329  1  0.25119078  0.52210239  0.91084319  1
  O  O330  1  0.58154628  0.01008400  0.24976590  1
  O  O331  1  0.58939244  0.01182987  0.59574357  1
  O  O332  1  0.58844808  0.02254758  0.91576869  1
  O  O333  1  0.58546097  0.51365813  0.25187195  1
  O  O334  1  0.58375373  0.52167619  0.58332043  1
  O  O335  1  0.58123406  0.50575487  0.91525952  1
  O  O336  1  0.90737190  0.02357371  0.24095661  1
  O  O337  1  0.90717895  0.01392578  0.57364602  1
  O  O338  1  0.91202911  0.02193948  0.91424845  1
  O  O339  1  0.91192411  0.51955500  0.24551547  1
  O  O340  1  0.91468299  0.52571485  0.58672122  1
  O  O341  1  0.92155369  0.52184002  0.91962983  1
  O  O342  1  0.07572252  0.22190845  0.25088641  1
  O  O343  1  0.07393370  0.24681678  0.58701556  1
  O  O344  1  0.07559494  0.23843018  0.92956415  1
  O  O345  1  0.06795375  0.73527410  0.25969435  1
  O  O346  1  0.07924592  0.72353979  0.58144867  1
  O  O347  1  0.08301424  0.72947798  0.91295586  1
  O  O348  1  0.40456974  0.23694784  0.25498033  1
  O  O349  1  0.41210379  0.23527541  0.59727019  1
  O  O350  1  0.42786272  0.23833802  0.91049679  1
  O  O351  1  0.42003372  0.74379041  0.24470915  1
  O  O352  1  0.41825014  0.72778924  0.59149167  1
  O  O353  1  0.41294878  0.73211237  0.92344709  1
  O  O354  1  0.74693989  0.22309614  0.25297061  1
  O  O355  1  0.74956085  0.23081532  0.58560082  1
  O  O356  1  0.75178249  0.22497604  0.91307864  1
  O  O357  1  0.74942736  0.72749128  0.25751184  1
  O  O358  1  0.74854582  0.72081375  0.58967818  1
  O  O359  1  0.75717029  0.73753355  0.91135990  1
