# generated using pymatgen
data_Ba17Sr5La8Pr42Mn72O216
_symmetry_space_group_name_H-M   'P 1'
_cell_length_a   16.67920155
_cell_length_b   15.70150629
_cell_length_c   16.82733009
_cell_angle_alpha   90.00151897
_cell_angle_beta   90.00289719
_cell_angle_gamma   89.97839414
_symmetry_Int_Tables_number   1
_chemical_formula_structural   Ba17Sr5La8Pr42Mn72O216
_chemical_formula_sum   'Ba17 Sr5 La8 Pr42 Mn72 O216'
_cell_volume   4406.88539597
_cell_formula_units_Z   1
loop_
 _symmetry_equiv_pos_site_id
 _symmetry_equiv_pos_as_xyz
  1  'x, y, z'
loop_
 _atom_site_type_symbol
 _atom_site_label
 _atom_site_symmetry_multiplicity
 _atom_site_fract_x
 _atom_site_fract_y
 _atom_site_fract_z
 _atom_site_occupancy
  Ba  Ba0  1  0.83434248  0.87452651  0.49905876  1
  Ba  Ba1  1  0.33441493  0.37446987  0.00340049  1
  Ba  Ba2  1  0.49929978  0.62382130  0.16777243  1
  Ba  Ba3  1  0.50236487  0.37515683  0.50026315  1
  Ba  Ba4  1  0.66786236  0.87506069  0.33508618  1
  Ba  Ba5  1  0.49863358  0.87485826  0.49888865  1
  Ba  Ba6  1  0.50250599  0.87431726  0.16752887  1
  Ba  Ba7  1  0.83036870  0.62400215  0.83542969  1
  Ba  Ba8  1  -0.00136596  0.12536261  0.66360206  1
  Ba  Ba9  1  0.33524017  0.87512015  0.66912291  1
  Ba  Ba10  1  0.16767812  0.37477462  0.49776357  1
  Ba  Ba11  1  0.00070794  0.87644096  -0.00074542  1
  Ba  Ba12  1  0.16638170  0.62309052  0.50164674  1
  Ba  Ba13  1  -0.00149415  0.12531407  0.99599965  1
  Ba  Ba14  1  -0.00139413  0.62598095  0.66522324  1
  Ba  Ba15  1  0.49852784  0.12698953  0.49980486  1
  Ba  Ba16  1  0.83157862  0.62478255  0.50352370  1
  Sr  Sr17  1  0.33319017  0.87399876  0.33957739  1
  Sr  Sr18  1  0.50367632  0.37613862  0.16351207  1
  Sr  Sr19  1  0.16835332  0.37440210  0.16280891  1
  Sr  Sr20  1  0.49803236  0.62602362  0.49884573  1
  Sr  Sr21  1  0.00082557  0.87172793  0.66491308  1
  La  La22  1  -0.00063460  0.62291208  0.33466532  1
  La  La23  1  0.49424813  0.12734381  0.17074331  1
  La  La24  1  0.16159493  0.87715072  0.82970979  1
  La  La25  1  0.66301239  0.12615434  0.66491964  1
  La  La26  1  0.67008026  0.37748426  0.33416773  1
  La  La27  1  0.50295808  0.37735042  0.83126161  1
  La  La28  1  0.33377886  0.62241961  1.00383320  1
  La  La29  1  0.00079812  0.87355231  0.33563779  1
  Pr  Pr30  1  0.67084967  0.37497036  0.66718092  1
  Pr  Pr31  1  0.33531094  0.87533777  0.00501242  1
  Pr  Pr32  1  0.33291221  0.62450327  0.66334850  1
  Pr  Pr33  1  0.16648394  0.62888592  0.83536657  1
  Pr  Pr34  1  0.33306078  0.62474335  0.33531705  1
  Pr  Pr35  1  0.65773737  0.12432542  0.99835208  1
  Pr  Pr36  1  0.32966422  0.12740119  1.00302041  1
  Pr  Pr37  1  0.66070128  0.62893734  0.33687150  1
  Pr  Pr38  1  0.00494217  0.37560615  -0.00076895  1
  Pr  Pr39  1  0.00505995  0.38020506  0.66409591  1
  Pr  Pr40  1  0.33914363  0.37753317  0.33486988  1
  Pr  Pr41  1  0.84067592  0.37175107  0.82999617  1
  Pr  Pr42  1  0.33581831  0.37681014  0.66961011  1
  Pr  Pr43  1  0.33145598  0.12633716  0.33455480  1
  Pr  Pr44  1  -0.00164856  0.12911687  0.32795105  1
  Pr  Pr45  1  0.84004752  0.37418354  0.49780585  1
  Pr  Pr46  1  0.17020561  0.87565774  0.16563060  1
  Pr  Pr47  1  0.83327259  0.62480252  0.17024629  1
  Pr  Pr48  1  0.16728959  0.12023554  0.83553799  1
  Pr  Pr49  1  -0.00013608  0.62410840  0.99359594  1
  Pr  Pr50  1  0.16298635  0.87406846  0.49987814  1
  Pr  Pr51  1  0.83086714  0.12355306  0.16727842  1
  Pr  Pr52  1  0.67009654  0.87588668  0.66534121  1
  Pr  Pr53  1  0.16704900  0.36913676  0.82833641  1
  Pr  Pr54  1  0.84114214  0.87697651  0.82788805  1
  Pr  Pr55  1  0.00710376  0.37702700  0.33165066  1
  Pr  Pr56  1  0.16521167  0.12510603  0.16731586  1
  Pr  Pr57  1  0.50585545  0.87359716  0.82755528  1
  Pr  Pr58  1  0.66152084  0.62470648  0.66329900  1
  Pr  Pr59  1  0.32989829  0.12635190  0.66368645  1
  Pr  Pr60  1  0.65965753  0.12231230  0.33289316  1
  Pr  Pr61  1  0.65465577  0.62612810  0.99679530  1
  Pr  Pr62  1  0.82559596  0.12203342  0.83737141  1
  Pr  Pr63  1  0.84048534  0.37192095  0.16341512  1
  Pr  Pr64  1  0.16695856  0.62482194  0.17051485  1
  Pr  Pr65  1  0.82781493  0.12367590  0.50048063  1
  Pr  Pr66  1  0.67500951  0.87268887  0.00447395  1
  Pr  Pr67  1  0.16717375  0.12268313  0.50091154  1
  Pr  Pr68  1  0.49274891  0.62531539  0.83569231  1
  Pr  Pr69  1  0.67244162  0.37778091  0.00557699  1
  Pr  Pr70  1  0.49035678  0.12638288  0.83399789  1
  Pr  Pr71  1  0.83694112  0.87557492  0.16639924  1
  Mn  Mn72  1  0.00045344  0.00158796  0.16767755  1
  Mn  Mn73  1  0.00001630  0.00136139  0.49624374  1
  Mn  Mn74  1  -0.00080331  0.00100773  0.82931891  1
  Mn  Mn75  1  0.00076111  0.49949334  0.16240071  1
  Mn  Mn76  1  -0.00022327  0.49798310  0.49887273  1
  Mn  Mn77  1  0.00177328  0.49866247  0.83403126  1
  Mn  Mn78  1  0.33274293  -0.00049111  0.16851911  1
  Mn  Mn79  1  0.33065348  0.00067066  0.49986845  1
  Mn  Mn80  1  0.33430466  0.00028525  0.83715597  1
  Mn  Mn81  1  0.33217188  0.50006164  0.16797219  1
  Mn  Mn82  1  0.33532163  0.49929490  0.50103672  1
  Mn  Mn83  1  0.33135709  0.50017477  0.83430251  1
  Mn  Mn84  1  0.66799482  0.00093503  0.16467662  1
  Mn  Mn85  1  0.66644764  0.00237643  0.50014279  1
  Mn  Mn86  1  0.66439325  0.00007914  0.83489727  1
  Mn  Mn87  1  0.67021165  0.50001734  0.16812066  1
  Mn  Mn88  1  0.66744681  0.49809231  0.50118475  1
  Mn  Mn89  1  0.66605513  0.49850541  0.83489506  1
  Mn  Mn90  1  0.00082670  0.25052752  0.16284993  1
  Mn  Mn91  1  -0.00027967  0.24905416  0.49492018  1
  Mn  Mn92  1  -0.00015511  0.24917944  0.82981013  1
  Mn  Mn93  1  0.00053786  0.74932167  0.16639486  1
  Mn  Mn94  1  0.00008896  0.75168897  0.50060581  1
  Mn  Mn95  1  -0.00015999  0.74932796  0.83308225  1
  Mn  Mn96  1  0.33210370  0.24993950  0.16805580  1
  Mn  Mn97  1  0.33236277  0.25097833  0.49971258  1
  Mn  Mn98  1  0.33331330  0.24973325  0.83453814  1
  Mn  Mn99  1  0.33227504  0.75153616  0.16899878  1
  Mn  Mn100  1  0.33219208  0.74940451  0.50097535  1
  Mn  Mn101  1  0.33257064  0.75007742  0.83714731  1
  Mn  Mn102  1  0.66863523  0.24958304  0.16619367  1
  Mn  Mn103  1  0.66954469  0.25171714  0.49929437  1
  Mn  Mn104  1  0.66499230  0.25037797  0.83525105  1
  Mn  Mn105  1  0.67026793  0.74909319  0.16656114  1
  Mn  Mn106  1  0.66460527  0.74771807  0.50120462  1
  Mn  Mn107  1  0.66574099  0.75036338  0.83374942  1
  Mn  Mn108  1  0.16694616  0.24980931  -0.00188055  1
  Mn  Mn109  1  0.16745354  0.25027554  0.33053928  1
  Mn  Mn110  1  0.16719528  0.24908983  0.66495921  1
  Mn  Mn111  1  0.16752374  0.74965844  0.00221451  1
  Mn  Mn112  1  0.16617096  0.75022698  0.33336864  1
  Mn  Mn113  1  0.16774396  0.75111691  0.66821019  1
  Mn  Mn114  1  0.50123094  0.24932265  0.00117613  1
  Mn  Mn115  1  0.50037120  0.25117227  0.33068644  1
  Mn  Mn116  1  0.49997611  0.25169685  0.66959927  1
  Mn  Mn117  1  0.49817697  0.75122191  -0.00317831  1
  Mn  Mn118  1  0.49770276  0.74867507  0.33494997  1
  Mn  Mn119  1  0.50147594  0.74940613  0.66796221  1
  Mn  Mn120  1  0.83127881  0.25016513  -0.00204178  1
  Mn  Mn121  1  0.83369875  0.25121152  0.33132728  1
  Mn  Mn122  1  0.83264363  0.24977270  0.66613179  1
  Mn  Mn123  1  0.83378752  0.74866219  0.00185470  1
  Mn  Mn124  1  0.83494901  0.74633743  0.33266216  1
  Mn  Mn125  1  0.83153521  0.75119948  0.66895091  1
  Mn  Mn126  1  0.16859961  -0.00095812  0.00034376  1
  Mn  Mn127  1  0.16522210  0.00117155  0.33391423  1
  Mn  Mn128  1  0.16637065  0.00047451  0.66679433  1
  Mn  Mn129  1  0.16681538  0.50140147  0.00024593  1
  Mn  Mn130  1  0.16793389  0.50002174  0.33013522  1
  Mn  Mn131  1  0.16848964  0.49812468  0.66916134  1
  Mn  Mn132  1  0.49917653  0.00062747  -0.00195552  1
  Mn  Mn133  1  0.49747416  0.00071203  0.33367889  1
  Mn  Mn134  1  0.50106278  0.00030793  0.66875797  1
  Mn  Mn135  1  0.50030095  0.49861411  -0.00058532  1
  Mn  Mn136  1  0.50109253  0.49914393  0.33263696  1
  Mn  Mn137  1  0.50046258  0.49961029  0.66767269  1
  Mn  Mn138  1  0.83099033  0.00053323  -0.00026370  1
  Mn  Mn139  1  0.83510268  0.00382551  0.33301856  1
  Mn  Mn140  1  0.83289890  0.00174784  0.66736804  1
  Mn  Mn141  1  0.83334433  0.49898557  0.00189391  1
  Mn  Mn142  1  0.83394132  0.49859692  0.33163907  1
  Mn  Mn143  1  0.83109245  0.49739374  0.66754071  1
  O  O144  1  0.17088538  0.12215680  0.02215593  1
  O  O145  1  0.16581018  0.12496204  0.35816298  1
  O  O146  1  0.17344782  0.12635929  0.69196941  1
  O  O147  1  0.15843239  0.62693270  0.02681253  1
  O  O148  1  0.16909813  0.62556491  0.34500778  1
  O  O149  1  0.17506989  0.62174005  0.69098066  1
  O  O150  1  0.50576026  0.12419569  0.02612764  1
  O  O151  1  0.50353159  0.12800571  0.34023180  1
  O  O152  1  0.50576233  0.12748500  0.69122501  1
  O  O153  1  0.50325579  0.62504337  0.01050804  1
  O  O154  1  0.50360247  0.62096175  0.34550724  1
  O  O155  1  0.50710399  0.62238956  0.69397257  1
  O  O156  1  0.82874780  0.12630479  0.02253681  1
  O  O157  1  0.84704369  0.13159193  0.35779494  1
  O  O158  1  0.82865092  0.12808937  0.69470735  1
  O  O159  1  0.84428268  0.61936120  0.02555026  1
  O  O160  1  0.84570854  0.61975647  0.34653985  1
  O  O161  1  0.82528113  0.62229464  0.67933385  1
  O  O162  1  0.16345213  0.37511812  0.31066252  1
  O  O163  1  0.16907439  0.37163222  0.65477760  1
  O  O164  1  0.16376396  0.37697777  0.97308838  1
  O  O165  1  0.16128505  0.87670076  0.30705999  1
  O  O166  1  0.16709133  0.87925425  0.64735295  1
  O  O167  1  0.17745642  0.87391474  0.97488930  1
  O  O168  1  0.49576303  0.37346411  0.31337230  1
  O  O169  1  0.48915323  0.37548075  0.65696251  1
  O  O170  1  0.50588311  0.37357812  0.97688169  1
  O  O171  1  0.49504875  0.87837486  0.32575094  1
  O  O172  1  0.50445346  0.87496657  0.65693808  1
  O  O173  1  0.49032896  0.87752977  0.97191746  1
  O  O174  1  0.82398468  0.37437473  0.30387553  1
  O  O175  1  0.82219273  0.37086886  0.64312254  1
  O  O176  1  0.82303437  0.37396371  0.97357083  1
  O  O177  1  0.83849592  0.87540075  0.30966652  1
  O  O178  1  0.82378697  0.87824023  0.65740067  1
  O  O179  1  0.82341885  0.87830860  0.97424443  1
  O  O180  1  -0.00178292  0.37412951  0.18902079  1
  O  O181  1  -0.00359218  0.37110348  0.51871736  1
  O  O182  1  0.00199451  0.37311686  0.85577811  1
  O  O183  1  -0.00087982  0.87801892  0.19216751  1
  O  O184  1  0.00580739  0.87949866  0.51303431  1
  O  O185  1  -0.00051529  0.87518464  0.84208114  1
  O  O186  1  0.32936573  0.37213981  0.19002885  1
  O  O187  1  0.33467652  0.37439058  0.52318001  1
  O  O188  1  0.33133600  0.37423010  0.84824424  1
  O  O189  1  0.32490348  0.87674257  0.18802410  1
  O  O190  1  0.32646530  0.87653716  0.51111969  1
  O  O191  1  0.33820076  0.87850001  0.86185603  1
  O  O192  1  0.67410575  0.37279763  0.19033330  1
  O  O193  1  0.67564960  0.37342688  0.52138605  1
  O  O194  1  0.65974966  0.37061440  0.86433905  1
  O  O195  1  0.67482083  0.87428160  0.17803749  1
  O  O196  1  0.66640744  0.87572172  0.51793447  1
  O  O197  1  0.65661300  0.87756446  0.86279354  1
  O  O198  1  0.00048949  0.12724256  0.15093012  1
  O  O199  1  0.00147597  0.12691177  0.47152283  1
  O  O200  1  -0.00084379  0.12670250  0.82043138  1
  O  O201  1  -0.00166983  0.62117993  0.13703250  1
  O  O202  1  -0.00133449  0.62152819  0.48176554  1
  O  O203  1  0.00577007  0.62299674  0.82274640  1
  O  O204  1  0.33222941  0.12272808  0.14575620  1
  O  O205  1  0.32282960  0.12710605  0.47961404  1
  O  O206  1  0.33359737  0.12568909  0.80738484  1
  O  O207  1  0.32479244  0.62867839  0.14712109  1
  O  O208  1  0.33207683  0.62197929  0.48191401  1
  O  O209  1  0.33186441  0.62180288  0.80725555  1
  O  O210  1  0.67371905  0.12651969  0.14001780  1
  O  O211  1  0.67331291  0.13079814  0.47951832  1
  O  O212  1  0.67264572  0.12672122  0.80729993  1
  O  O213  1  0.67694989  0.62466006  0.13942635  1
  O  O214  1  0.66542618  0.61973729  0.48376603  1
  O  O215  1  0.66126103  0.62709052  0.80802374  1
  O  O216  1  0.08105378  0.02470054  0.25337092  1
  O  O217  1  0.08879140  0.01620841  0.57262474  1
  O  O218  1  0.08981463  0.00988084  0.90991373  1
  O  O219  1  0.08157523  0.52073275  0.24445960  1
  O  O220  1  0.08270459  0.50227849  0.58908828  1
  O  O221  1  0.08537026  0.52104071  0.91803962  1
  O  O222  1  0.41392120  0.02168378  0.24910703  1
  O  O223  1  0.41177705  0.01768149  0.59236457  1
  O  O224  1  0.41277207  0.02991591  0.92208558  1
  O  O225  1  0.40667677  0.51251845  0.25848473  1
  O  O226  1  0.41550830  0.51936674  0.59128046  1
  O  O227  1  0.41248684  0.51896155  0.91506656  1
  O  O228  1  0.75176988  0.02648632  0.25368689  1
  O  O229  1  0.74730842  0.02194052  0.58916953  1
  O  O230  1  0.73891933  0.02282771  0.92240977  1
  O  O231  1  0.74804266  0.52520231  0.25530254  1
  O  O232  1  0.73868763  0.51030372  0.59681500  1
  O  O233  1  0.74017597  0.51715183  0.93254505  1
  O  O234  1  0.24679145  0.22416173  0.24754616  1
  O  O235  1  0.24699333  0.22779931  0.58231680  1
  O  O236  1  0.24845168  0.22645528  0.91272419  1
  O  O237  1  0.24525204  0.73245500  0.24761087  1
  O  O238  1  0.25487535  0.73476518  0.59234925  1
  O  O239  1  0.24828424  0.72248705  0.92295857  1
  O  O240  1  0.58073357  0.23147377  0.24021707  1
  O  O241  1  0.58547928  0.24250995  0.59035575  1
  O  O242  1  0.57766450  0.22374077  0.90975004  1
  O  O243  1  0.58985619  0.73575024  0.24983813  1
  O  O244  1  0.58154009  0.73006283  0.58583029  1
  O  O245  1  0.57258687  0.73286358  0.90384037  1
  O  O246  1  0.90963378  0.23374357  0.24191073  1
  O  O247  1  0.90771113  0.23663228  0.56853319  1
  O  O248  1  0.90331819  0.23884476  0.90373310  1
  O  O249  1  0.91700006  0.72867376  0.24628966  1
  O  O250  1  0.91424795  0.74718627  0.58506232  1
  O  O251  1  0.91789289  0.73698034  0.92259517  1
  O  O252  1  0.08006056  0.47913811  0.07757891  1
  O  O253  1  0.07948830  0.48883137  0.40582872  1
  O  O254  1  0.08597328  0.47651486  0.75327048  1
  O  O255  1  0.09153061  0.98544819  0.09288532  1
  O  O256  1  0.08425201  0.97916931  0.41432018  1
  O  O257  1  0.08562028  0.98760874  0.74776238  1
  O  O258  1  0.41787161  0.49123064  0.08726063  1
  O  O259  1  0.41649196  0.48716480  0.41574752  1
  O  O260  1  0.41700755  0.48380309  0.75319596  1
  O  O261  1  0.41478607  0.98672563  0.07929990  1
  O  O262  1  0.40700231  0.99955955  0.41355296  1
  O  O263  1  0.42607855  0.98905578  0.76348798  1
  O  O264  1  0.75936433  0.47738373  0.09271616  1
  O  O265  1  0.75630139  0.47897581  0.41943825  1
  O  O266  1  0.75249702  0.47379200  0.75926651  1
  O  O267  1  0.75550795  0.98057981  0.08736160  1
  O  O268  1  0.75528572  1.00171116  0.41800369  1
  O  O269  1  0.75165491  0.98108371  0.76226192  1
  O  O270  1  0.25005589  0.25579882  0.08388314  1
  O  O271  1  0.25533592  0.26567891  0.40485427  1
  O  O272  1  0.25523051  0.26827362  0.74729603  1
  O  O273  1  0.25112558  0.77190074  0.08315379  1
  O  O274  1  0.24402802  0.76685236  0.41784239  1
  O  O275  1  0.24640403  0.76598639  0.76240862  1
  O  O276  1  0.59551865  0.26661572  0.07494917  1
  O  O277  1  0.59470679  0.26267193  0.40415677  1
  O  O278  1  0.58748254  0.27342541  0.75015252  1
  O  O279  1  0.59075278  0.76268710  0.06777639  1
  O  O280  1  0.58391219  0.75058495  0.41638404  1
  O  O281  1  0.59265302  0.77274150  0.74470784  1
  O  O282  1  0.91914223  0.27355263  0.07354015  1
  O  O283  1  0.92033822  0.27772785  0.40449372  1
  O  O284  1  0.92033365  0.27630721  0.74076372  1
  O  O285  1  0.91551103  0.76863980  0.09000975  1
  O  O286  1  0.92389420  0.76121506  0.40685872  1
  O  O287  1  0.91372006  0.76407072  0.75237755  1
  O  O288  1  0.24640143  0.49363628  0.08450381  1
  O  O289  1  0.25743930  0.48575387  0.40788573  1
  O  O290  1  0.24925632  0.47679918  0.75422654  1
  O  O291  1  0.25215595  0.97962121  0.08389651  1
  O  O292  1  0.24023102  0.98570531  0.42174957  1
  O  O293  1  0.24654192  0.98636905  0.76134741  1
  O  O294  1  0.59534777  0.48492146  0.07764697  1
  O  O295  1  0.59353412  0.48598105  0.40896607  1
  O  O296  1  0.58642586  0.47507608  0.74574507  1
  O  O297  1  0.59127799  0.98449177  0.06724302  1
  O  O298  1  0.58572435  1.00011680  0.41301071  1
  O  O299  1  0.59001352  0.98020812  0.74860911  1
  O  O300  1  0.91918803  0.47073437  0.07950819  1
  O  O301  1  0.91861439  0.47372691  0.40758170  1
  O  O302  1  0.91803396  0.47531065  0.74747783  1
  O  O303  1  0.91393622  0.98629840  0.08849700  1
  O  O304  1  0.92581434  0.98739010  0.40476041  1
  O  O305  1  0.91569194  0.98513118  0.74724285  1
  O  O306  1  0.08314366  0.26858038  0.07751145  1
  O  O307  1  0.07881313  0.26445947  0.40591996  1
  O  O308  1  0.08443395  0.26975860  0.74659655  1
  O  O309  1  0.09100833  0.76886194  0.09164657  1
  O  O310  1  0.08423176  0.76907436  0.41393578  1
  O  O311  1  0.08813563  0.76271571  0.75323664  1
  O  O312  1  0.42345687  0.25743393  0.09238598  1
  O  O313  1  0.41484816  0.26140234  0.41400986  1
  O  O314  1  0.42294660  0.26520751  0.76067641  1
  O  O315  1  0.41244673  0.76364032  0.07953044  1
  O  O316  1  0.41084307  0.75134047  0.41635925  1
  O  O317  1  0.42894292  0.75998367  0.76095672  1
  O  O318  1  0.75741812  0.27089867  0.08962119  1
  O  O319  1  0.76036936  0.26983154  0.41939129  1
  O  O320  1  0.75151586  0.27366210  0.75854665  1
  O  O321  1  0.75717439  0.76940498  0.08813826  1
  O  O322  1  0.74987942  0.74958722  0.41406860  1
  O  O323  1  0.75183597  0.77451203  0.76145576  1
  O  O324  1  0.24566987  0.02417057  0.25084861  1
  O  O325  1  0.24988916  0.02338013  0.58676735  1
  O  O326  1  0.25326186  0.02480379  0.91951211  1
  O  O327  1  0.24789669  0.52105394  0.24788832  1
  O  O328  1  0.25744938  0.50956901  0.59403793  1
  O  O329  1  0.24781260  0.52654934  0.91763707  1
  O  O330  1  0.58402652  0.01998919  0.24199694  1
  O  O331  1  0.58747529  0.01414664  0.58870416  1
  O  O332  1  0.57503026  0.02568888  0.90746837  1
  O  O333  1  0.58865357  0.50951671  0.24998402  1
  O  O334  1  0.58130629  0.51237820  0.58628218  1
  O  O335  1  0.57819256  0.51964760  0.90826511  1
  O  O336  1  0.91416197  0.02374651  0.24652465  1
  O  O337  1  0.91130132  0.01836050  0.57130087  1
  O  O338  1  0.90421221  0.01215488  0.90903340  1
  O  O339  1  0.91548969  0.51499167  0.24209184  1
  O  O340  1  0.91139628  0.49714277  0.58286327  1
  O  O341  1  0.92072019  0.50704956  0.92129530  1
  O  O342  1  0.08430136  0.22960161  0.24823932  1
  O  O343  1  0.08606316  0.23393213  0.57623701  1
  O  O344  1  0.08923507  0.23665886  0.90806767  1
  O  O345  1  0.07924484  0.72728555  0.25138488  1
  O  O346  1  0.08675263  0.74665794  0.58208608  1
  O  O347  1  0.08510636  0.73268390  0.91916865  1
  O  O348  1  0.40957874  0.23047407  0.25402369  1
  O  O349  1  0.40882159  0.23610452  0.59756092  1
  O  O350  1  0.41179425  0.22697005  0.92199410  1
  O  O351  1  0.40868429  0.73512396  0.25463128  1
  O  O352  1  0.41558230  0.73062681  0.59179138  1
  O  O353  1  0.41026135  0.72633360  0.92072504  1
  O  O354  1  0.74614458  0.22334096  0.25584474  1
  O  O355  1  0.74793958  0.22654602  0.58905612  1
  O  O356  1  0.74179237  0.22644390  0.92194904  1
  O  O357  1  0.75338879  0.72588319  0.25109904  1
  O  O358  1  0.73866758  0.74021823  0.59665010  1
  O  O359  1  0.73521759  0.73277523  0.92825464  1
