# generated using pymatgen
data_Ba17Sr5La8Pr42Mn72O216
_symmetry_space_group_name_H-M   'P 1'
_cell_length_a   16.68087892
_cell_length_b   15.70463916
_cell_length_c   16.81476748
_cell_angle_alpha   90.00735470
_cell_angle_beta   89.98985415
_cell_angle_gamma   89.99954853
_symmetry_Int_Tables_number   1
_chemical_formula_structural   Ba17Sr5La8Pr42Mn72O216
_chemical_formula_sum   'Ba17 Sr5 La8 Pr42 Mn72 O216'
_cell_volume   4404.91718529
_cell_formula_units_Z   1
loop_
 _symmetry_equiv_pos_site_id
 _symmetry_equiv_pos_as_xyz
  1  'x, y, z'
loop_
 _atom_site_type_symbol
 _atom_site_label
 _atom_site_symmetry_multiplicity
 _atom_site_fract_x
 _atom_site_fract_y
 _atom_site_fract_z
 _atom_site_occupancy
  Ba  Ba0  1  0.49900759  0.62569672  0.83655962  1
  Ba  Ba1  1  0.50068959  0.12398047  0.83508002  1
  Ba  Ba2  1  0.49766220  0.62462263  0.16882456  1
  Ba  Ba3  1  0.16354568  0.62480325  0.83270524  1
  Ba  Ba4  1  0.16480917  0.12504079  0.83113508  1
  Ba  Ba5  1  0.00353530  0.37465230  0.33438532  1
  Ba  Ba6  1  0.49820543  0.12384969  0.50243404  1
  Ba  Ba7  1  0.83439083  0.87605001  0.49666809  1
  Ba  Ba8  1  0.83378499  0.62459400  0.82994776  1
  Ba  Ba9  1  0.66455411  0.12618695  0.66696577  1
  Ba  Ba10  1  0.00207173  0.87599184  0.00111781  1
  Ba  Ba11  1  0.66645589  0.87476368  0.33570455  1
  Ba  Ba12  1  0.83252344  0.87670351  0.16497688  1
  Ba  Ba13  1  0.66635874  0.37553240  0.00225559  1
  Ba  Ba14  1  0.83410898  0.62560140  0.16464456  1
  Ba  Ba15  1  0.00347982  0.37412463  0.00340289  1
  Ba  Ba16  1  0.83412759  0.37414883  0.16568600  1
  Sr  Sr17  1  0.49790028  0.12702347  0.17008187  1
  Sr  Sr18  1  0.83126468  0.12687905  0.16309411  1
  Sr  Sr19  1  0.50423020  0.87799998  0.49790615  1
  Sr  Sr20  1  0.66797650  0.37537428  0.33125821  1
  Sr  Sr21  1  -0.00588935  0.62591845  0.66798868  1
  La  La22  1  0.83449780  0.37327450  0.49298621  1
  La  La23  1  0.83218174  0.12665892  0.83504790  1
  La  La24  1  0.34168720  0.87435149  0.33323470  1
  La  La25  1  0.17054514  0.87479952  0.82943169  1
  La  La26  1  0.67101644  0.12608948  0.99885407  1
  La  La27  1  0.17415003  0.37674122  0.49556408  1
  La  La28  1  0.83046238  0.62367538  0.50161496  1
  La  La29  1  0.16277892  0.62613840  0.16549918  1
  Pr  Pr30  1  0.66727965  0.12230540  0.33172843  1
  Pr  Pr31  1  0.00299413  0.37632919  0.67195737  1
  Pr  Pr32  1  0.15681585  0.62351832  0.50445027  1
  Pr  Pr33  1  -0.00932721  0.12496031  0.33174426  1
  Pr  Pr34  1  0.66547815  0.62347443  0.66352413  1
  Pr  Pr35  1  0.49950784  0.62835033  0.50415694  1
  Pr  Pr36  1  0.50417445  0.37474785  0.16477180  1
  Pr  Pr37  1  0.34083659  0.87520362  0.66689838  1
  Pr  Pr38  1  0.32679045  0.62609375  0.66136615  1
  Pr  Pr39  1  0.33809837  0.37469501  -0.00120505  1
  Pr  Pr40  1  0.50572189  0.37613885  0.83367196  1
  Pr  Pr41  1  0.82619575  0.12656957  0.49860725  1
  Pr  Pr42  1  0.34096318  0.37426243  0.66915848  1
  Pr  Pr43  1  0.50792484  0.37167905  0.49909993  1
  Pr  Pr44  1  0.17264986  0.87309220  0.49735707  1
  Pr  Pr45  1  0.32988823  0.62519121  0.32804121  1
  Pr  Pr46  1  0.66265452  0.87222812  0.00378584  1
  Pr  Pr47  1  0.83428140  0.87531532  0.82743743  1
  Pr  Pr48  1  0.67004069  0.62691145  0.33214089  1
  Pr  Pr49  1  0.32780967  0.12348396  0.65916357  1
  Pr  Pr50  1  0.50276335  0.87431371  0.83271000  1
  Pr  Pr51  1  0.00358179  0.87372648  0.33470134  1
  Pr  Pr52  1  0.33710514  0.87566766  -0.00291481  1
  Pr  Pr53  1  -0.00964891  0.12245286  0.66479917  1
  Pr  Pr54  1  0.00172004  0.87291723  0.67288494  1
  Pr  Pr55  1  0.50226641  0.87601557  0.16732198  1
  Pr  Pr56  1  0.17199846  0.37464884  0.83010724  1
  Pr  Pr57  1  0.33285178  0.12375759  0.99567042  1
  Pr  Pr58  1  0.17283715  0.37396221  0.16385746  1
  Pr  Pr59  1  0.17250215  0.87686676  0.16350034  1
  Pr  Pr60  1  0.34157836  0.37510019  0.33269754  1
  Pr  Pr61  1  -0.01020062  0.62539207  0.99619487  1
  Pr  Pr62  1  0.16004025  0.12611247  0.50427815  1
  Pr  Pr63  1  0.15984146  0.12416192  0.16825982  1
  Pr  Pr64  1  0.67415015  0.62368861  0.99885837  1
  Pr  Pr65  1  -0.00655315  0.62576447  0.33270632  1
  Pr  Pr66  1  0.33016468  0.12375387  0.32963729  1
  Pr  Pr67  1  0.66364324  0.87697979  0.66656259  1
  Pr  Pr68  1  0.33071454  0.62568135  0.99418416  1
  Pr  Pr69  1  -0.00937602  0.12447484  1.00032807  1
  Pr  Pr70  1  0.83738974  0.37609787  0.83214568  1
  Pr  Pr71  1  0.66502925  0.37307333  0.67020372  1
  Mn  Mn72  1  0.00121255  0.00113105  0.16841078  1
  Mn  Mn73  1  0.00175152  -0.00013819  0.49995340  1
  Mn  Mn74  1  0.00065421  0.00081682  0.83362784  1
  Mn  Mn75  1  0.00363412  0.50124624  0.16716061  1
  Mn  Mn76  1  -0.00015124  0.49974598  0.50288273  1
  Mn  Mn77  1  0.00136930  0.49876246  0.83501956  1
  Mn  Mn78  1  0.33307026  0.00087402  0.16518236  1
  Mn  Mn79  1  0.33065778  -0.00227557  0.49722161  1
  Mn  Mn80  1  0.33350445  0.00021319  0.83108979  1
  Mn  Mn81  1  0.33239330  0.49940478  0.16608980  1
  Mn  Mn82  1  0.33494742  0.50088440  0.49779458  1
  Mn  Mn83  1  0.33281141  0.49914753  0.83244443  1
  Mn  Mn84  1  0.66405933  0.00159786  0.16582642  1
  Mn  Mn85  1  0.66595845  0.00052149  0.49996062  1
  Mn  Mn86  1  0.66776397  -0.00193390  0.83549613  1
  Mn  Mn87  1  0.66537497  0.50127053  0.16864750  1
  Mn  Mn88  1  0.66588542  0.49918827  0.49963284  1
  Mn  Mn89  1  0.66698621  0.50012711  0.83227125  1
  Mn  Mn90  1  0.00264256  0.24882926  0.16789261  1
  Mn  Mn91  1  0.00077883  0.24896598  0.50293517  1
  Mn  Mn92  1  0.00153767  0.24978165  0.83402276  1
  Mn  Mn93  1  0.00277180  0.75041778  0.16734938  1
  Mn  Mn94  1  0.00079526  0.75111913  0.50112227  1
  Mn  Mn95  1  0.00025945  0.75041492  0.83446494  1
  Mn  Mn96  1  0.33242777  0.24891199  0.16577763  1
  Mn  Mn97  1  0.33202979  0.25173685  0.49842459  1
  Mn  Mn98  1  0.33393648  0.24970208  0.83271953  1
  Mn  Mn99  1  0.33222935  0.75129207  0.16505410  1
  Mn  Mn100  1  0.33381306  0.74868579  0.49707275  1
  Mn  Mn101  1  0.33242575  0.75072176  0.83155782  1
  Mn  Mn102  1  0.66484594  0.24730353  0.16764533  1
  Mn  Mn103  1  0.66713982  0.25223142  0.49920143  1
  Mn  Mn104  1  0.66733828  0.25117944  0.83364380  1
  Mn  Mn105  1  0.66499393  0.74947104  0.16770823  1
  Mn  Mn106  1  0.66511853  0.74789790  0.50047836  1
  Mn  Mn107  1  0.66687957  0.75098418  0.83410600  1
  Mn  Mn108  1  0.16906574  0.24823984  0.00035352  1
  Mn  Mn109  1  0.16880485  0.24875182  0.33434061  1
  Mn  Mn110  1  0.16599280  0.25102670  0.66408263  1
  Mn  Mn111  1  0.16827506  0.75096350  0.00021565  1
  Mn  Mn112  1  0.16756977  0.74989936  0.33342078  1
  Mn  Mn113  1  0.16592874  0.74978284  0.66366189  1
  Mn  Mn114  1  0.49906232  0.24831772  0.00330340  1
  Mn  Mn115  1  0.50007958  0.24936023  0.33337632  1
  Mn  Mn116  1  0.49738585  0.25080254  0.66744370  1
  Mn  Mn117  1  0.49869019  0.74971466  0.00184149  1
  Mn  Mn118  1  0.49893448  0.74818407  0.33704862  1
  Mn  Mn119  1  0.49928613  0.74955281  0.66764775  1
  Mn  Mn120  1  0.83333074  0.24977423  -0.00049856  1
  Mn  Mn121  1  0.83236632  0.25006734  0.33219887  1
  Mn  Mn122  1  0.83422464  0.25244808  0.66424001  1
  Mn  Mn123  1  0.83236790  0.75210579  -0.00290348  1
  Mn  Mn124  1  0.83533253  0.75071663  0.33362119  1
  Mn  Mn125  1  0.83196054  0.75020113  0.66451361  1
  Mn  Mn126  1  0.16871646  0.00118247  -0.00001570  1
  Mn  Mn127  1  0.16694877  -0.00008323  0.33455592  1
  Mn  Mn128  1  0.16548219  -0.00132765  0.66334870  1
  Mn  Mn129  1  0.16870800  0.49993226  0.00063597  1
  Mn  Mn130  1  0.16914475  0.50173227  0.33321513  1
  Mn  Mn131  1  0.16611486  0.49938499  0.66418985  1
  Mn  Mn132  1  0.50000886  0.00033368  0.00293284  1
  Mn  Mn133  1  0.49898233  0.00305658  0.33360697  1
  Mn  Mn134  1  0.49788798  -0.00194174  0.66691041  1
  Mn  Mn135  1  0.49844596  0.50101805  0.00193579  1
  Mn  Mn136  1  0.50037386  0.49894058  0.33687220  1
  Mn  Mn137  1  0.49842139  0.50186410  0.66649734  1
  Mn  Mn138  1  0.83170002  -0.00057233  -0.00271672  1
  Mn  Mn139  1  0.83429528  0.00102647  0.33128571  1
  Mn  Mn140  1  0.83214746  -0.00072204  0.66408211  1
  Mn  Mn141  1  0.83380501  0.49940141  -0.00104673  1
  Mn  Mn142  1  0.83401758  0.49915919  0.33429145  1
  Mn  Mn143  1  0.83334645  0.49816060  0.66380631  1
  O  O144  1  0.18100056  0.12427296  0.02499572  1
  O  O145  1  0.17856464  0.12030235  0.36299166  1
  O  O146  1  0.17783035  0.12503679  0.67551744  1
  O  O147  1  0.17960820  0.62652388  0.02253571  1
  O  O148  1  0.17806495  0.62566875  0.36211993  1
  O  O149  1  0.17586283  0.62501131  0.67706522  1
  O  O150  1  0.49208237  0.12239149  0.02069534  1
  O  O151  1  0.48897695  0.12759977  0.34747442  1
  O  O152  1  0.49008210  0.12160519  0.67736169  1
  O  O153  1  0.48762460  0.62675779  0.01330385  1
  O  O154  1  0.49014416  0.61939799  0.36052356  1
  O  O155  1  0.50040770  0.62518550  0.68153212  1
  O  O156  1  0.82866485  0.12333618  0.00835139  1
  O  O157  1  0.83573873  0.12587225  0.35347587  1
  O  O158  1  0.83735534  0.12736963  0.69084900  1
  O  O159  1  0.83370233  0.62687194  0.00529637  1
  O  O160  1  0.83924241  0.62364611  0.35325466  1
  O  O161  1  0.82541277  0.62438643  0.67648610  1
  O  O162  1  0.17281685  0.37880903  0.30772518  1
  O  O163  1  0.15862056  0.37468697  0.63867029  1
  O  O164  1  0.17131049  0.37250084  0.97493602  1
  O  O165  1  0.15864707  0.87612892  0.30600915  1
  O  O166  1  0.15760802  0.87411949  0.64031070  1
  O  O167  1  0.17163454  0.87730885  0.97461308  1
  O  O168  1  0.49589090  0.37404184  0.30854068  1
  O  O169  1  0.49502587  0.38066548  0.64221290  1
  O  O170  1  0.49366559  0.37552840  0.97786847  1
  O  O171  1  0.49584486  0.87825289  0.31206652  1
  O  O172  1  0.49666309  0.87174670  0.64703424  1
  O  O173  1  0.50277612  0.87471159  0.97661294  1
  O  O174  1  0.83177774  0.37452113  0.32550863  1
  O  O175  1  0.84036358  0.37450380  0.63622115  1
  O  O176  1  0.83527495  0.37314082  0.98049952  1
  O  O177  1  0.84021362  0.87794593  0.32268310  1
  O  O178  1  0.83513414  0.87315924  0.65151428  1
  O  O179  1  0.82661601  0.87609262  0.97504233  1
  O  O180  1  0.00928463  0.37355906  0.17736448  1
  O  O181  1  -0.00487341  0.37042909  0.52683206  1
  O  O182  1  0.00049751  0.37246788  0.84631834  1
  O  O183  1  0.00911238  0.87655718  0.18996278  1
  O  O184  1  0.00478783  0.87598020  0.52796127  1
  O  O185  1  -0.00214169  0.87661016  0.84291646  1
  O  O186  1  0.32427673  0.37232908  0.19195620  1
  O  O187  1  0.32647818  0.37944384  0.52611462  1
  O  O188  1  0.32593772  0.37393344  0.85365810  1
  O  O189  1  0.32558620  0.87500011  0.19197245  1
  O  O190  1  0.32554206  0.87089559  0.52367313  1
  O  O191  1  0.32722910  0.87570158  0.85146226  1
  O  O192  1  0.65942164  0.37353292  0.18210526  1
  O  O193  1  0.66945718  0.37828354  0.52442726  1
  O  O194  1  0.66023022  0.37587857  0.84464289  1
  O  O195  1  0.65995797  0.87558604  0.17915291  1
  O  O196  1  0.66532842  0.87078004  0.51910828  1
  O  O197  1  0.66385200  0.87455834  0.85937577  1
  O  O198  1  0.01032117  0.12401857  0.14567252  1
  O  O199  1  0.01131985  0.12378350  0.47497804  1
  O  O200  1  -0.00528423  0.12676213  0.80801528  1
  O  O201  1  0.01054557  0.62721740  0.14306275  1
  O  O202  1  0.00761410  0.62885482  0.47607962  1
  O  O203  1  -0.00010304  0.62407882  0.81905417  1
  O  O204  1  0.33498356  0.12511279  0.13840573  1
  O  O205  1  0.32611057  0.12426529  0.47698007  1
  O  O206  1  0.33470661  0.12552718  0.80363103  1
  O  O207  1  0.32876433  0.62809767  0.13819837  1
  O  O208  1  0.34293106  0.62431155  0.47075111  1
  O  O209  1  0.33269761  0.62485914  0.80653953  1
  O  O210  1  0.66055911  0.12252378  0.14244517  1
  O  O211  1  0.67102370  0.12990822  0.48111544  1
  O  O212  1  0.67398889  0.12506425  0.82309244  1
  O  O213  1  0.66395467  0.62773232  0.14562054  1
  O  O214  1  0.65954524  0.62003971  0.47807000  1
  O  O215  1  0.66600537  0.62520807  0.80638807  1
  O  O216  1  0.07956933  0.02473377  0.26260024  1
  O  O217  1  0.07557393  0.02277257  0.59103320  1
  O  O218  1  0.07940663  0.01894893  0.92844697  1
  O  O219  1  0.08275100  0.52593264  0.25958315  1
  O  O220  1  0.07899495  0.51804983  0.58835005  1
  O  O221  1  0.07904285  0.51707576  0.93028210  1
  O  O222  1  0.40766036  0.01464035  0.25391229  1
  O  O223  1  0.39981176  0.00885078  0.59123151  1
  O  O224  1  0.41350916  0.00921296  0.92494047  1
  O  O225  1  0.40630932  0.51158513  0.25979566  1
  O  O226  1  0.41030803  0.52281136  0.58767953  1
  O  O227  1  0.40828988  0.51040414  0.92505959  1
  O  O228  1  0.74545327  0.01919525  0.24869712  1
  O  O229  1  0.75225299  0.01482733  0.58201552  1
  O  O230  1  0.75647902  0.01409895  0.90771276  1
  O  O231  1  0.74560406  0.51502010  0.25928322  1
  O  O232  1  0.74330854  0.51895444  0.58522246  1
  O  O233  1  0.74634867  0.51213191  0.91662470  1
  O  O234  1  0.24617219  0.22422019  0.24154804  1
  O  O235  1  0.24043542  0.23536857  0.57158900  1
  O  O236  1  0.25157457  0.23380343  0.91509183  1
  O  O237  1  0.24501333  0.73033091  0.24423307  1
  O  O238  1  0.24731793  0.72800825  0.57217192  1
  O  O239  1  0.25072048  0.73741639  0.91578332  1
  O  O240  1  0.58286871  0.23055378  0.25484855  1
  O  O241  1  0.58100245  0.25027284  0.58321152  1
  O  O242  1  0.58439442  0.23652954  0.92516471  1
  O  O243  1  0.58375116  0.73275161  0.25981026  1
  O  O244  1  0.58372462  0.72898333  0.58707678  1
  O  O245  1  0.58855343  0.73550661  0.92512813  1
  O  O246  1  0.91787470  0.23301269  0.25020668  1
  O  O247  1  0.91533691  0.22257926  0.58163057  1
  O  O248  1  0.91459670  0.23012507  0.91276244  1
  O  O249  1  0.92361046  0.73891084  0.25237036  1
  O  O250  1  0.91363275  0.73110255  0.57574882  1
  O  O251  1  0.91740033  0.74142967  0.91539970  1
  O  O252  1  0.09958841  0.48862689  0.09631040  1
  O  O253  1  0.09614260  0.48708838  0.42632106  1
  O  O254  1  0.08759648  0.47801108  0.75508180  1
  O  O255  1  0.09590557  0.98841496  0.09652130  1
  O  O256  1  0.09231243  0.97689696  0.42609707  1
  O  O257  1  0.08784304  0.98046999  0.75181537  1
  O  O258  1  0.41699490  0.47518817  0.08922344  1
  O  O259  1  0.42164132  0.47138215  0.42431462  1
  O  O260  1  0.42038158  0.47601562  0.75390616  1
  O  O261  1  0.41726582  0.97273866  0.08757892  1
  O  O262  1  0.41498677  0.98297932  0.41826783  1
  O  O263  1  0.41956461  0.97430542  0.75428115  1
  O  O264  1  0.74960102  0.49748784  0.08082133  1
  O  O265  1  0.75427226  0.48973603  0.42470638  1
  O  O266  1  0.75388789  0.47329622  0.74642856  1
  O  O267  1  0.74068126  0.98896674  0.07071893  1
  O  O268  1  0.75250756  1.00070371  0.41630650  1
  O  O269  1  0.74753873  0.97549968  0.74981152  1
  O  O270  1  0.25656675  0.27267518  0.07792624  1
  O  O271  1  0.25925080  0.27273215  0.40749756  1
  O  O272  1  0.25313868  0.27326062  0.73969324  1
  O  O273  1  0.25559724  0.77523688  0.07785305  1
  O  O274  1  0.25430599  0.77268052  0.40850843  1
  O  O275  1  0.25277740  0.77205844  0.73977993  1
  O  O276  1  0.57547604  0.26247235  0.09120643  1
  O  O277  1  0.58528912  0.26848006  0.41763076  1
  O  O278  1  0.58263981  0.26925545  0.74964715  1
  O  O279  1  0.57834988  0.76990538  0.08675284  1
  O  O280  1  0.57852883  0.75449736  0.42488309  1
  O  O281  1  0.58507101  0.77459103  0.75184515  1
  O  O282  1  0.91991973  0.24782371  0.07870817  1
  O  O283  1  0.91752542  0.25691665  0.42249808  1
  O  O284  1  0.91742032  0.27289404  0.74501199  1
  O  O285  1  0.92034325  0.75569492  0.08020401  1
  O  O286  1  0.92971828  0.76326133  0.41059171  1
  O  O287  1  0.91790871  0.76728617  0.74560562  1
  O  O288  1  0.25631514  0.47627116  0.07808341  1
  O  O289  1  0.26014394  0.48026308  0.40742147  1
  O  O290  1  0.25294709  0.47663978  0.74080746  1
  O  O291  1  0.25613748  0.97743240  0.07821485  1
  O  O292  1  0.25469707  0.97247314  0.40842314  1
  O  O293  1  0.25296827  0.97786276  0.73733217  1
  O  O294  1  0.57601889  0.48753353  0.08951828  1
  O  O295  1  0.58297227  0.47716806  0.42105433  1
  O  O296  1  0.58507279  0.48014871  0.74494623  1
  O  O297  1  0.57856431  0.97776765  0.08634233  1
  O  O298  1  0.58364077  0.99676262  0.41614229  1
  O  O299  1  0.58371477  0.97726476  0.75575748  1
  O  O300  1  0.92291278  0.49927542  0.07924689  1
  O  O301  1  0.91714442  0.49024388  0.42157694  1
  O  O302  1  0.91810828  0.47844004  0.74561414  1
  O  O303  1  0.91747367  0.99841392  0.07840409  1
  O  O304  1  0.93235946  0.98920768  0.40788656  1
  O  O305  1  0.91828490  0.98292187  0.74273277  1
  O  O306  1  0.09842409  0.25927198  0.09680453  1
  O  O307  1  0.09524798  0.26545839  0.43298782  1
  O  O308  1  0.08947018  0.27084415  0.75335570  1
  O  O309  1  0.09707871  0.76526503  0.09618295  1
  O  O310  1  0.09027602  0.77211826  0.42231602  1
  O  O311  1  0.08613859  0.77040117  0.75328052  1
  O  O312  1  0.41728111  0.27519123  0.08901219  1
  O  O313  1  0.42083652  0.27420219  0.42401415  1
  O  O314  1  0.42071096  0.27661323  0.75717476  1
  O  O315  1  0.41716746  0.77791265  0.08790638  1
  O  O316  1  0.41698647  0.77103280  0.41996714  1
  O  O317  1  0.41877241  0.77235112  0.75271851  1
  O  O318  1  0.74774593  0.25133143  0.08105145  1
  O  O319  1  0.75314767  0.26318154  0.41912939  1
  O  O320  1  0.75375805  0.27544412  0.74584516  1
  O  O321  1  0.74253062  0.76102184  0.07465744  1
  O  O322  1  0.75116556  0.74705631  0.42047287  1
  O  O323  1  0.74835343  0.77454378  0.75060129  1
  O  O324  1  0.24477896  0.02131639  0.24366528  1
  O  O325  1  0.23896517  0.01304376  0.57060747  1
  O  O326  1  0.25299365  0.01513291  0.91535009  1
  O  O327  1  0.24588864  0.52411296  0.24377664  1
  O  O328  1  0.24696423  0.52261928  0.57172598  1
  O  O329  1  0.24965184  0.51337181  0.91602702  1
  O  O330  1  0.58098564  0.01993482  0.25282334  1
  O  O331  1  0.58371868  0.00158211  0.58739410  1
  O  O332  1  0.59264716  0.01253585  0.92701894  1
  O  O333  1  0.58485583  0.51638767  0.26059098  1
  O  O334  1  0.57936442  0.51973374  0.58195334  1
  O  O335  1  0.58328642  0.51489170  0.92322270  1
  O  O336  1  0.91672103  0.01998197  0.24753270  1
  O  O337  1  0.91436490  0.02520261  0.57479101  1
  O  O338  1  0.91495940  0.01945931  0.91301548  1
  O  O339  1  0.92180435  0.51333250  0.25385452  1
  O  O340  1  0.91108042  0.52008681  0.58046884  1
  O  O341  1  0.91595305  0.50736702  0.91419482  1
  O  O342  1  0.08204121  0.22508526  0.26133842  1
  O  O343  1  0.07491332  0.22672027  0.59370069  1
  O  O344  1  0.07872377  0.22952005  0.92956908  1
  O  O345  1  0.08141412  0.72596006  0.26086443  1
  O  O346  1  0.08069568  0.73026995  0.58583359  1
  O  O347  1  0.07938063  0.73434360  0.92885187  1
  O  O348  1  0.40539517  0.23641652  0.25658355  1
  O  O349  1  0.40117891  0.24006390  0.59395304  1
  O  O350  1  0.41067193  0.23651432  0.92655947  1
  O  O351  1  0.40694798  0.73724042  0.25701423  1
  O  O352  1  0.41073813  0.72863655  0.58590726  1
  O  O353  1  0.41018245  0.74302801  0.92402262  1
  O  O354  1  0.74426250  0.23012650  0.25241667  1
  O  O355  1  0.75506838  0.23812904  0.57861986  1
  O  O356  1  0.75439915  0.23926623  0.91129511  1
  O  O357  1  0.74591506  0.73599300  0.25347063  1
  O  O358  1  0.74359428  0.72888342  0.58544694  1
  O  O359  1  0.74549021  0.73559048  0.91615937  1
