# generated using pymatgen
data_Ba17Sr5La8Pr42Mn72O216
_symmetry_space_group_name_H-M   'P 1'
_cell_length_a   16.67179963
_cell_length_b   15.70219616
_cell_length_c   16.81383262
_cell_angle_alpha   89.98874575
_cell_angle_beta   89.92985399
_cell_angle_gamma   89.99571707
_symmetry_Int_Tables_number   1
_chemical_formula_structural   Ba17Sr5La8Pr42Mn72O216
_chemical_formula_sum   'Ba17 Sr5 La8 Pr42 Mn72 O216'
_cell_volume   4401.58674518
_cell_formula_units_Z   1
loop_
 _symmetry_equiv_pos_site_id
 _symmetry_equiv_pos_as_xyz
  1  'x, y, z'
loop_
 _atom_site_type_symbol
 _atom_site_label
 _atom_site_symmetry_multiplicity
 _atom_site_fract_x
 _atom_site_fract_y
 _atom_site_fract_z
 _atom_site_occupancy
  Ba  Ba0  1  0.66326358  0.62755116  0.99613268  1
  Ba  Ba1  1  0.33528909  0.37301166  0.33668358  1
  Ba  Ba2  1  0.66857669  0.37611819  0.66551649  1
  Ba  Ba3  1  -0.00288530  0.62436787  0.99943625  1
  Ba  Ba4  1  0.50328727  0.12308706  0.16907644  1
  Ba  Ba5  1  0.16359576  0.62643319  0.50198944  1
  Ba  Ba6  1  0.49850987  0.37382119  0.83280036  1
  Ba  Ba7  1  0.32872919  0.62706883  0.33738672  1
  Ba  Ba8  1  0.33247705  0.87714740  0.00462868  1
  Ba  Ba9  1  0.66822809  0.12413886  0.66564674  1
  Ba  Ba10  1  0.83494585  0.37457992  0.49500539  1
  Ba  Ba11  1  0.16670587  0.37209779  0.16923974  1
  Ba  Ba12  1  0.33125856  0.37387735  0.66982443  1
  Ba  Ba13  1  0.33234496  0.37435718  0.00371975  1
  Ba  Ba14  1  0.16253310  0.62582232  0.83556245  1
  Ba  Ba15  1  0.66602160  0.62683596  0.32948989  1
  Ba  Ba16  1  0.50220901  0.12431653  0.83423766  1
  Sr  Sr17  1  0.66104778  0.62530321  0.66253812  1
  Sr  Sr18  1  0.83528854  0.87436996  0.83065934  1
  Sr  Sr19  1  0.17081427  0.12445198  0.50453240  1
  Sr  Sr20  1  0.83435857  0.12502504  0.83194017  1
  Sr  Sr21  1  0.33852256  0.12612521  0.33647622  1
  La  La22  1  0.83417998  0.87632860  0.49539784  1
  La  La23  1  0.67368810  0.12463542  0.32987890  1
  La  La24  1  0.83170768  0.37683406  0.16344416  1
  La  La25  1  0.49802252  0.37740113  0.16576565  1
  La  La26  1  0.49218344  0.62694657  0.17053140  1
  La  La27  1  0.16944594  0.12375986  0.83646291  1
  La  La28  1  0.49942695  0.12675894  0.50429122  1
  La  La29  1  -0.00145320  0.87333471  -0.00110398  1
  Pr  Pr30  1  -0.00377999  0.62413085  0.32497414  1
  Pr  Pr31  1  -0.00752524  0.62715727  0.66252562  1
  Pr  Pr32  1  0.50910066  0.87451322  0.50078206  1
  Pr  Pr33  1  0.32629148  0.62399144  1.00286810  1
  Pr  Pr34  1  0.33937147  0.12610640  0.66734560  1
  Pr  Pr35  1  0.82634532  0.62473443  0.49822342  1
  Pr  Pr36  1  0.17402989  0.12417665  0.17242136  1
  Pr  Pr37  1  0.66212329  0.37471498  -0.00345641  1
  Pr  Pr38  1  0.33863380  0.12821843  1.00289836  1
  Pr  Pr39  1  0.67261597  0.87543839  0.66823360  1
  Pr  Pr40  1  0.00487448  0.12661658  0.33278416  1
  Pr  Pr41  1  0.16619313  0.37507503  0.83517683  1
  Pr  Pr42  1  0.00308610  0.37420627  0.66490885  1
  Pr  Pr43  1  0.00501985  0.87628126  0.66806723  1
  Pr  Pr44  1  0.49306523  0.62363373  0.50369523  1
  Pr  Pr45  1  0.33838839  0.87864605  0.33914347  1
  Pr  Pr46  1  0.50390170  0.87324437  0.16654602  1
  Pr  Pr47  1  0.82594892  0.62483535  0.83191774  1
  Pr  Pr48  1  0.00556009  0.37341100  0.33616211  1
  Pr  Pr49  1  0.00008498  0.12246778  0.66359992  1
  Pr  Pr50  1  0.66427044  0.87733528  -0.00477784  1
  Pr  Pr51  1  0.83525704  0.37691538  0.82547408  1
  Pr  Pr52  1  0.17067099  0.37283060  0.49556380  1
  Pr  Pr53  1  0.32824986  0.62126804  0.66583944  1
  Pr  Pr54  1  0.83155137  0.87252953  0.15835785  1
  Pr  Pr55  1  0.16846782  0.62348504  0.16804214  1
  Pr  Pr56  1  0.82427493  0.62713130  0.16386560  1
  Pr  Pr57  1  0.50358227  0.87328563  0.83009485  1
  Pr  Pr58  1  0.16432184  0.87292723  0.83556144  1
  Pr  Pr59  1  0.33267787  0.87417381  0.67647396  1
  Pr  Pr60  1  0.17288039  0.87799376  0.50017276  1
  Pr  Pr61  1  0.67056057  0.12341287  0.98943204  1
  Pr  Pr62  1  0.00219003  0.87872059  0.33362480  1
  Pr  Pr63  1  0.16869392  0.87577000  0.16937478  1
  Pr  Pr64  1  0.66629077  0.87456212  0.33018217  1
  Pr  Pr65  1  0.49109694  0.62062091  0.83428426  1
  Pr  Pr66  1  0.83813941  0.12571249  0.50161313  1
  Pr  Pr67  1  0.83923664  0.12286771  0.16277724  1
  Pr  Pr68  1  0.50693902  0.37458012  0.50001364  1
  Pr  Pr69  1  0.66583717  0.37490729  0.33527808  1
  Pr  Pr70  1  0.00363899  0.12659017  0.99614665  1
  Pr  Pr71  1  -0.00107778  0.37577034  -0.00116996  1
  Mn  Mn72  1  -0.00087801  0.00015983  0.16599397  1
  Mn  Mn73  1  0.00151914  -0.00125466  0.50018263  1
  Mn  Mn74  1  -0.00008494  0.00083215  0.83299180  1
  Mn  Mn75  1  -0.00133566  0.49918083  0.16572947  1
  Mn  Mn76  1  -0.00083046  0.50191347  0.49796518  1
  Mn  Mn77  1  -0.00191266  0.49858742  0.83018223  1
  Mn  Mn78  1  0.33400009  0.00014539  0.17291600  1
  Mn  Mn79  1  0.33572040  -0.00079328  0.50524419  1
  Mn  Mn80  1  0.33304267  -0.00077686  0.83763448  1
  Mn  Mn81  1  0.33220782  0.50106240  0.16978635  1
  Mn  Mn82  1  0.33297984  0.49957690  0.50327282  1
  Mn  Mn83  1  0.32930587  0.50110965  0.83556003  1
  Mn  Mn84  1  0.67009330  0.00027496  0.16286843  1
  Mn  Mn85  1  0.66935730  -0.00176652  0.49635879  1
  Mn  Mn86  1  0.66944163  -0.00192076  0.83128781  1
  Mn  Mn87  1  0.66611154  0.49870182  0.16425371  1
  Mn  Mn88  1  0.66607404  0.50206360  0.49770429  1
  Mn  Mn89  1  0.66594026  0.50215007  0.83056472  1
  Mn  Mn90  1  -0.00163529  0.24815762  0.16571864  1
  Mn  Mn91  1  0.00266028  0.24739714  0.50009179  1
  Mn  Mn92  1  -0.00020432  0.24858810  0.83207775  1
  Mn  Mn93  1  -0.00057218  0.75239980  0.16804860  1
  Mn  Mn94  1  -0.00174825  0.75229324  0.49784992  1
  Mn  Mn95  1  -0.00301567  0.75121151  0.83078100  1
  Mn  Mn96  1  0.33563782  0.24755751  0.17016880  1
  Mn  Mn97  1  0.33465739  0.24741247  0.50303339  1
  Mn  Mn98  1  0.33107103  0.24729891  0.83552937  1
  Mn  Mn99  1  0.33099750  0.75351865  0.17117496  1
  Mn  Mn100  1  0.33362652  0.75307231  0.50608822  1
  Mn  Mn101  1  0.33251037  0.75095796  0.83721470  1
  Mn  Mn102  1  0.67001277  0.24994024  0.16457148  1
  Mn  Mn103  1  0.66831771  0.24912436  0.49545960  1
  Mn  Mn104  1  0.67020851  0.24990530  0.83247672  1
  Mn  Mn105  1  0.66573624  0.75167920  0.16267705  1
  Mn  Mn106  1  0.66703335  0.75014883  0.49959808  1
  Mn  Mn107  1  0.66552740  0.75041361  0.82831887  1
  Mn  Mn108  1  0.16484633  0.24639246  0.00250956  1
  Mn  Mn109  1  0.16829933  0.24572615  0.33675399  1
  Mn  Mn110  1  0.16517157  0.24764926  0.66866685  1
  Mn  Mn111  1  0.16427210  0.75321865  0.00325082  1
  Mn  Mn112  1  0.16372460  0.75415188  0.33566908  1
  Mn  Mn113  1  0.16477905  0.75074677  0.66837974  1
  Mn  Mn114  1  0.50216342  0.24988499  0.00313885  1
  Mn  Mn115  1  0.50396590  0.24883767  0.33463979  1
  Mn  Mn116  1  0.50085735  0.24903912  0.66712035  1
  Mn  Mn117  1  0.49799174  0.75045423  -0.00080274  1
  Mn  Mn118  1  0.49975043  0.75236107  0.33548484  1
  Mn  Mn119  1  0.49819687  0.75091526  0.66656129  1
  Mn  Mn120  1  0.83294013  0.25068309  -0.00274257  1
  Mn  Mn121  1  0.83638599  0.24717812  0.32850196  1
  Mn  Mn122  1  0.83603031  0.24899535  0.66522163  1
  Mn  Mn123  1  0.83253890  0.75080142  -0.00505763  1
  Mn  Mn124  1  0.83613512  0.75306886  0.32895963  1
  Mn  Mn125  1  0.83347133  0.75092332  0.66284220  1
  Mn  Mn126  1  0.16429761  0.00113606  0.00414558  1
  Mn  Mn127  1  0.16931166  0.00090732  0.33633420  1
  Mn  Mn128  1  0.16758284  -0.00007930  0.66957236  1
  Mn  Mn129  1  0.16364512  0.49922765  0.00201703  1
  Mn  Mn130  1  0.16369002  0.50011069  0.33635468  1
  Mn  Mn131  1  0.16268474  0.49877112  0.66800262  1
  Mn  Mn132  1  0.50091394  -0.00109753  0.00167468  1
  Mn  Mn133  1  0.50371243  -0.00080814  0.33634922  1
  Mn  Mn134  1  0.49983198  -0.00266626  0.66546126  1
  Mn  Mn135  1  0.49872282  0.50234984  0.00178262  1
  Mn  Mn136  1  0.50038318  0.50089964  0.33361714  1
  Mn  Mn137  1  0.49900593  0.50191343  0.66756161  1
  Mn  Mn138  1  0.83454380  -0.00036748  -0.00293751  1
  Mn  Mn139  1  0.83651939  -0.00073143  0.32901303  1
  Mn  Mn140  1  0.83626041  -0.00033883  0.66395754  1
  Mn  Mn141  1  0.83148379  0.49785571  -0.00481007  1
  Mn  Mn142  1  0.83522531  0.50104043  0.32796182  1
  Mn  Mn143  1  0.83436586  0.50128236  0.66342425  1
  O  O144  1  0.15049717  0.12196165  0.02854152  1
  O  O145  1  0.15496207  0.12157025  0.35453480  1
  O  O146  1  0.15786444  0.12183148  0.69386560  1
  O  O147  1  0.16481896  0.63077159  0.02232971  1
  O  O148  1  0.14981649  0.63019222  0.34191399  1
  O  O149  1  0.16203542  0.62758523  0.67938386  1
  O  O150  1  0.50878705  0.12327756  0.01201223  1
  O  O151  1  0.50917759  0.12131756  0.35854598  1
  O  O152  1  0.49728977  0.12114313  0.67490127  1
  O  O153  1  0.49636445  0.62906017  0.02634350  1
  O  O154  1  0.49915808  0.63103068  0.35722794  1
  O  O155  1  0.49953002  0.63208609  0.68949214  1
  O  O156  1  0.82515302  0.12526704  0.02114882  1
  O  O157  1  0.82802716  0.12052186  0.35786698  1
  O  O158  1  0.84075292  0.12233154  0.68102104  1
  O  O159  1  0.83068409  0.62189395  0.01974941  1
  O  O160  1  0.83991948  0.63240518  0.35435191  1
  O  O161  1  0.84174720  0.62791689  0.68827016  1
  O  O162  1  0.16297400  0.36989599  0.32771133  1
  O  O163  1  0.15965430  0.37105001  0.64027886  1
  O  O164  1  0.16377710  0.36769521  0.98080027  1
  O  O165  1  0.17553441  0.87893715  0.31347098  1
  O  O166  1  0.16664290  0.87628937  0.64392577  1
  O  O167  1  0.16472936  0.87942716  0.97939969  1
  O  O168  1  0.51016607  0.37354077  0.31173176  1
  O  O169  1  0.49890078  0.37546223  0.64675279  1
  O  O170  1  0.50344110  0.37699278  0.99147047  1
  O  O171  1  0.50530112  0.87603802  0.31176874  1
  O  O172  1  0.48775149  0.87231825  0.64242965  1
  O  O173  1  0.50256498  0.87279700  0.97497346  1
  O  O174  1  0.83959780  0.36985995  0.30756837  1
  O  O175  1  0.84195200  0.37540083  0.65212074  1
  O  O176  1  0.84094166  0.37315641  0.97062893  1
  O  O177  1  0.84463255  0.87736886  0.30141688  1
  O  O178  1  0.83409764  0.87494022  0.63867204  1
  O  O179  1  0.84501750  0.87737625  0.98141078  1
  O  O180  1  -0.01196182  0.36805464  0.19227627  1
  O  O181  1  0.00357872  0.36949753  0.52029097  1
  O  O182  1  -0.00954493  0.37047926  0.85560501  1
  O  O183  1  -0.01536002  0.87814718  0.18959796  1
  O  O184  1  -0.01022482  0.87605691  0.52506513  1
  O  O185  1  -0.00210846  0.88037048  0.85506092  1
  O  O186  1  0.33877862  0.37434216  0.17669061  1
  O  O187  1  0.32816743  0.37268488  0.51235158  1
  O  O188  1  0.32232822  0.37161579  0.84636773  1
  O  O189  1  0.32220192  0.87701665  0.19313403  1
  O  O190  1  0.32656390  0.87640785  0.53199830  1
  O  O191  1  0.33650890  0.87502705  0.84966167  1
  O  O192  1  0.67064399  0.37156371  0.19242165  1
  O  O193  1  0.66343847  0.37742217  0.50785939  1
  O  O194  1  0.67497503  0.37479281  0.85007017  1
  O  O195  1  0.66746884  0.87575561  0.18696790  1
  O  O196  1  0.66990838  0.87217669  0.52423898  1
  O  O197  1  0.66069528  0.87351018  0.84996272  1
  O  O198  1  0.00009101  0.12340932  0.13926273  1
  O  O199  1  -0.00089692  0.12143800  0.47622926  1
  O  O200  1  0.00652914  0.12409840  0.80741554  1
  O  O201  1  0.02064085  0.63041732  0.15990926  1
  O  O202  1  -0.00276236  0.63246129  0.47061085  1
  O  O203  1  -0.00290191  0.62410945  0.80649396  1
  O  O204  1  0.33134647  0.12055538  0.14922736  1
  O  O205  1  0.34205130  0.12112519  0.48479243  1
  O  O206  1  0.32480013  0.12030766  0.81193313  1
  O  O207  1  0.33637259  0.63054790  0.15132945  1
  O  O208  1  0.34028907  0.62893350  0.49246823  1
  O  O209  1  0.33549673  0.63088767  0.81036730  1
  O  O210  1  0.67594776  0.12496934  0.13587874  1
  O  O211  1  0.66603579  0.12317546  0.47403516  1
  O  O212  1  0.67041860  0.12190910  0.82639460  1
  O  O213  1  0.67207211  0.62892734  0.15247407  1
  O  O214  1  0.66691529  0.62780242  0.48565007  1
  O  O215  1  0.67433754  0.62959279  0.81259752  1
  O  O216  1  0.08526081  0.01216594  0.24401040  1
  O  O217  1  0.08214073  0.01262656  0.58896996  1
  O  O218  1  0.08493601  0.01885662  0.91660351  1
  O  O219  1  0.07237112  0.50360994  0.26223836  1
  O  O220  1  0.06989540  0.51289433  0.59475927  1
  O  O221  1  0.07735429  0.49825860  0.91837848  1
  O  O222  1  0.41648207  0.00543272  0.26137710  1
  O  O223  1  0.41547851  0.01856314  0.58626309  1
  O  O224  1  0.41385843  0.01653084  0.92579147  1
  O  O225  1  0.41607712  0.51382942  0.25310880  1
  O  O226  1  0.41322811  0.52157566  0.59035195  1
  O  O227  1  0.41056172  0.52334417  0.92346140  1
  O  O228  1  0.76127708  0.01767320  0.23905061  1
  O  O229  1  0.75969381  0.01295570  0.56784349  1
  O  O230  1  0.75405388  0.00927051  0.91643205  1
  O  O231  1  0.75386639  0.51173983  0.24170033  1
  O  O232  1  0.74903639  0.51893103  0.58231191  1
  O  O233  1  0.74743053  0.51132663  0.91528533  1
  O  O234  1  0.24923499  0.22984316  0.25510006  1
  O  O235  1  0.25313742  0.22721987  0.59433195  1
  O  O236  1  0.25027432  0.22157912  0.92442640  1
  O  O237  1  0.23453540  0.73665497  0.24444063  1
  O  O238  1  0.25046797  0.73801989  0.59024566  1
  O  O239  1  0.25120468  0.73655361  0.92318479  1
  O  O240  1  0.59913546  0.23281579  0.25786052  1
  O  O241  1  0.57886210  0.23862324  0.57382012  1
  O  O242  1  0.59376389  0.24359199  0.92771963  1
  O  O243  1  0.57485496  0.74113459  0.23734961  1
  O  O244  1  0.56928202  0.73812276  0.57632637  1
  O  O245  1  0.57166425  0.73693831  0.89952901  1
  O  O246  1  0.92006009  0.21860695  0.24972144  1
  O  O247  1  0.92087475  0.22706892  0.58115651  1
  O  O248  1  0.92351905  0.22806666  0.92112569  1
  O  O249  1  0.91196652  0.72385881  0.24127546  1
  O  O250  1  0.90852012  0.72795107  0.57077939  1
  O  O251  1  0.90879114  0.73358852  0.90339871  1
  O  O252  1  0.07854324  0.48134475  0.08368996  1
  O  O253  1  0.08715496  0.47822667  0.42536132  1
  O  O254  1  0.08380898  0.47172535  0.75374948  1
  O  O255  1  0.07501490  0.97328167  0.08131674  1
  O  O256  1  0.08396781  0.97467402  0.41908874  1
  O  O257  1  0.08563840  0.97477137  0.75300650  1
  O  O258  1  0.42441592  0.49405776  0.09234037  1
  O  O259  1  0.42821697  0.48737826  0.42831894  1
  O  O260  1  0.41652395  0.49929724  0.75367412  1
  O  O261  1  0.42058454  0.98419366  0.09301881  1
  O  O262  1  0.42045220  0.97456202  0.42596037  1
  O  O263  1  0.41739155  0.98079182  0.74859960  1
  O  O264  1  0.75209457  0.47622848  0.07951616  1
  O  O265  1  0.75344573  0.49103930  0.40958216  1
  O  O266  1  0.76353573  0.49102146  0.75422881  1
  O  O267  1  0.74707558  0.97472249  0.07566956  1
  O  O268  1  0.74982210  0.97396139  0.40268912  1
  O  O269  1  0.74996480  0.98073443  0.74080006  1
  O  O270  1  0.24433909  0.24600483  0.08673646  1
  O  O271  1  0.24631371  0.25525419  0.42763081  1
  O  O272  1  0.23707047  0.25886000  0.76218448  1
  O  O273  1  0.24526621  0.76226202  0.08957032  1
  O  O274  1  0.25357384  0.77253833  0.41764667  1
  O  O275  1  0.25067419  0.77202733  0.75420518  1
  O  O276  1  0.58331224  0.27319161  0.09113289  1
  O  O277  1  0.58554424  0.27107354  0.41560755  1
  O  O278  1  0.58547235  0.25639494  0.75010508  1
  O  O279  1  0.58656195  0.77477328  0.07590192  1
  O  O280  1  0.58887331  0.77432874  0.41211187  1
  O  O281  1  0.58606574  0.77596328  0.73827301  1
  O  O282  1  0.90790902  0.26553318  0.08641219  1
  O  O283  1  0.92287249  0.25679378  0.40812094  1
  O  O284  1  0.92000075  0.26650840  0.74983786  1
  O  O285  1  0.91772775  0.76407157  0.08135538  1
  O  O286  1  0.92373756  0.77647470  0.40754760  1
  O  O287  1  0.92373837  0.76885746  0.73477322  1
  O  O288  1  0.24868549  0.50336227  0.08668211  1
  O  O289  1  0.24714153  0.49107657  0.42163005  1
  O  O290  1  0.24193265  0.48828907  0.75561926  1
  O  O291  1  0.23718254  0.98997907  0.09590117  1
  O  O292  1  0.25477753  0.98009079  0.42367215  1
  O  O293  1  0.24604622  0.97684377  0.75572087  1
  O  O294  1  0.58838877  0.48097536  0.07974868  1
  O  O295  1  0.58743361  0.48211225  0.41045019  1
  O  O296  1  0.58510744  0.49713903  0.74639507  1
  O  O297  1  0.58278698  0.97529242  0.08488573  1
  O  O298  1  0.58751033  0.97359924  0.41645814  1
  O  O299  1  0.58222354  0.97549306  0.74578737  1
  O  O300  1  0.91674918  0.47924640  0.07564741  1
  O  O301  1  0.92845286  0.48704712  0.39983687  1
  O  O302  1  0.92563608  0.48274612  0.73749772  1
  O  O303  1  0.90896657  0.98739702  0.08982661  1
  O  O304  1  0.91473510  0.98164105  0.41526654  1
  O  O305  1  0.92233752  0.98366289  0.74332524  1
  O  O306  1  0.06958825  0.26627732  0.07411166  1
  O  O307  1  0.08342813  0.26675897  0.41850638  1
  O  O308  1  0.08043020  0.27550470  0.75016461  1
  O  O309  1  0.08382564  0.77838300  0.09194838  1
  O  O310  1  0.08852930  0.78125031  0.42494825  1
  O  O311  1  0.08555584  0.77492195  0.75417724  1
  O  O312  1  0.41983300  0.25442506  0.08577637  1
  O  O313  1  0.42716531  0.26089070  0.42643304  1
  O  O314  1  0.41054178  0.25011820  0.74973944  1
  O  O315  1  0.42304768  0.76753434  0.09665457  1
  O  O316  1  0.42038822  0.77627417  0.42806639  1
  O  O317  1  0.42290858  0.77081123  0.75513644  1
  O  O318  1  0.74542827  0.27786256  0.07598841  1
  O  O319  1  0.74538896  0.26198397  0.40041515  1
  O  O320  1  0.75723071  0.26168975  0.75353290  1
  O  O321  1  0.75069214  0.77147195  0.08015218  1
  O  O322  1  0.75716263  0.77371394  0.41229534  1
  O  O323  1  0.75194239  0.77013234  0.74495677  1
  O  O324  1  0.25171964  0.02243164  0.25560157  1
  O  O325  1  0.25337791  0.01951681  0.59260057  1
  O  O326  1  0.24887895  0.02441096  0.92830018  1
  O  O327  1  0.23968392  0.51470628  0.24798562  1
  O  O328  1  0.24867492  0.51206025  0.59000437  1
  O  O329  1  0.24935691  0.51576702  0.92365282  1
  O  O330  1  0.59790989  0.01196515  0.25518147  1
  O  O331  1  0.57809224  0.00530896  0.57874214  1
  O  O332  1  0.59131066  0.00599978  0.92433490  1
  O  O333  1  0.57420368  0.51399165  0.24060319  1
  O  O334  1  0.57243275  0.51562722  0.57447107  1
  O  O335  1  0.57282020  0.51589477  0.91121268  1
  O  O336  1  0.92418473  0.02807610  0.25450033  1
  O  O337  1  0.91955859  0.02173109  0.58059794  1
  O  O338  1  0.92248204  0.02171941  0.92201124  1
  O  O339  1  0.91052373  0.52612351  0.23729738  1
  O  O340  1  0.91076780  0.52540387  0.57245542  1
  O  O341  1  0.90562822  0.51511296  0.90057518  1
  O  O342  1  0.08321615  0.22899255  0.24858343  1
  O  O343  1  0.08207525  0.22694284  0.58731155  1
  O  O344  1  0.08674914  0.22984290  0.91155730  1
  O  O345  1  0.06924693  0.75506823  0.26365846  1
  O  O346  1  0.06870822  0.74114244  0.59172843  1
  O  O347  1  0.07861847  0.75081685  0.92224915  1
  O  O348  1  0.42199041  0.23915437  0.25601505  1
  O  O349  1  0.41605687  0.23171199  0.58505579  1
  O  O350  1  0.41245560  0.23484556  0.92224362  1
  O  O351  1  0.41052611  0.74753886  0.25803298  1
  O  O352  1  0.41132965  0.72865843  0.59517928  1
  O  O353  1  0.41197991  0.72489224  0.92176172  1
  O  O354  1  0.76035902  0.22722300  0.23814115  1
  O  O355  1  0.75589321  0.23372911  0.57086949  1
  O  O356  1  0.75282886  0.23353526  0.91678905  1
  O  O357  1  0.75371069  0.74337022  0.24310048  1
  O  O358  1  0.74958852  0.73241085  0.58229198  1
  O  O359  1  0.74824137  0.74357972  0.91154261  1
