# generated using pymatgen
data_Ba17Sr5La8Pr42Mn72O216
_symmetry_space_group_name_H-M   'P 1'
_cell_length_a   16.68386420
_cell_length_b   15.70953754
_cell_length_c   16.82502714
_cell_angle_alpha   90.01326277
_cell_angle_beta   89.99059164
_cell_angle_gamma   89.99012095
_symmetry_Int_Tables_number   1
_chemical_formula_structural   Ba17Sr5La8Pr42Mn72O216
_chemical_formula_sum   'Ba17 Sr5 La8 Pr42 Mn72 O216'
_cell_volume   4409.76855428
_cell_formula_units_Z   1
loop_
 _symmetry_equiv_pos_site_id
 _symmetry_equiv_pos_as_xyz
  1  'x, y, z'
loop_
 _atom_site_type_symbol
 _atom_site_label
 _atom_site_symmetry_multiplicity
 _atom_site_fract_x
 _atom_site_fract_y
 _atom_site_fract_z
 _atom_site_occupancy
  Ba  Ba0  1  0.66461588  0.12700312  0.99889630  1
  Ba  Ba1  1  0.50141846  0.37550270  0.50089111  1
  Ba  Ba2  1  0.66842656  0.37519570  0.66594781  1
  Ba  Ba3  1  0.16523802  0.12658728  0.16575609  1
  Ba  Ba4  1  0.66858148  0.37647542  0.33689932  1
  Ba  Ba5  1  0.33304156  0.37484904  0.33839118  1
  Ba  Ba6  1  0.66571259  0.12234850  0.66803383  1
  Ba  Ba7  1  0.16652512  0.37559282  0.50042048  1
  Ba  Ba8  1  0.66822821  0.37613460  0.00017289  1
  Ba  Ba9  1  0.17048240  0.87414888  0.83310905  1
  Ba  Ba10  1  -0.00119863  0.12342954  0.32983619  1
  Ba  Ba11  1  0.83630303  0.87617268  0.83550823  1
  Ba  Ba12  1  0.00419108  0.87508087  0.32964658  1
  Ba  Ba13  1  0.16236599  0.62369439  0.83360437  1
  Ba  Ba14  1  0.33384060  0.37483128  0.66905055  1
  Ba  Ba15  1  0.50029993  0.12429210  0.16706495  1
  Ba  Ba16  1  0.66193522  0.62396692  0.99974407  1
  Sr  Sr17  1  0.82819927  0.12545316  0.83147362  1
  Sr  Sr18  1  0.16972982  0.37584293  0.82831828  1
  Sr  Sr19  1  -0.00258107  0.12331816  0.66388166  1
  Sr  Sr20  1  0.33772397  0.87723592  0.33447493  1
  Sr  Sr21  1  -0.00369722  0.62686916  0.66565660  1
  La  La22  1  -0.00411965  0.12415985  0.99456950  1
  La  La23  1  0.50716523  0.87393183  0.83306579  1
  La  La24  1  -0.00434585  0.62346371  0.33231303  1
  La  La25  1  0.16099188  0.12933065  0.83487820  1
  La  La26  1  0.50281878  0.37441807  0.16804365  1
  La  La27  1  0.32937620  0.12452408  0.99927514  1
  La  La28  1  0.49476470  0.12654052  0.49969178  1
  La  La29  1  0.17239211  0.87463742  0.49783043  1
  Pr  Pr30  1  0.65303079  0.62611898  0.33081717  1
  Pr  Pr31  1  0.33994465  0.87371279  0.00585225  1
  Pr  Pr32  1  0.00651147  0.87549081  0.66924901  1
  Pr  Pr33  1  0.15926963  0.62535665  0.16759973  1
  Pr  Pr34  1  0.65713687  0.62892938  0.66683121  1
  Pr  Pr35  1  0.00355679  0.37473407  0.66923634  1
  Pr  Pr36  1  0.49676299  0.13175239  0.83787069  1
  Pr  Pr37  1  0.17098087  0.37136196  0.16686698  1
  Pr  Pr38  1  0.82055393  0.62500717  0.17045534  1
  Pr  Pr39  1  0.83029130  0.12308926  0.50246424  1
  Pr  Pr40  1  0.48966292  0.62290927  0.50102487  1
  Pr  Pr41  1  0.15826094  0.62466203  0.50378545  1
  Pr  Pr42  1  0.17385630  0.88137627  0.16354543  1
  Pr  Pr43  1  0.32722988  0.12907831  0.33203952  1
  Pr  Pr44  1  0.49109519  0.62335196  0.17003242  1
  Pr  Pr45  1  0.84023002  0.37463281  0.16274604  1
  Pr  Pr46  1  0.51318492  0.87421518  0.16282744  1
  Pr  Pr47  1  0.84723838  0.87424800  0.15949784  1
  Pr  Pr48  1  0.34076624  0.87363526  0.67161658  1
  Pr  Pr49  1  0.32770069  0.12425158  0.66845170  1
  Pr  Pr50  1  0.00635267  0.37514077  -0.00312476  1
  Pr  Pr51  1  -0.00710638  0.62539970  0.99186094  1
  Pr  Pr52  1  0.82673194  0.62362410  0.83303539  1
  Pr  Pr53  1  0.82566555  0.62772921  0.50246914  1
  Pr  Pr54  1  0.00446180  0.37285864  0.33424972  1
  Pr  Pr55  1  0.50709595  0.37538763  0.82833815  1
  Pr  Pr56  1  0.84351808  0.87774790  0.50158489  1
  Pr  Pr57  1  0.83759755  0.37253763  0.49745731  1
  Pr  Pr58  1  0.32613470  0.62666942  0.99917119  1
  Pr  Pr59  1  0.68225772  0.87512387  0.00284417  1
  Pr  Pr60  1  0.32206881  0.62437867  0.66665108  1
  Pr  Pr61  1  0.01336040  0.87455912  0.00123133  1
  Pr  Pr62  1  0.66162050  0.12634734  0.33130578  1
  Pr  Pr63  1  0.82647213  0.12526886  0.16954833  1
  Pr  Pr64  1  0.49176243  0.62075346  0.83552700  1
  Pr  Pr65  1  0.33346110  0.37780818  0.00233523  1
  Pr  Pr66  1  0.67863666  0.87503241  0.66956964  1
  Pr  Pr67  1  0.51103971  0.87470973  0.49635538  1
  Pr  Pr68  1  0.83484301  0.37287270  0.82999839  1
  Pr  Pr69  1  0.32356872  0.62332918  0.33619931  1
  Pr  Pr70  1  0.16319843  0.12533583  0.49946882  1
  Pr  Pr71  1  0.67764561  0.87452242  0.33152755  1
  Mn  Mn72  1  0.00140959  0.00048481  0.16263219  1
  Mn  Mn73  1  0.00197957  0.00037241  0.50033680  1
  Mn  Mn74  1  0.00012339  0.00077857  0.83128690  1
  Mn  Mn75  1  -0.00066015  0.50141278  0.16394168  1
  Mn  Mn76  1  -0.00339526  0.50077150  0.49894352  1
  Mn  Mn77  1  -0.00283793  0.50032512  0.83143958  1
  Mn  Mn78  1  0.33667034  -0.00097888  0.17006740  1
  Mn  Mn79  1  0.33427157  -0.00212901  0.50202780  1
  Mn  Mn80  1  0.33522565  -0.00145232  0.83408599  1
  Mn  Mn81  1  0.33087539  0.50082027  0.16756157  1
  Mn  Mn82  1  0.33083555  0.50184916  0.50114129  1
  Mn  Mn83  1  0.33236127  0.50046567  0.83612393  1
  Mn  Mn84  1  0.66971204  -0.00144296  0.16800361  1
  Mn  Mn85  1  0.66806811  -0.00351306  0.49790802  1
  Mn  Mn86  1  0.66503057  -0.00078452  0.83477053  1
  Mn  Mn87  1  0.66564029  0.49984398  0.16862200  1
  Mn  Mn88  1  0.66817576  0.50427143  0.50024596  1
  Mn  Mn89  1  0.66699993  0.50127007  0.83232119  1
  Mn  Mn90  1  -0.00092417  0.25252230  0.16417327  1
  Mn  Mn91  1  -0.00051568  0.24892904  0.49967716  1
  Mn  Mn92  1  -0.00179599  0.24986296  0.83147285  1
  Mn  Mn93  1  0.00140663  0.74631283  0.16307753  1
  Mn  Mn94  1  -0.00038823  0.75048167  0.49937261  1
  Mn  Mn95  1  -0.00137405  0.75001389  0.83168068  1
  Mn  Mn96  1  0.33408898  0.25132272  0.16728404  1
  Mn  Mn97  1  0.33203281  0.24592801  0.50113956  1
  Mn  Mn98  1  0.33276148  0.25002045  0.83510523  1
  Mn  Mn99  1  0.33310722  0.74942069  0.16973496  1
  Mn  Mn100  1  0.33384401  0.75173580  0.50146325  1
  Mn  Mn101  1  0.33499364  0.75072570  0.83503397  1
  Mn  Mn102  1  0.66761087  0.25150694  0.16843222  1
  Mn  Mn103  1  0.66797279  0.24834673  0.49968907  1
  Mn  Mn104  1  0.66726576  0.24991565  0.83359489  1
  Mn  Mn105  1  0.66682675  0.74873267  0.16726332  1
  Mn  Mn106  1  0.66719290  0.75129484  0.49937100  1
  Mn  Mn107  1  0.66564573  0.75028853  0.83325489  1
  Mn  Mn108  1  0.16632434  0.25221130  -0.00167205  1
  Mn  Mn109  1  0.16551098  0.24961192  0.33359556  1
  Mn  Mn110  1  0.16481686  0.24809192  0.66801134  1
  Mn  Mn111  1  0.16830440  0.74896133  0.00275161  1
  Mn  Mn112  1  0.16792217  0.75010391  0.33311528  1
  Mn  Mn113  1  0.16590438  0.75016737  0.66433786  1
  Mn  Mn114  1  0.49660827  0.25257897  0.00043901  1
  Mn  Mn115  1  0.50027471  0.24834621  0.33480146  1
  Mn  Mn116  1  0.49912564  0.24721241  0.66901272  1
  Mn  Mn117  1  0.49951692  0.74965162  0.00045374  1
  Mn  Mn118  1  0.49717466  0.75224776  0.33306834  1
  Mn  Mn119  1  0.49875433  0.75126543  0.66501868  1
  Mn  Mn120  1  0.83590255  0.25126641  -0.00124723  1
  Mn  Mn121  1  0.83348146  0.24980051  0.33276116  1
  Mn  Mn122  1  0.83449732  0.24959275  0.66444105  1
  Mn  Mn123  1  0.83646013  0.74748905  0.00036698  1
  Mn  Mn124  1  0.83391393  0.74986089  0.33472626  1
  Mn  Mn125  1  0.83433454  0.74889491  0.66688081  1
  Mn  Mn126  1  0.16902780  0.00170925  -0.00235271  1
  Mn  Mn127  1  0.17016487  -0.00346393  0.33290794  1
  Mn  Mn128  1  0.16760583  0.00045176  0.66552878  1
  Mn  Mn129  1  0.16515675  0.49788028  0.00168817  1
  Mn  Mn130  1  0.16345893  0.50360452  0.33329034  1
  Mn  Mn131  1  0.16362402  0.50041336  0.66740186  1
  Mn  Mn132  1  0.49923221  -0.00167588  -0.00123751  1
  Mn  Mn133  1  0.50072588  -0.00427626  0.33358064  1
  Mn  Mn134  1  0.49909591  -0.00193111  0.66570111  1
  Mn  Mn135  1  0.49588829  0.50035298  0.00139886  1
  Mn  Mn136  1  0.49730082  0.50293715  0.33514535  1
  Mn  Mn137  1  0.49915949  0.50269231  0.66878931  1
  Mn  Mn138  1  0.83689298  0.00139692  0.00013832  1
  Mn  Mn139  1  0.83341453  -0.00196345  0.33296255  1
  Mn  Mn140  1  0.83565137  0.00092007  0.66636196  1
  Mn  Mn141  1  0.83527625  0.49975024  -0.00045369  1
  Mn  Mn142  1  0.83376765  0.50178113  0.33417590  1
  Mn  Mn143  1  0.83360371  0.50190518  0.66527517  1
  O  O144  1  0.16443488  0.12779426  0.00963647  1
  O  O145  1  0.17190120  0.11884202  0.35232890  1
  O  O146  1  0.16945600  0.12165459  0.69091979  1
  O  O147  1  0.16691676  0.62188186  0.02456015  1
  O  O148  1  0.16473807  0.62829135  0.35732827  1
  O  O149  1  0.16861018  0.62677349  0.67610559  1
  O  O150  1  0.49319097  0.12388186  0.01004345  1
  O  O151  1  0.51132946  0.11540976  0.35345401  1
  O  O152  1  0.49339512  0.11866569  0.69343133  1
  O  O153  1  0.49293331  0.62654093  0.02686143  1
  O  O154  1  0.50330124  0.63170615  0.35543687  1
  O  O155  1  0.50420321  0.63089731  0.69151582  1
  O  O156  1  0.84105423  0.12606316  0.02492688  1
  O  O157  1  0.82976952  0.12098354  0.35658150  1
  O  O158  1  0.83849687  0.12417035  0.68011093  1
  O  O159  1  0.84299938  0.62329410  0.02528571  1
  O  O160  1  0.84442036  0.62517597  0.35868666  1
  O  O161  1  0.83779606  0.62564049  0.69067315  1
  O  O162  1  0.16048772  0.38251171  0.31187985  1
  O  O163  1  0.16086457  0.37569700  0.65732419  1
  O  O164  1  0.16884363  0.37528292  0.97778665  1
  O  O165  1  0.17226923  0.87090625  0.30797777  1
  O  O166  1  0.16710359  0.87526718  0.64297683  1
  O  O167  1  0.16895825  0.87493740  0.99065391  1
  O  O168  1  0.49829823  0.38047985  0.31606346  1
  O  O169  1  0.50032783  0.37702886  0.66078117  1
  O  O170  1  0.48693648  0.37876491  0.97466197  1
  O  O171  1  0.49340279  0.87200896  0.30691103  1
  O  O172  1  0.48874643  0.87344160  0.63713531  1
  O  O173  1  0.48992545  0.87203446  0.97789670  1
  O  O174  1  0.83705072  0.37909355  0.30649441  1
  O  O175  1  0.83835439  0.37794380  0.64085682  1
  O  O176  1  0.84219202  0.37748487  0.97613068  1
  O  O177  1  0.82798758  0.87402268  0.30445392  1
  O  O178  1  0.82973208  0.87277383  0.64503277  1
  O  O179  1  0.83225997  0.87261573  0.99539264  1
  O  O180  1  -0.00974670  0.38195373  0.19209898  1
  O  O181  1  -0.00834384  0.37555439  0.52320700  1
  O  O182  1  -0.01132995  0.37524478  0.85385893  1
  O  O183  1  -0.00491300  0.87158654  0.17298054  1
  O  O184  1  -0.00225146  0.87482945  0.52375619  1
  O  O185  1  0.00036226  0.87506272  0.85649504  1
  O  O186  1  0.32645991  0.37779794  0.18262171  1
  O  O187  1  0.33328288  0.37489794  0.51015860  1
  O  O188  1  0.33410125  0.37633654  0.85673793  1
  O  O189  1  0.32242343  0.87132613  0.18640849  1
  O  O190  1  0.32699423  0.87464115  0.52960445  1
  O  O191  1  0.33716818  0.87368981  0.85977608  1
  O  O192  1  0.66795797  0.37874909  0.17918136  1
  O  O193  1  0.67286815  0.38174743  0.51052539  1
  O  O194  1  0.66127435  0.37847886  0.84127071  1
  O  O195  1  0.66805355  0.87129570  0.18650685  1
  O  O196  1  0.65801543  0.87249072  0.52801385  1
  O  O197  1  0.65982776  0.87386445  0.85721115  1
  O  O198  1  -0.00518603  0.12530026  0.14133134  1
  O  O199  1  0.00220559  0.12372109  0.48622808  1
  O  O200  1  0.00794772  0.12588724  0.81547395  1
  O  O201  1  0.01024514  0.62214728  0.13374843  1
  O  O202  1  0.00194571  0.62652540  0.47622576  1
  O  O203  1  -0.00565838  0.62425502  0.81639922  1
  O  O204  1  0.33555528  0.12780175  0.14384948  1
  O  O205  1  0.33614549  0.11727895  0.47665987  1
  O  O206  1  0.34430073  0.12069278  0.81330686  1
  O  O207  1  0.33986629  0.62418704  0.14064395  1
  O  O208  1  0.33758455  0.63037368  0.48092723  1
  O  O209  1  0.34180925  0.62848985  0.81191136  1
  O  O210  1  0.67323350  0.12333949  0.15699627  1
  O  O211  1  0.67725222  0.11518707  0.47433616  1
  O  O212  1  0.66280569  0.12140719  0.82739306  1
  O  O213  1  0.66801735  0.62520294  0.15588323  1
  O  O214  1  0.67738345  0.63119202  0.47288404  1
  O  O215  1  0.67313392  0.62638713  0.81280481  1
  O  O216  1  0.08298096  0.00281255  0.24452222  1
  O  O217  1  0.08420043  0.01513937  0.58406790  1
  O  O218  1  0.07773949  0.01522617  0.91910834  1
  O  O219  1  0.07745189  0.52397913  0.24998176  1
  O  O220  1  0.07769736  0.51606693  0.58001149  1
  O  O221  1  0.07204601  0.50977383  0.92748867  1
  O  O222  1  0.40960105  0.01713210  0.26367487  1
  O  O223  1  0.40682153  0.01970310  0.59397911  1
  O  O224  1  0.40401018  0.01369135  0.92815651  1
  O  O225  1  0.41014504  0.52398912  0.25333254  1
  O  O226  1  0.41206694  0.52335938  0.59069834  1
  O  O227  1  0.40929726  0.52485484  0.92505195  1
  O  O228  1  0.74269058  0.01714688  0.26060778  1
  O  O229  1  0.75192172  0.00706590  0.57916310  1
  O  O230  1  0.74708597  0.00301537  0.92837445  1
  O  O231  1  0.74549043  0.52558400  0.26246144  1
  O  O232  1  0.74339336  0.52896890  0.59187821  1
  O  O233  1  0.75051045  0.51377296  0.91648880  1
  O  O234  1  0.25086527  0.23867183  0.25083784  1
  O  O235  1  0.24799832  0.22492906  0.58280878  1
  O  O236  1  0.24719572  0.22939307  0.91395567  1
  O  O237  1  0.24363812  0.72216878  0.24278505  1
  O  O238  1  0.24228109  0.73016650  0.57373203  1
  O  O239  1  0.24800818  0.73335944  0.92050829  1
  O  O240  1  0.58345433  0.24128715  0.25220340  1
  O  O241  1  0.57629938  0.23210314  0.57832385  1
  O  O242  1  0.57130481  0.24412319  0.91164135  1
  O  O243  1  0.57096521  0.73347479  0.23837533  1
  O  O244  1  0.57322984  0.72851525  0.57062620  1
  O  O245  1  0.56994249  0.73404729  0.90141315  1
  O  O246  1  0.90531422  0.23589369  0.23865807  1
  O  O247  1  0.91026077  0.23394563  0.57343111  1
  O  O248  1  0.91587375  0.22998602  0.91341072  1
  O  O249  1  0.90953181  0.73050230  0.23275433  1
  O  O250  1  0.90540496  0.73628491  0.57340140  1
  O  O251  1  0.90815061  0.72739913  0.91018409  1
  O  O252  1  0.08887139  0.47229105  0.09052115  1
  O  O253  1  0.07715900  0.48903223  0.41070801  1
  O  O254  1  0.07984776  0.48325053  0.75139345  1
  O  O255  1  0.08924059  0.98174294  0.08385325  1
  O  O256  1  0.09376918  0.98488659  0.42401954  1
  O  O257  1  0.08518725  0.98375180  0.74740439  1
  O  O258  1  0.41547367  0.47798329  0.08818874  1
  O  O259  1  0.41824603  0.50135812  0.41980763  1
  O  O260  1  0.42521258  0.48973262  0.76427625  1
  O  O261  1  0.42442233  0.97432747  0.09297245  1
  O  O262  1  0.42819588  0.98096558  0.43154365  1
  O  O263  1  0.42287315  0.97418912  0.75846948  1
  O  O264  1  0.76371110  0.48952521  0.09346938  1
  O  O265  1  0.76399711  0.49097244  0.43034027  1
  O  O266  1  0.76247716  0.48750680  0.75792420  1
  O  O267  1  0.76164364  0.98316521  0.09604983  1
  O  O268  1  0.75465394  0.96947382  0.42033011  1
  O  O269  1  0.75075687  0.98676269  0.74762725  1
  O  O270  1  0.25235519  0.26976726  0.07930897  1
  O  O271  1  0.24879237  0.24897451  0.41866889  1
  O  O272  1  0.25089675  0.25247223  0.75318344  1
  O  O273  1  0.26051703  0.76392546  0.07842892  1
  O  O274  1  0.26204068  0.76455852  0.41264595  1
  O  O275  1  0.26249430  0.76163389  0.73840751  1
  O  O276  1  0.57845664  0.26606696  0.08515933  1
  O  O277  1  0.58798618  0.24911573  0.41623646  1
  O  O278  1  0.58107418  0.25611013  0.75245323  1
  O  O279  1  0.59067930  0.77410113  0.07145835  1
  O  O280  1  0.59393916  0.77087150  0.40397726  1
  O  O281  1  0.59090817  0.77096501  0.73322195  1
  O  O282  1  0.92417123  0.27439700  0.07598878  1
  O  O283  1  0.92017686  0.27183711  0.40950021  1
  O  O284  1  0.91934955  0.27219607  0.74366821  1
  O  O285  1  0.93289015  0.76362345  0.06822302  1
  O  O286  1  0.91973303  0.76599417  0.41366451  1
  O  O287  1  0.92438606  0.76821635  0.73682436  1
  O  O288  1  0.25014651  0.48080331  0.08314778  1
  O  O289  1  0.24849598  0.50167581  0.41522512  1
  O  O290  1  0.25390089  0.49535018  0.75228383  1
  O  O291  1  0.26022300  0.98566461  0.07781583  1
  O  O292  1  0.25650378  0.97926436  0.41772542  1
  O  O293  1  0.26366934  0.98613030  0.73885572  1
  O  O294  1  0.57486520  0.48677039  0.08577115  1
  O  O295  1  0.58754760  0.50259609  0.41494702  1
  O  O296  1  0.58568103  0.49764603  0.74796008  1
  O  O297  1  0.59260884  0.97629529  0.07484635  1
  O  O298  1  0.59197590  0.97201479  0.40781820  1
  O  O299  1  0.58625533  0.97255131  0.73692477  1
  O  O300  1  0.92635903  0.47836057  0.07471502  1
  O  O301  1  0.92139538  0.47692424  0.40820809  1
  O  O302  1  0.91992608  0.47790992  0.74277391  1
  O  O303  1  0.92817540  0.98187473  0.07182108  1
  O  O304  1  0.91565656  0.98469876  0.41641955  1
  O  O305  1  0.92546378  0.98356466  0.74022983  1
  O  O306  1  0.08659230  0.27565193  0.08418588  1
  O  O307  1  0.08006737  0.26315795  0.41462102  1
  O  O308  1  0.08111280  0.26718049  0.75174848  1
  O  O309  1  0.09790180  0.76798190  0.09646286  1
  O  O310  1  0.09460280  0.76565355  0.42654764  1
  O  O311  1  0.08480146  0.76521293  0.74638139  1
  O  O312  1  0.41670659  0.27567134  0.08597692  1
  O  O313  1  0.41909311  0.24695991  0.42019580  1
  O  O314  1  0.42350016  0.26293611  0.76285575  1
  O  O315  1  0.42424368  0.77112221  0.09600134  1
  O  O316  1  0.42917884  0.76644052  0.43272867  1
  O  O317  1  0.42700296  0.77159053  0.75630089  1
  O  O318  1  0.76253687  0.26307512  0.09328430  1
  O  O319  1  0.76207937  0.26195103  0.42367052  1
  O  O320  1  0.75953983  0.26233791  0.75428439  1
  O  O321  1  0.76310274  0.76173515  0.09562730  1
  O  O322  1  0.75681983  0.77583070  0.42988368  1
  O  O323  1  0.75235923  0.76241358  0.75099784  1
  O  O324  1  0.25297559  0.01569589  0.25029472  1
  O  O325  1  0.24497669  0.02406500  0.57748469  1
  O  O326  1  0.24530318  0.02283491  0.90727316  1
  O  O327  1  0.24371813  0.52510522  0.24637495  1
  O  O328  1  0.24677742  0.52052398  0.58079470  1
  O  O329  1  0.25123881  0.51525998  0.92366637  1
  O  O330  1  0.58252461  0.00262993  0.24536418  1
  O  O331  1  0.57213851  0.01411328  0.56886061  1
  O  O332  1  0.56578460  0.00974332  0.90401096  1
  O  O333  1  0.57385746  0.52071599  0.24860545  1
  O  O334  1  0.57991972  0.52717081  0.57936600  1
  O  O335  1  0.57173446  0.51341905  0.90905427  1
  O  O336  1  0.90552359  0.01098516  0.23603409  1
  O  O337  1  0.91179006  0.01195516  0.57653214  1
  O  O338  1  0.91486092  0.02044803  0.91285815  1
  O  O339  1  0.91122143  0.52699898  0.23941543  1
  O  O340  1  0.90623998  0.52050364  0.57216755  1
  O  O341  1  0.90952567  0.52193971  0.90950214  1
  O  O342  1  0.07960803  0.24963122  0.24797030  1
  O  O343  1  0.08255225  0.23388442  0.58253127  1
  O  O344  1  0.07813329  0.23838515  0.92001199  1
  O  O345  1  0.07337357  0.72488309  0.25278276  1
  O  O346  1  0.07722436  0.73471904  0.58338056  1
  O  O347  1  0.07352983  0.73904691  0.93172141  1
  O  O348  1  0.41295600  0.23549591  0.25580843  1
  O  O349  1  0.41147004  0.22668188  0.58950074  1
  O  O350  1  0.40753432  0.23166068  0.92427949  1
  O  O351  1  0.40644756  0.72574304  0.25873870  1
  O  O352  1  0.40633623  0.72778474  0.59516312  1
  O  O353  1  0.40964207  0.72919279  0.92758387  1
  O  O354  1  0.74683836  0.22904104  0.25818425  1
  O  O355  1  0.75180434  0.23474041  0.58090656  1
  O  O356  1  0.75286246  0.24535563  0.91751269  1
  O  O357  1  0.74150147  0.72944725  0.26571691  1
  O  O358  1  0.74094247  0.73104675  0.59216042  1
  O  O359  1  0.74791735  0.74034360  0.92510884  1
