# generated using pymatgen
data_Ba17Sr5La8Pr42Mn72O216
_symmetry_space_group_name_H-M   'P 1'
_cell_length_a   16.67090317
_cell_length_b   15.70736598
_cell_length_c   16.82345460
_cell_angle_alpha   90.00738991
_cell_angle_beta   90.00749761
_cell_angle_gamma   90.00774860
_symmetry_Int_Tables_number   1
_chemical_formula_structural   Ba17Sr5La8Pr42Mn72O216
_chemical_formula_sum   'Ba17 Sr5 La8 Pr42 Mn72 O216'
_cell_volume   4405.32202814
_cell_formula_units_Z   1
loop_
 _symmetry_equiv_pos_site_id
 _symmetry_equiv_pos_as_xyz
  1  'x, y, z'
loop_
 _atom_site_type_symbol
 _atom_site_label
 _atom_site_symmetry_multiplicity
 _atom_site_fract_x
 _atom_site_fract_y
 _atom_site_fract_z
 _atom_site_occupancy
  Ba  Ba0  1  0.00017390  0.62627492  0.99966548  1
  Ba  Ba1  1  0.16468987  0.87623888  0.16292445  1
  Ba  Ba2  1  0.16552430  0.37490051  0.82931464  1
  Ba  Ba3  1  0.66509297  0.37471243  -0.00079868  1
  Ba  Ba4  1  0.33812205  0.12409158  0.66777931  1
  Ba  Ba5  1  0.33564762  0.62533812  0.33441387  1
  Ba  Ba6  1  0.49987457  0.62488611  0.17167798  1
  Ba  Ba7  1  0.33386340  0.87567167  0.66819531  1
  Ba  Ba8  1  0.33117099  0.37412623  -0.00032356  1
  Ba  Ba9  1  0.83634022  0.62278096  0.49855437  1
  Ba  Ba10  1  0.33268732  0.37256631  0.66817340  1
  Ba  Ba11  1  0.83518489  0.12555506  0.16759475  1
  Ba  Ba12  1  0.83235075  0.87452765  0.83316964  1
  Ba  Ba13  1  0.16556184  0.62492083  0.83194738  1
  Ba  Ba14  1  -0.00301310  0.87648798  0.66568785  1
  Ba  Ba15  1  0.66879354  0.37615576  0.66677554  1
  Ba  Ba16  1  0.66719899  0.12655815  0.99870962  1
  Sr  Sr17  1  0.82755123  0.37673013  0.49949951  1
  Sr  Sr18  1  -0.00202932  0.87220693  -0.00021241  1
  Sr  Sr19  1  0.32950184  0.87508519  0.00127263  1
  Sr  Sr20  1  0.50046224  0.12479246  0.83460318  1
  Sr  Sr21  1  0.16464375  0.37266454  0.49674137  1
  La  La22  1  0.16547074  0.37564855  0.16183767  1
  La  La23  1  0.17134779  0.12389844  0.16196067  1
  La  La24  1  0.50014274  0.37007409  0.83179240  1
  La  La25  1  0.83868674  0.62418192  0.16939270  1
  La  La26  1  0.49463792  0.87396926  0.16586347  1
  La  La27  1  0.00274108  0.62643253  0.66539029  1
  La  La28  1  0.66481135  0.62608507  0.99960573  1
  La  La29  1  0.33356777  0.62093073  0.66563379  1
  Pr  Pr30  1  0.17391453  0.62671857  0.16499324  1
  Pr  Pr31  1  0.50137444  0.12875129  0.16710276  1
  Pr  Pr32  1  0.00490294  0.12214669  0.99595759  1
  Pr  Pr33  1  0.50001856  0.87849202  0.83479906  1
  Pr  Pr34  1  0.66047997  0.87666241  0.33397561  1
  Pr  Pr35  1  0.49145394  0.87773333  0.49874937  1
  Pr  Pr36  1  0.82554541  0.87265275  0.49931075  1
  Pr  Pr37  1  0.67184704  0.62545775  0.66371761  1
  Pr  Pr38  1  0.17539494  0.12260487  0.83087460  1
  Pr  Pr39  1  0.50739886  0.12387698  0.50822839  1
  Pr  Pr40  1  0.67294154  0.12501256  0.66846912  1
  Pr  Pr41  1  0.49703738  0.62377412  0.83791968  1
  Pr  Pr42  1  0.16051034  0.87752013  0.49313163  1
  Pr  Pr43  1  -0.01087533  0.37248901  0.33764768  1
  Pr  Pr44  1  0.49678726  0.37210128  0.50111271  1
  Pr  Pr45  1  0.32937958  0.62758057  1.00012255  1
  Pr  Pr46  1  0.33769168  0.12445443  0.33368985  1
  Pr  Pr47  1  0.84081221  0.12951429  0.50241903  1
  Pr  Pr48  1  0.82867714  0.87387655  0.15962687  1
  Pr  Pr49  1  0.49811256  0.37797015  0.16548964  1
  Pr  Pr50  1  0.17026883  0.62609483  0.50344959  1
  Pr  Pr51  1  -0.01029369  0.87775753  0.33521819  1
  Pr  Pr52  1  0.33096891  0.37916699  0.33751051  1
  Pr  Pr53  1  0.82796625  0.37544749  0.16479964  1
  Pr  Pr54  1  0.17415631  0.12457014  0.50166982  1
  Pr  Pr55  1  0.00702491  0.12374110  0.66519627  1
  Pr  Pr56  1  0.83017935  0.37535947  0.83200653  1
  Pr  Pr57  1  -0.00437407  0.37576395  0.66626943  1
  Pr  Pr58  1  0.67195274  0.12568823  0.32923146  1
  Pr  Pr59  1  0.00833614  0.62074963  0.32807919  1
  Pr  Pr60  1  0.66158141  0.87801752  0.00301801  1
  Pr  Pr61  1  0.32707572  0.87008274  0.33631228  1
  Pr  Pr62  1  0.33478758  0.12127757  0.99433776  1
  Pr  Pr63  1  0.66645661  0.87272752  0.66994037  1
  Pr  Pr64  1  0.66141570  0.37337024  0.33804159  1
  Pr  Pr65  1  0.67313408  0.62415267  0.33026578  1
  Pr  Pr66  1  0.50186396  0.62563102  0.50543531  1
  Pr  Pr67  1  0.15963295  0.87380757  0.83191338  1
  Pr  Pr68  1  0.83501356  0.62458128  0.83185607  1
  Pr  Pr69  1  -0.00165602  0.37824867  -0.00008150  1
  Pr  Pr70  1  0.01053579  0.12746668  0.32777602  1
  Pr  Pr71  1  0.83730591  0.12574192  0.83787509  1
  Mn  Mn72  1  -0.00082425  0.00067505  0.16598136  1
  Mn  Mn73  1  -0.00163621  0.00171196  0.49692901  1
  Mn  Mn74  1  0.00039653  0.00173221  0.83164031  1
  Mn  Mn75  1  0.00136270  0.49794188  0.16812066  1
  Mn  Mn76  1  0.00155175  0.49821780  0.49747425  1
  Mn  Mn77  1  -0.00296182  0.49795493  0.83231276  1
  Mn  Mn78  1  0.33493208  0.00292972  0.16654345  1
  Mn  Mn79  1  0.33369077  -0.00067947  0.49794518  1
  Mn  Mn80  1  0.33430394  -0.00265679  0.83552858  1
  Mn  Mn81  1  0.33234805  0.49823128  0.16862792  1
  Mn  Mn82  1  0.33373649  0.49929735  0.50046645  1
  Mn  Mn83  1  0.33408910  0.50184748  0.83307066  1
  Mn  Mn84  1  0.66488059  0.00043413  0.16871722  1
  Mn  Mn85  1  0.66847877  0.00021652  0.50024730  1
  Mn  Mn86  1  0.66701143  -0.00072931  0.83350019  1
  Mn  Mn87  1  0.66743987  0.49992179  0.16833043  1
  Mn  Mn88  1  0.66435802  0.49976933  0.49924072  1
  Mn  Mn89  1  0.66519680  0.50283004  0.83314711  1
  Mn  Mn90  1  0.00146458  0.25128680  0.16595931  1
  Mn  Mn91  1  0.00056260  0.24945958  0.49829485  1
  Mn  Mn92  1  -0.00025892  0.24939259  0.83165059  1
  Mn  Mn93  1  -0.00037013  0.74977693  0.16842142  1
  Mn  Mn94  1  0.00027601  0.75099837  0.49587863  1
  Mn  Mn95  1  -0.00155603  0.75047970  0.83264032  1
  Mn  Mn96  1  0.33337461  0.24798990  0.16857438  1
  Mn  Mn97  1  0.33470612  0.25055872  0.49772271  1
  Mn  Mn98  1  0.33464086  0.24810725  0.83432674  1
  Mn  Mn99  1  0.33318955  0.75217989  0.16744363  1
  Mn  Mn100  1  0.33326497  0.74970358  0.50199192  1
  Mn  Mn101  1  0.33354623  0.75194225  0.83461874  1
  Mn  Mn102  1  0.66573411  0.24990341  0.16905236  1
  Mn  Mn103  1  0.66755520  0.24865885  0.49954295  1
  Mn  Mn104  1  0.66746306  0.25003965  0.83265067  1
  Mn  Mn105  1  0.66706055  0.75090006  0.16714925  1
  Mn  Mn106  1  0.66474883  0.75121773  0.49979393  1
  Mn  Mn107  1  0.66454994  0.74852506  0.83313656  1
  Mn  Mn108  1  0.16464089  0.24959070  -0.00164258  1
  Mn  Mn109  1  0.16888713  0.24949968  0.33016500  1
  Mn  Mn110  1  0.16523354  0.24904962  0.66340682  1
  Mn  Mn111  1  0.16590065  0.75129101  -0.00069503  1
  Mn  Mn112  1  0.16444784  0.74977749  0.33225862  1
  Mn  Mn113  1  0.16656903  0.75154003  0.66473627  1
  Mn  Mn114  1  0.49837406  0.25074026  0.00123114  1
  Mn  Mn115  1  0.49960177  0.24772304  0.33538652  1
  Mn  Mn116  1  0.50411386  0.24832939  0.66756891  1
  Mn  Mn117  1  0.49814705  0.74961616  0.00115071  1
  Mn  Mn118  1  0.50214374  0.75252955  0.33650384  1
  Mn  Mn119  1  0.50208299  0.75000879  0.66993102  1
  Mn  Mn120  1  0.83643462  0.25105233  0.00059993  1
  Mn  Mn121  1  0.83222015  0.24974624  0.33570991  1
  Mn  Mn122  1  0.83481695  0.24892626  0.66792934  1
  Mn  Mn123  1  0.83056374  0.74957590  0.00006043  1
  Mn  Mn124  1  0.83379885  0.75171941  0.33127099  1
  Mn  Mn125  1  0.83369941  0.74911434  0.66487286  1
  Mn  Mn126  1  0.16527571  0.00055458  -0.00192921  1
  Mn  Mn127  1  0.16677631  0.00141274  0.33056297  1
  Mn  Mn128  1  0.16700222  -0.00084880  0.66422767  1
  Mn  Mn129  1  0.16549952  0.49879678  -0.00046138  1
  Mn  Mn130  1  0.16641788  0.49789761  0.33148672  1
  Mn  Mn131  1  0.16492550  0.49965119  0.66242730  1
  Mn  Mn132  1  0.49850553  -0.00121821  0.00144161  1
  Mn  Mn133  1  0.49920737  0.00174948  0.33491167  1
  Mn  Mn134  1  0.50506740  -0.00117740  0.66784539  1
  Mn  Mn135  1  0.49796588  0.50152007  0.00143322  1
  Mn  Mn136  1  0.50172581  0.49868275  0.33642397  1
  Mn  Mn137  1  0.50166465  0.50150776  0.66969897  1
  Mn  Mn138  1  0.83459594  -0.00011477  0.00035935  1
  Mn  Mn139  1  0.83264105  -0.00048640  0.33493489  1
  Mn  Mn140  1  0.83318713  0.00315536  0.66571074  1
  Mn  Mn141  1  0.83133313  0.50086769  0.00033617  1
  Mn  Mn142  1  0.83280038  0.49927141  0.33319154  1
  Mn  Mn143  1  0.83505142  0.49898065  0.66655275  1
  O  O144  1  0.16062002  0.12670464  0.01874303  1
  O  O145  1  0.16002147  0.12557990  0.35835997  1
  O  O146  1  0.15957715  0.12375186  0.68422702  1
  O  O147  1  0.17105003  0.62379370  0.01912948  1
  O  O148  1  0.15704872  0.62481162  0.35915904  1
  O  O149  1  0.16092528  0.62563683  0.67245345  1
  O  O150  1  0.49281387  0.12258818  0.02331550  1
  O  O151  1  0.49271606  0.12565551  0.36604126  1
  O  O152  1  0.51051966  0.12024066  0.68240756  1
  O  O153  1  0.50235488  0.62625675  0.01686003  1
  O  O154  1  0.50717748  0.63013234  0.35986782  1
  O  O155  1  0.50072912  0.62803875  0.69327891  1
  O  O156  1  0.84210541  0.12701406  0.01156834  1
  O  O157  1  0.82294475  0.12174337  0.35919365  1
  O  O158  1  0.82821453  0.12607156  0.69163723  1
  O  O159  1  0.82694153  0.62506802  0.02569404  1
  O  O160  1  0.82675187  0.62561007  0.34327349  1
  O  O161  1  0.83336167  0.62201799  0.68473104  1
  O  O162  1  0.17873482  0.37053419  0.30571021  1
  O  O163  1  0.15806534  0.37404062  0.64786295  1
  O  O164  1  0.16087904  0.37200620  0.98780173  1
  O  O165  1  0.17470055  0.87770045  0.31919790  1
  O  O166  1  0.16575268  0.87641245  0.63913081  1
  O  O167  1  0.16876846  0.87880423  0.97756338  1
  O  O168  1  0.50852649  0.36537704  0.30854640  1
  O  O169  1  0.50127252  0.37694921  0.64527397  1
  O  O170  1  0.49801214  0.37964979  0.97825414  1
  O  O171  1  0.50865591  0.87933742  0.31054428  1
  O  O172  1  0.51074145  0.87342778  0.64056951  1
  O  O173  1  0.50425758  0.87188499  0.97880591  1
  O  O174  1  0.83545105  0.37613654  0.31003660  1
  O  O175  1  0.83997995  0.37262295  0.64726966  1
  O  O176  1  0.84011094  0.37538960  0.97692778  1
  O  O177  1  0.83964257  0.87604808  0.30524823  1
  O  O178  1  0.82637760  0.87876166  0.64260466  1
  O  O179  1  0.82940627  0.87366157  0.99048370  1
  O  O180  1  0.01072173  0.37423075  0.19522631  1
  O  O181  1  0.00294153  0.36911321  0.52273423  1
  O  O182  1  -0.00592315  0.37254899  0.85512420  1
  O  O183  1  -0.00529211  0.87290502  0.19214783  1
  O  O184  1  0.00734997  0.87815176  0.51024086  1
  O  O185  1  0.00773885  0.87996470  0.84716160  1
  O  O186  1  0.32878474  0.36965859  0.19299363  1
  O  O187  1  0.33742793  0.37406904  0.51167885  1
  O  O188  1  0.34055176  0.37311161  0.84216286  1
  O  O189  1  0.33578760  0.88235415  0.19274889  1
  O  O190  1  0.33242926  0.87417245  0.51088960  1
  O  O191  1  0.34016952  0.87456712  0.85396687  1
  O  O192  1  0.66499150  0.37440396  0.19213135  1
  O  O193  1  0.66132564  0.37355762  0.51177302  1
  O  O194  1  0.67325677  0.37863459  0.84331029  1
  O  O195  1  0.66584873  0.87589393  0.18983591  1
  O  O196  1  0.67426401  0.87824916  0.52718417  1
  O  O197  1  0.66494084  0.87127126  0.85883593  1
  O  O198  1  0.00241727  0.12997646  0.14199157  1
  O  O199  1  -0.00884324  0.12489270  0.46942930  1
  O  O200  1  -0.00804413  0.12757442  0.80895264  1
  O  O201  1  -0.00799786  0.62174064  0.15631304  1
  O  O202  1  0.00686061  0.62865412  0.47137624  1
  O  O203  1  -0.00948711  0.62016922  0.81204160  1
  O  O204  1  0.34198849  0.12600031  0.14015768  1
  O  O205  1  0.33759222  0.12474178  0.47742656  1
  O  O206  1  0.33118770  0.12192119  0.82552939  1
  O  O207  1  0.32963656  0.62313900  0.14781921  1
  O  O208  1  0.33699673  0.62580014  0.48946030  1
  O  O209  1  0.33998096  0.62996159  0.80970781  1
  O  O210  1  0.66003523  0.12365951  0.15639680  1
  O  O211  1  0.66101107  0.12242982  0.47130887  1
  O  O212  1  0.66893563  0.12354625  0.81317678  1
  O  O213  1  0.67205417  0.62670235  0.14710634  1
  O  O214  1  0.65701920  0.62556821  0.47256214  1
  O  O215  1  0.65474345  0.62702620  0.80618937  1
  O  O216  1  0.08834973  0.02241493  0.24300150  1
  O  O217  1  0.08458677  0.02300517  0.57197562  1
  O  O218  1  0.08749240  0.02358321  0.90914623  1
  O  O219  1  0.08926093  0.52123994  0.24314696  1
  O  O220  1  0.08827270  0.51923721  0.57132569  1
  O  O221  1  0.07722913  0.50380682  0.91647117  1
  O  O222  1  0.42145343  0.02567079  0.24897925  1
  O  O223  1  0.43044179  0.00940546  0.57365104  1
  O  O224  1  0.41391022  0.01343196  0.92291593  1
  O  O225  1  0.41887985  0.49877817  0.25444398  1
  O  O226  1  0.42052228  0.52085800  0.58644091  1
  O  O227  1  0.41517088  0.52454167  0.92030033  1
  O  O228  1  0.74717457  0.01061449  0.25586734  1
  O  O229  1  0.75711271  0.02733611  0.57398273  1
  O  O230  1  0.75693220  0.01535418  0.90811719  1
  O  O231  1  0.75634825  0.51695487  0.24485419  1
  O  O232  1  0.74714936  0.51427033  0.58536190  1
  O  O233  1  0.74314444  0.52612573  0.91686115  1
  O  O234  1  0.25529602  0.21890145  0.25241133  1
  O  O235  1  0.24933902  0.23455413  0.57610976  1
  O  O236  1  0.25119170  0.22900718  0.92074122  1
  O  O237  1  0.24746421  0.73602919  0.25062911  1
  O  O238  1  0.25430118  0.72927928  0.58775648  1
  O  O239  1  0.25652896  0.73587778  0.92219706  1
  O  O240  1  0.58172679  0.22394351  0.25967560  1
  O  O241  1  0.59114291  0.22705652  0.58460891  1
  O  O242  1  0.58156788  0.24360736  0.91334062  1
  O  O243  1  0.59643765  0.73775256  0.26339192  1
  O  O244  1  0.58537955  0.72541425  0.59023526  1
  O  O245  1  0.58295679  0.73035153  0.91803638  1
  O  O246  1  0.92775093  0.23694306  0.25999889  1
  O  O247  1  0.92277084  0.22586508  0.59163402  1
  O  O248  1  0.92534985  0.23136369  0.92108984  1
  O  O249  1  0.92572120  0.73134642  0.26214633  1
  O  O250  1  0.92417211  0.73708471  0.58396748  1
  O  O251  1  0.91117323  0.73708218  0.91533602  1
  O  O252  1  0.07938185  0.48061120  0.08240321  1
  O  O253  1  0.07713361  0.47618054  0.40264840  1
  O  O254  1  0.07321838  0.48944265  0.73670994  1
  O  O255  1  0.07646758  0.99109366  0.07204552  1
  O  O256  1  0.07649472  0.98460530  0.40529238  1
  O  O257  1  0.08443300  0.99072445  0.74985861  1
  O  O258  1  0.41688072  0.48382189  0.08982899  1
  O  O259  1  0.41799414  0.47952348  0.41939118  1
  O  O260  1  0.42389361  0.49035150  0.75569929  1
  O  O261  1  0.41844141  0.97885794  0.08723864  1
  O  O262  1  0.41059317  0.97542377  0.40716683  1
  O  O263  1  0.42350125  0.98618521  0.75536908  1
  O  O264  1  0.75373451  0.48310608  0.08796951  1
  O  O265  1  0.74175507  0.48500833  0.40667173  1
  O  O266  1  0.75694312  0.49487960  0.75701065  1
  O  O267  1  0.74452434  0.98139174  0.08259647  1
  O  O268  1  0.74534237  0.97252741  0.41407641  1
  O  O269  1  0.74035494  0.98744307  0.73573577  1
  O  O270  1  0.24110117  0.25822378  0.09406357  1
  O  O271  1  0.25191516  0.26160662  0.41169696  1
  O  O272  1  0.24570906  0.25005003  0.75336195  1
  O  O273  1  0.24865952  0.75657925  0.08255669  1
  O  O274  1  0.24177129  0.76514101  0.42109122  1
  O  O275  1  0.24541159  0.76831962  0.75826447  1
  O  O276  1  0.57709228  0.26344494  0.09441083  1
  O  O277  1  0.57596033  0.26752052  0.42014592  1
  O  O278  1  0.58256673  0.26273909  0.75306716  1
  O  O279  1  0.58064018  0.77109491  0.08582019  1
  O  O280  1  0.57814397  0.77885514  0.42540203  1
  O  O281  1  0.58206042  0.77649449  0.75318623  1
  O  O282  1  0.91598880  0.27851117  0.09012683  1
  O  O283  1  0.91039169  0.26720444  0.42372331  1
  O  O284  1  0.91120323  0.27079795  0.75698777  1
  O  O285  1  0.90725437  0.76200381  0.09752560  1
  O  O286  1  0.90931911  0.77458953  0.42050469  1
  O  O287  1  0.91290452  0.75302581  0.74920561  1
  O  O288  1  0.24260525  0.48767008  0.09079464  1
  O  O289  1  0.24834428  0.48397648  0.41364414  1
  O  O290  1  0.25154052  0.49898052  0.74455797  1
  O  O291  1  0.25002809  0.99854768  0.08185276  1
  O  O292  1  0.24433660  0.98640476  0.41748332  1
  O  O293  1  0.24521803  0.98637973  0.75953528  1
  O  O294  1  0.57948499  0.48596398  0.09139559  1
  O  O295  1  0.57690938  0.47654479  0.42255896  1
  O  O296  1  0.57973942  0.48419943  0.75539517  1
  O  O297  1  0.57967885  0.97919945  0.08677126  1
  O  O298  1  0.57776467  0.97810789  0.42518553  1
  O  O299  1  0.58393457  0.97437890  0.75213459  1
  O  O300  1  0.91700165  0.47615747  0.09021389  1
  O  O301  1  0.91425181  0.48095998  0.41895722  1
  O  O302  1  0.91450162  0.47552687  0.75147205  1
  O  O303  1  0.91065633  0.98210667  0.09305148  1
  O  O304  1  0.90679075  0.97706759  0.42504430  1
  O  O305  1  0.91216072  0.99647965  0.75199986  1
  O  O306  1  0.07481752  0.26934852  0.07563905  1
  O  O307  1  0.07678724  0.26684496  0.40336114  1
  O  O308  1  0.06921438  0.26130249  0.73712027  1
  O  O309  1  0.07818776  0.75868946  0.08220716  1
  O  O310  1  0.07698109  0.77483359  0.40677822  1
  O  O311  1  0.08322087  0.76104604  0.74667077  1
  O  O312  1  0.41986970  0.26836430  0.09492245  1
  O  O313  1  0.41518854  0.27472424  0.40957705  1
  O  O314  1  0.42281389  0.25772313  0.75493148  1
  O  O315  1  0.41614360  0.76782895  0.08385141  1
  O  O316  1  0.41530144  0.77201756  0.41539145  1
  O  O317  1  0.42427025  0.76785599  0.75669560  1
  O  O318  1  0.75418508  0.26555333  0.08810767  1
  O  O319  1  0.74233668  0.26667788  0.41348750  1
  O  O320  1  0.75256904  0.26056566  0.74969423  1
  O  O321  1  0.74101301  0.77111481  0.07723490  1
  O  O322  1  0.74465007  0.77227027  0.40623447  1
  O  O323  1  0.74119386  0.75880759  0.74285565  1
  O  O324  1  0.25475456  0.02615808  0.25306141  1
  O  O325  1  0.24879800  0.01566211  0.57826967  1
  O  O326  1  0.24931620  0.01964135  0.91905615  1
  O  O327  1  0.24712088  0.51750865  0.24822876  1
  O  O328  1  0.25076979  0.51803661  0.58115096  1
  O  O329  1  0.25455494  0.51511792  0.92219039  1
  O  O330  1  0.58365547  0.02228451  0.25838664  1
  O  O331  1  0.59511234  0.02029497  0.58795590  1
  O  O332  1  0.58124880  0.00640670  0.91748951  1
  O  O333  1  0.59504516  0.51355142  0.26269508  1
  O  O334  1  0.58287932  0.52540448  0.58647636  1
  O  O335  1  0.58125354  0.52030593  0.91688116  1
  O  O336  1  0.92581049  0.01824104  0.26667696  1
  O  O337  1  0.91945166  0.02499784  0.58605074  1
  O  O338  1  0.92414196  0.01804211  0.91940025  1
  O  O339  1  0.92304688  0.51228441  0.25727668  1
  O  O340  1  0.92706181  0.51357388  0.59279890  1
  O  O341  1  0.90579329  0.51412740  0.91064132  1
  O  O342  1  0.09219327  0.22836494  0.24052974  1
  O  O343  1  0.08626582  0.22278481  0.57258462  1
  O  O344  1  0.08625674  0.22556424  0.90633322  1
  O  O345  1  0.08702288  0.72588029  0.24627526  1
  O  O346  1  0.08919259  0.73507010  0.57001679  1
  O  O347  1  0.08617142  0.74744549  0.91398681  1
  O  O348  1  0.42014874  0.22525224  0.25398931  1
  O  O349  1  0.42866008  0.23691876  0.57337163  1
  O  O350  1  0.41403792  0.23305104  0.92221308  1
  O  O351  1  0.42097143  0.75022075  0.25296072  1
  O  O352  1  0.42332893  0.73264128  0.58465183  1
  O  O353  1  0.41680530  0.72771316  0.91903352  1
  O  O354  1  0.74623481  0.23899080  0.25473497  1
  O  O355  1  0.75520851  0.22756570  0.57888502  1
  O  O356  1  0.75953588  0.23951588  0.90870650  1
  O  O357  1  0.76063244  0.73620441  0.24013245  1
  O  O358  1  0.74838220  0.73487846  0.58064571  1
  O  O359  1  0.74678582  0.72266050  0.91101331  1
