# generated using pymatgen
data_Ba17Sr5La8Pr42Mn72O216
_symmetry_space_group_name_H-M   'P 1'
_cell_length_a   16.67021862
_cell_length_b   15.70635377
_cell_length_c   16.81645400
_cell_angle_alpha   89.98933727
_cell_angle_beta   89.96772335
_cell_angle_gamma   89.94627574
_symmetry_Int_Tables_number   1
_chemical_formula_structural   Ba17Sr5La8Pr42Mn72O216
_chemical_formula_sum   'Ba17 Sr5 La8 Pr42 Mn72 O216'
_cell_volume   4403.02171253
_cell_formula_units_Z   1
loop_
 _symmetry_equiv_pos_site_id
 _symmetry_equiv_pos_as_xyz
  1  'x, y, z'
loop_
 _atom_site_type_symbol
 _atom_site_label
 _atom_site_symmetry_multiplicity
 _atom_site_fract_x
 _atom_site_fract_y
 _atom_site_fract_z
 _atom_site_occupancy
  Ba  Ba0  1  0.83060601  0.87592516  0.49656105  1
  Ba  Ba1  1  0.16734099  0.62628225  0.83336677  1
  Ba  Ba2  1  0.00004615  0.62394661  0.99495994  1
  Ba  Ba3  1  0.50072020  0.37246656  0.83469939  1
  Ba  Ba4  1  0.33217493  0.87563533  0.33358835  1
  Ba  Ba5  1  0.16930708  0.37509390  0.16507936  1
  Ba  Ba6  1  0.66486267  0.37430173  0.33471629  1
  Ba  Ba7  1  0.83425885  0.62453910  0.83127361  1
  Ba  Ba8  1  0.82929638  0.87541773  0.16500371  1
  Ba  Ba9  1  0.83138217  0.37436543  0.16597722  1
  Ba  Ba10  1  0.66831385  0.62292432  0.66898491  1
  Ba  Ba11  1  0.00246230  0.12343760  0.33255750  1
  Ba  Ba12  1  0.16661097  0.37613460  0.49916473  1
  Ba  Ba13  1  0.49799649  0.87843209  0.83479782  1
  Ba  Ba14  1  -0.00038544  0.37474140  0.00042590  1
  Ba  Ba15  1  0.50089602  0.62487164  0.83548778  1
  Ba  Ba16  1  0.33525550  0.62502428  0.67005367  1
  Sr  Sr17  1  0.66762603  0.37451192  0.66754357  1
  Sr  Sr18  1  0.50020973  0.37632725  0.50235562  1
  Sr  Sr19  1  0.33376318  0.37646562  0.00089749  1
  Sr  Sr20  1  0.49331739  0.87715572  0.16562077  1
  Sr  Sr21  1  -0.00085853  0.37183131  0.66825849  1
  La  La22  1  0.83731336  0.62226632  0.50524106  1
  La  La23  1  0.83896527  0.12670385  0.16927277  1
  La  La24  1  0.50242114  0.12698324  0.49825269  1
  La  La25  1  0.16433903  0.87281882  0.49635496  1
  La  La26  1  0.16966495  0.62224088  0.16250482  1
  La  La27  1  0.32983241  0.87542881  0.67071955  1
  La  La28  1  0.16528484  0.37796765  0.83071426  1
  La  La29  1  0.66989082  0.62419623  0.33552511  1
  Pr  Pr30  1  -0.00758039  0.86990377  -0.00180310  1
  Pr  Pr31  1  0.33350350  0.37470098  0.67364539  1
  Pr  Pr32  1  0.66399910  0.87389446  0.66997949  1
  Pr  Pr33  1  0.67246414  0.62536069  0.99334244  1
  Pr  Pr34  1  0.83441338  0.37731744  0.83183875  1
  Pr  Pr35  1  0.83343415  0.12745031  0.50117228  1
  Pr  Pr36  1  0.83020925  0.87167348  0.83007462  1
  Pr  Pr37  1  0.50703633  0.12648864  0.83654420  1
  Pr  Pr38  1  0.33374694  0.62213747  0.99397871  1
  Pr  Pr39  1  0.17482876  0.62645068  0.50563498  1
  Pr  Pr40  1  -0.00714098  0.87673376  0.66673058  1
  Pr  Pr41  1  0.49890712  0.87198829  0.49942404  1
  Pr  Pr42  1  0.16870582  0.12620640  0.83459259  1
  Pr  Pr43  1  0.17220777  0.12394833  0.50253711  1
  Pr  Pr44  1  0.00397443  0.62534860  0.32990070  1
  Pr  Pr45  1  0.66511656  0.37907514  0.00425389  1
  Pr  Pr46  1  0.83990969  0.62309765  0.16500510  1
  Pr  Pr47  1  -0.00658590  0.37424334  0.33629450  1
  Pr  Pr48  1  0.50366149  0.62254594  0.50910686  1
  Pr  Pr49  1  -0.00410935  0.87523165  0.33515503  1
  Pr  Pr50  1  0.00346685  0.12651151  1.00123991  1
  Pr  Pr51  1  0.50134358  0.62673362  0.16807500  1
  Pr  Pr52  1  0.50059421  0.12468100  0.17230751  1
  Pr  Pr53  1  0.66603572  0.12584552  0.66494769  1
  Pr  Pr54  1  0.66028508  0.87542671  0.33521653  1
  Pr  Pr55  1  0.00466677  0.62289869  0.66279871  1
  Pr  Pr56  1  0.34127273  0.12641446  0.66632840  1
  Pr  Pr57  1  0.66997414  0.12428880  0.33011508  1
  Pr  Pr58  1  0.33381275  0.37459836  0.33744918  1
  Pr  Pr59  1  0.33694760  0.62267193  0.33601113  1
  Pr  Pr60  1  0.32812521  0.87140824  0.00569650  1
  Pr  Pr61  1  0.16861324  0.12867122  0.16940965  1
  Pr  Pr62  1  0.67239241  0.12276343  0.99996032  1
  Pr  Pr63  1  0.33867964  0.12683553  1.00176267  1
  Pr  Pr64  1  0.83846397  0.12736887  0.83305319  1
  Pr  Pr65  1  0.83019271  0.37613225  0.49660192  1
  Pr  Pr66  1  0.16102082  0.87692795  0.16419020  1
  Pr  Pr67  1  0.15959250  0.87473473  0.83116122  1
  Pr  Pr68  1  0.33321081  0.12844068  0.33247184  1
  Pr  Pr69  1  0.65542538  0.87178197  0.00423357  1
  Pr  Pr70  1  0.00417569  0.12525676  0.65862457  1
  Pr  Pr71  1  0.49931449  0.37342513  0.16343745  1
  Mn  Mn72  1  0.00075699  -0.00222129  0.16337608  1
  Mn  Mn73  1  0.00131394  0.00039296  0.49855658  1
  Mn  Mn74  1  -0.00055969  0.00275565  0.83135945  1
  Mn  Mn75  1  0.00147786  0.50206276  0.16743103  1
  Mn  Mn76  1  0.00046548  0.49934802  0.49808620  1
  Mn  Mn77  1  0.00027848  0.49689175  0.82972665  1
  Mn  Mn78  1  0.33109327  0.00010030  0.16713094  1
  Mn  Mn79  1  0.33409923  0.00155359  0.50235258  1
  Mn  Mn80  1  0.33128216  0.00210422  0.83526042  1
  Mn  Mn81  1  0.33548801  0.50288524  0.16736893  1
  Mn  Mn82  1  0.33595473  0.49824947  0.50096896  1
  Mn  Mn83  1  0.33334878  0.49807680  0.83579781  1
  Mn  Mn84  1  0.66381950  -0.00031349  0.16588457  1
  Mn  Mn85  1  0.66539989  0.00138141  0.49934776  1
  Mn  Mn86  1  0.66959276  0.00141552  0.83267743  1
  Mn  Mn87  1  0.66498160  0.50347149  0.16614154  1
  Mn  Mn88  1  0.66618131  0.49852520  0.50028745  1
  Mn  Mn89  1  0.66755313  0.49727474  0.83445316  1
  Mn  Mn90  1  0.00166092  0.24987935  0.16659801  1
  Mn  Mn91  1  0.00037503  0.25046851  0.50015024  1
  Mn  Mn92  1  0.00122828  0.24727206  0.83107356  1
  Mn  Mn93  1  0.00026084  0.75008677  0.16613877  1
  Mn  Mn94  1  0.00125115  0.74961168  0.49682281  1
  Mn  Mn95  1  -0.00110160  0.75279891  0.83090281  1
  Mn  Mn96  1  0.33473002  0.24967670  0.16753665  1
  Mn  Mn97  1  0.33522568  0.24977506  0.50121060  1
  Mn  Mn98  1  0.33250616  0.24677481  0.83421531  1
  Mn  Mn99  1  0.33186376  0.74889221  0.16780316  1
  Mn  Mn100  1  0.33468134  0.75158222  0.50096224  1
  Mn  Mn101  1  0.33243194  0.75385692  0.83692460  1
  Mn  Mn102  1  0.66529851  0.24869173  0.16550969  1
  Mn  Mn103  1  0.66667543  0.24861914  0.50044768  1
  Mn  Mn104  1  0.67055436  0.24806937  0.83342452  1
  Mn  Mn105  1  0.66371846  0.74823629  0.16700648  1
  Mn  Mn106  1  0.66606175  0.75096269  0.49948134  1
  Mn  Mn107  1  0.66605996  0.75204539  0.83531995  1
  Mn  Mn108  1  0.16840840  0.24693688  -0.00006159  1
  Mn  Mn109  1  0.16726021  0.25147278  0.33425363  1
  Mn  Mn110  1  0.16803291  0.24894304  0.66793993  1
  Mn  Mn111  1  0.16645301  0.75306907  -0.00033125  1
  Mn  Mn112  1  0.16705055  0.74787169  0.33232759  1
  Mn  Mn113  1  0.16508243  0.75270403  0.66451078  1
  Mn  Mn114  1  0.50181136  0.24787782  0.00232300  1
  Mn  Mn115  1  0.49967801  0.25055238  0.33464970  1
  Mn  Mn116  1  0.50164855  0.24937946  0.66752301  1
  Mn  Mn117  1  0.49716747  0.75119309  0.00457612  1
  Mn  Mn118  1  0.49979935  0.74904422  0.33516716  1
  Mn  Mn119  1  0.49999997  0.75163900  0.66627066  1
  Mn  Mn120  1  0.83257828  0.24617603  -0.00027330  1
  Mn  Mn121  1  0.83337457  0.24891871  0.33441703  1
  Mn  Mn122  1  0.83338343  0.24927027  0.66710230  1
  Mn  Mn123  1  0.83047983  0.75304119  -0.00138058  1
  Mn  Mn124  1  0.83221547  0.74893935  0.33206134  1
  Mn  Mn125  1  0.83438808  0.75039650  0.66389130  1
  Mn  Mn126  1  0.16622093  0.00077414  -0.00012983  1
  Mn  Mn127  1  0.16756374  -0.00057396  0.33258008  1
  Mn  Mn128  1  0.16597829  0.00025915  0.66692051  1
  Mn  Mn129  1  0.16843553  0.49836011  -0.00096826  1
  Mn  Mn130  1  0.16709675  0.50183347  0.33355344  1
  Mn  Mn131  1  0.16680294  0.49923369  0.66472832  1
  Mn  Mn132  1  0.49852655  0.00239950  0.00221822  1
  Mn  Mn133  1  0.49900871  -0.00082082  0.33479508  1
  Mn  Mn134  1  0.50025934  0.00166539  0.66591020  1
  Mn  Mn135  1  0.49959180  0.49898907  0.00402329  1
  Mn  Mn136  1  0.49961568  0.50188331  0.33534419  1
  Mn  Mn137  1  0.50121788  0.49759337  0.66713022  1
  Mn  Mn138  1  0.83290118  0.00114687  -0.00213655  1
  Mn  Mn139  1  0.83178406  -0.00050814  0.33134792  1
  Mn  Mn140  1  0.83246222  0.00085638  0.66686808  1
  Mn  Mn141  1  0.83219313  0.49873558  -0.00065986  1
  Mn  Mn142  1  0.83339979  0.50312497  0.33467574  1
  Mn  Mn143  1  0.83620680  0.49697910  0.66512474  1
  O  O144  1  0.15700437  0.12018732  0.02623394  1
  O  O145  1  0.17178795  0.12745406  0.35818153  1
  O  O146  1  0.15811753  0.12240281  0.69147789  1
  O  O147  1  0.17149738  0.63122080  0.01661328  1
  O  O148  1  0.15875577  0.62605069  0.36189156  1
  O  O149  1  0.15969892  0.62847532  0.67576563  1
  O  O150  1  0.49953594  0.12490999  0.02805777  1
  O  O151  1  0.49573159  0.12292293  0.35566027  1
  O  O152  1  0.49934327  0.12351165  0.69218093  1
  O  O153  1  0.49366147  0.62478086  0.02332899  1
  O  O154  1  0.49369523  0.62675484  0.36383305  1
  O  O155  1  0.50128976  0.62480931  0.67345059  1
  O  O156  1  0.82616166  0.12133316  0.02585417  1
  O  O157  1  0.82638185  0.12325476  0.35440486  1
  O  O158  1  0.82874404  0.12348129  0.69130789  1
  O  O159  1  0.82310111  0.62910868  0.01835126  1
  O  O160  1  0.83514824  0.62668108  0.35874134  1
  O  O161  1  0.84127203  0.62466425  0.67441582  1
  O  O162  1  0.17689716  0.37687007  0.32099253  1
  O  O163  1  0.17501543  0.37146974  0.65537687  1
  O  O164  1  0.17156231  0.36623223  0.97779536  1
  O  O165  1  0.16542369  0.86990243  0.30727555  1
  O  O166  1  0.16682306  0.87835381  0.63966013  1
  O  O167  1  0.17757779  0.88049044  0.97501976  1
  O  O168  1  0.49365661  0.37651810  0.30699393  1
  O  O169  1  0.49391059  0.36956939  0.65254622  1
  O  O170  1  0.50469828  0.36959508  0.99099888  1
  O  O171  1  0.50768028  0.87464023  0.31361846  1
  O  O172  1  0.50454643  0.88100590  0.64354637  1
  O  O173  1  0.50140887  0.88085755  0.99023091  1
  O  O174  1  0.83821017  0.37639190  0.32419921  1
  O  O175  1  0.83562310  0.37025921  0.63982981  1
  O  O176  1  0.82558364  0.36701764  0.97940117  1
  O  O177  1  0.83250534  0.87425868  0.32033631  1
  O  O178  1  0.83568482  0.87762885  0.65109916  1
  O  O179  1  0.83914737  0.88122533  0.97485767  1
  O  O180  1  0.00055902  0.38045351  0.18998529  1
  O  O181  1  -0.00774916  0.37433605  0.51831210  1
  O  O182  1  0.00009338  0.36763552  0.84333828  1
  O  O183  1  0.00546778  0.87282223  0.19150447  1
  O  O184  1  0.00717319  0.87495095  0.52300495  1
  O  O185  1  0.00053553  0.88304511  0.85518128  1
  O  O186  1  0.34074594  0.37628963  0.19403208  1
  O  O187  1  0.33535305  0.37040800  0.52741580  1
  O  O188  1  0.32680348  0.36815983  0.84967853  1
  O  O189  1  0.32624799  0.87577994  0.17943639  1
  O  O190  1  0.33527896  0.88069325  0.52559266  1
  O  O191  1  0.32610957  0.88217431  0.86023897  1
  O  O192  1  0.66085226  0.37559189  0.17935460  1
  O  O193  1  0.67480165  0.36982678  0.51570044  1
  O  O194  1  0.67431137  0.36773747  0.86003882  1
  O  O195  1  0.66262139  0.87376634  0.19272052  1
  O  O196  1  0.66131374  0.87966642  0.52546264  1
  O  O197  1  0.67273415  0.88056331  0.85836545  1
  O  O198  1  0.00258301  0.11879948  0.14641697  1
  O  O199  1  0.00257400  0.12551596  0.48854904  1
  O  O200  1  0.00072823  0.12314738  0.80209437  1
  O  O201  1  -0.00283597  0.62770285  0.15297787  1
  O  O202  1  -0.00155747  0.62570019  0.47390815  1
  O  O203  1  0.00034799  0.62711307  0.80886782  1
  O  O204  1  0.33327552  0.12290956  0.14631699  1
  O  O205  1  0.33198407  0.12511524  0.47634494  1
  O  O206  1  0.32662434  0.12289928  0.80803756  1
  O  O207  1  0.33669688  0.62722845  0.14007753  1
  O  O208  1  0.33649985  0.62485673  0.48154108  1
  O  O209  1  0.33419311  0.62674500  0.82994719  1
  O  O210  1  0.65821281  0.12397265  0.14391305  1
  O  O211  1  0.66688847  0.12292403  0.47441385  1
  O  O212  1  0.67099841  0.12351499  0.80731967  1
  O  O213  1  0.65614179  0.62614524  0.13821066  1
  O  O214  1  0.65941166  0.62760964  0.48186320  1
  O  O215  1  0.66659661  0.62742790  0.83011206  1
  O  O216  1  0.09377204  0.01207851  0.23457167  1
  O  O217  1  0.09081466  0.02071848  0.57874540  1
  O  O218  1  0.08854512  0.02129254  0.90719518  1
  O  O219  1  0.08694829  0.52341929  0.24788242  1
  O  O220  1  0.08605384  0.52087674  0.57415690  1
  O  O221  1  0.08641729  0.50052515  0.90838564  1
  O  O222  1  0.41915218  0.01943181  0.24706575  1
  O  O223  1  0.41975268  0.02484635  0.58039615  1
  O  O224  1  0.42373678  0.02790546  0.91337179  1
  O  O225  1  0.41792103  0.52810573  0.25177238  1
  O  O226  1  0.42283197  0.51127196  0.57566913  1
  O  O227  1  0.41447637  0.50847137  0.92582589  1
  O  O228  1  0.74987038  0.02353407  0.24307761  1
  O  O229  1  0.75169749  0.02390582  0.57883602  1
  O  O230  1  0.75736761  0.02421752  0.90900355  1
  O  O231  1  0.75232118  0.52577747  0.24437807  1
  O  O232  1  0.76084641  0.50964150  0.57514306  1
  O  O233  1  0.74796617  0.50821086  0.91911641  1
  O  O234  1  0.25298949  0.22937725  0.25070076  1
  O  O235  1  0.25168085  0.22301283  0.58665073  1
  O  O236  1  0.25066531  0.22138892  0.91739238  1
  O  O237  1  0.25316988  0.72149732  0.25480243  1
  O  O238  1  0.24832154  0.74104703  0.58223285  1
  O  O239  1  0.25758267  0.73991203  0.92912663  1
  O  O240  1  0.58091795  0.22827438  0.25036195  1
  O  O241  1  0.58562615  0.22765476  0.58398060  1
  O  O242  1  0.58800991  0.22371765  0.91762180  1
  O  O243  1  0.58631748  0.72405270  0.25727930  1
  O  O244  1  0.58176267  0.74127932  0.57863719  1
  O  O245  1  0.58866635  0.74201950  0.93046921  1
  O  O246  1  0.91440677  0.23649429  0.24882791  1
  O  O247  1  0.91548385  0.22458540  0.58510624  1
  O  O248  1  0.91892230  0.22419137  0.91727350  1
  O  O249  1  0.91807994  0.73068333  0.25111720  1
  O  O250  1  0.92481634  0.73223216  0.58359502  1
  O  O251  1  0.91716854  0.74876652  0.91303404  1
  O  O252  1  0.08729627  0.49714457  0.08394695  1
  O  O253  1  0.07012651  0.48377781  0.40527077  1
  O  O254  1  0.08033350  0.48628511  0.74306981  1
  O  O255  1  0.07793011  0.97215854  0.07269555  1
  O  O256  1  0.08228608  0.97654424  0.40775211  1
  O  O257  1  0.07636822  0.97625961  0.74229019  1
  O  O258  1  0.42154707  0.48164052  0.09189464  1
  O  O259  1  0.41171062  0.47921538  0.41171749  1
  O  O260  1  0.41085981  0.48422716  0.74677196  1
  O  O261  1  0.40252857  0.98821861  0.07513332  1
  O  O262  1  0.41880422  0.98593823  0.42093511  1
  O  O263  1  0.40672526  0.98691677  0.73976321  1
  O  O264  1  0.74052772  0.48953385  0.07718441  1
  O  O265  1  0.74874734  0.49437320  0.41616965  1
  O  O266  1  0.75427315  0.47931487  0.75062662  1
  O  O267  1  0.73767350  0.98484310  0.07039412  1
  O  O268  1  0.73764496  0.98687312  0.40607595  1
  O  O269  1  0.74750455  0.97665409  0.74601254  1
  O  O270  1  0.25600766  0.25349481  0.07946093  1
  O  O271  1  0.25625704  0.26218755  0.41347493  1
  O  O272  1  0.24987685  0.26376230  0.75062129  1
  O  O273  1  0.24151125  0.76922481  0.08954835  1
  O  O274  1  0.24347703  0.76085935  0.42265452  1
  O  O275  1  0.24329627  0.77450288  0.75384377  1
  O  O276  1  0.58266253  0.26736540  0.08602596  1
  O  O277  1  0.58040275  0.25641074  0.41924617  1
  O  O278  1  0.58799299  0.25470209  0.74898327  1
  O  O279  1  0.57444576  0.76744401  0.09263732  1
  O  O280  1  0.58155361  0.77308424  0.41881141  1
  O  O281  1  0.58660381  0.76839413  0.74768230  1
  O  O282  1  0.91489914  0.24935865  0.08263548  1
  O  O283  1  0.91590724  0.26591362  0.41997975  1
  O  O284  1  0.91334349  0.26240323  0.75240966  1
  O  O285  1  0.91442398  0.76366276  0.07878416  1
  O  O286  1  0.92217473  0.76542688  0.41361921  1
  O  O287  1  0.91619303  0.77408160  0.74937162  1
  O  O288  1  0.25638746  0.49412502  0.08272211  1
  O  O289  1  0.25508753  0.49291492  0.41278907  1
  O  O290  1  0.24921471  0.48219370  0.75221017  1
  O  O291  1  0.23991107  0.98425079  0.09154752  1
  O  O292  1  0.24225455  0.98689802  0.43144966  1
  O  O293  1  0.23878569  0.97981476  0.75502256  1
  O  O294  1  0.57867532  0.48157161  0.09002045  1
  O  O295  1  0.57800194  0.49190817  0.41913763  1
  O  O296  1  0.58719286  0.48686179  0.75257820  1
  O  O297  1  0.57793356  0.98371294  0.08866718  1
  O  O298  1  0.57933815  0.97946510  0.42150414  1
  O  O299  1  0.58804576  0.98812005  0.74590714  1
  O  O300  1  0.91035393  0.49742758  0.08783643  1
  O  O301  1  0.91143896  0.48268416  0.42419348  1
  O  O302  1  0.91496364  0.47884865  0.74904721  1
  O  O303  1  0.91882227  0.98652664  0.07739700  1
  O  O304  1  0.91808321  0.98834988  0.41400900  1
  O  O305  1  0.91259537  0.98063919  0.75553624  1
  O  O306  1  0.08464728  0.25444589  0.08188703  1
  O  O307  1  0.07852383  0.26792648  0.40951155  1
  O  O308  1  0.08895821  0.26415118  0.75245630  1
  O  O309  1  0.08105556  0.77455918  0.07907469  1
  O  O310  1  0.08049576  0.77326133  0.41033567  1
  O  O311  1  0.07771728  0.77527169  0.74233367  1
  O  O312  1  0.42033232  0.26275421  0.09137112  1
  O  O313  1  0.41543648  0.26795909  0.41375549  1
  O  O314  1  0.40985078  0.25751955  0.74476779  1
  O  O315  1  0.40886756  0.76852305  0.08159147  1
  O  O316  1  0.41917178  0.76781546  0.41934167  1
  O  O317  1  0.40937179  0.76990536  0.74482574  1
  O  O318  1  0.74145245  0.25869688  0.07598874  1
  O  O319  1  0.75652899  0.25826529  0.42464727  1
  O  O320  1  0.75500004  0.26926106  0.75302697  1
  O  O321  1  0.73660949  0.76694301  0.07505793  1
  O  O322  1  0.73807776  0.76190928  0.40509787  1
  O  O323  1  0.74883527  0.77089947  0.74817919  1
  O  O324  1  0.25433378  0.02440314  0.25629445  1
  O  O325  1  0.25530216  0.02462176  0.59263332  1
  O  O326  1  0.25346707  0.02908584  0.92646298  1
  O  O327  1  0.25366033  0.52613894  0.24998989  1
  O  O328  1  0.25020280  0.51465092  0.57926157  1
  O  O329  1  0.25400569  0.50969325  0.92080740  1
  O  O330  1  0.58578124  0.02258172  0.25682719  1
  O  O331  1  0.58570266  0.02656057  0.58341121  1
  O  O332  1  0.58969225  0.02315065  0.91827456  1
  O  O333  1  0.58340298  0.52530624  0.25236777  1
  O  O334  1  0.58428791  0.50661321  0.58135301  1
  O  O335  1  0.58865741  0.50911375  0.93061200  1
  O  O336  1  0.91470757  0.01195865  0.24482582  1
  O  O337  1  0.91949917  0.01906824  0.59044659  1
  O  O338  1  0.92246766  0.02854712  0.91663141  1
  O  O339  1  0.92076524  0.52141509  0.25653423  1
  O  O340  1  0.92485740  0.52053262  0.58417193  1
  O  O341  1  0.91413625  0.50108443  0.91307282  1
  O  O342  1  0.09036370  0.23585523  0.24592356  1
  O  O343  1  0.08571551  0.23076776  0.58328808  1
  O  O344  1  0.08495277  0.22399261  0.91479389  1
  O  O345  1  0.08888731  0.72742984  0.24736224  1
  O  O346  1  0.08598180  0.73000372  0.57461086  1
  O  O347  1  0.08599043  0.75284951  0.91263471  1
  O  O348  1  0.41629391  0.22664658  0.25236347  1
  O  O349  1  0.41982359  0.22538049  0.58123298  1
  O  O350  1  0.41947890  0.22493001  0.91626500  1
  O  O351  1  0.41978885  0.72829684  0.25021097  1
  O  O352  1  0.42242955  0.74228368  0.57808281  1
  O  O353  1  0.41589545  0.74297256  0.92412731  1
  O  O354  1  0.74760642  0.22834626  0.24817717  1
  O  O355  1  0.75007504  0.22378945  0.58498595  1
  O  O356  1  0.75416693  0.22084541  0.91423638  1
  O  O357  1  0.75136771  0.72299345  0.24128248  1
  O  O358  1  0.75496323  0.73614771  0.57384071  1
  O  O359  1  0.74946500  0.74476613  0.91718863  1
