# generated using pymatgen
data_Ba17Sr5La8Pr42Mn72O216
_symmetry_space_group_name_H-M   'P 1'
_cell_length_a   16.67840470
_cell_length_b   15.70636566
_cell_length_c   16.82162928
_cell_angle_alpha   89.98640323
_cell_angle_beta   89.98915365
_cell_angle_gamma   89.98575405
_symmetry_Int_Tables_number   1
_chemical_formula_structural   Ba17Sr5La8Pr42Mn72O216
_chemical_formula_sum   'Ba17 Sr5 La8 Pr42 Mn72 O216'
_cell_volume   4406.54526864
_cell_formula_units_Z   1
loop_
 _symmetry_equiv_pos_site_id
 _symmetry_equiv_pos_as_xyz
  1  'x, y, z'
loop_
 _atom_site_type_symbol
 _atom_site_label
 _atom_site_symmetry_multiplicity
 _atom_site_fract_x
 _atom_site_fract_y
 _atom_site_fract_z
 _atom_site_occupancy
  Ba  Ba0  1  0.83207566  0.87475115  0.16300501  1
  Ba  Ba1  1  0.33522074  0.87522745  0.00101971  1
  Ba  Ba2  1  0.33257835  0.12446685  0.66604875  1
  Ba  Ba3  1  -0.00064636  0.87396642  0.33374129  1
  Ba  Ba4  1  0.16988119  0.87335208  0.83583969  1
  Ba  Ba5  1  0.83306292  0.87666746  0.82961433  1
  Ba  Ba6  1  0.33627302  0.12515257  1.00187361  1
  Ba  Ba7  1  -0.00147678  0.37543232  0.66953907  1
  Ba  Ba8  1  0.66760944  0.62467352  0.66304862  1
  Ba  Ba9  1  0.50345642  0.62445527  0.83348409  1
  Ba  Ba10  1  0.16411036  0.37401475  0.50098494  1
  Ba  Ba11  1  0.83327436  0.87499322  0.49607858  1
  Ba  Ba12  1  0.49687424  0.87446059  0.50095284  1
  Ba  Ba13  1  0.83432295  0.12712288  0.16644666  1
  Ba  Ba14  1  0.33216763  0.37514359  0.66600797  1
  Ba  Ba15  1  0.83272251  0.37376180  0.83035497  1
  Ba  Ba16  1  0.50035627  0.12479280  0.50019642  1
  Sr  Sr17  1  0.33357101  0.62743817  0.66599382  1
  Sr  Sr18  1  0.50075566  0.62578818  0.50798936  1
  Sr  Sr19  1  0.49802848  0.12575058  0.17099538  1
  Sr  Sr20  1  0.16404182  0.12443613  0.50189051  1
  Sr  Sr21  1  0.33394453  0.87561443  0.66891497  1
  La  La22  1  0.84059218  0.12783675  0.83468823  1
  La  La23  1  0.67110881  0.12437908  0.66238179  1
  La  La24  1  -0.00863790  0.37343238  0.34151046  1
  La  La25  1  -0.00278916  0.37586447  0.00391186  1
  La  La26  1  0.16903262  0.12178367  0.17020718  1
  La  La27  1  0.16937070  0.12577745  0.83370639  1
  La  La28  1  0.17289189  0.62789274  0.16852568  1
  La  La29  1  0.16830222  0.37334197  0.82765481  1
  Pr  Pr30  1  -0.00093363  0.62794543  0.66793805  1
  Pr  Pr31  1  0.66062835  0.37578749  0.66646468  1
  Pr  Pr32  1  0.82140810  0.37637174  0.16161201  1
  Pr  Pr33  1  0.00131019  0.87538761  0.00780247  1
  Pr  Pr34  1  0.67946381  0.62456972  0.99198075  1
  Pr  Pr35  1  0.66813358  0.62892631  0.33307115  1
  Pr  Pr36  1  0.16518156  0.87451802  0.16080066  1
  Pr  Pr37  1  0.50097783  0.12466214  0.83559559  1
  Pr  Pr38  1  0.50198916  0.62563367  0.16754911  1
  Pr  Pr39  1  0.65784667  0.37685049  0.00070220  1
  Pr  Pr40  1  0.49147334  0.37803471  0.50218842  1
  Pr  Pr41  1  0.82480777  0.37590743  0.49877738  1
  Pr  Pr42  1  0.00652882  0.62700480  0.33564385  1
  Pr  Pr43  1  0.66471220  0.12035977  0.32631687  1
  Pr  Pr44  1  0.67170574  0.12417152  0.99653606  1
  Pr  Pr45  1  0.33809783  0.62086651  0.33575074  1
  Pr  Pr46  1  0.00038324  0.87778201  0.66867650  1
  Pr  Pr47  1  0.00498879  0.12242881  0.33278123  1
  Pr  Pr48  1  0.83746479  0.62599233  0.50073516  1
  Pr  Pr49  1  0.16947018  0.87663433  0.50186731  1
  Pr  Pr50  1  0.33026119  0.12653849  0.33235192  1
  Pr  Pr51  1  0.49511583  0.87595903  0.82872848  1
  Pr  Pr52  1  0.33195887  0.37360003  0.34011258  1
  Pr  Pr53  1  0.49307221  0.37239489  0.16693446  1
  Pr  Pr54  1  0.16613691  0.37590318  0.16671319  1
  Pr  Pr55  1  0.50007840  0.87808320  0.16680817  1
  Pr  Pr56  1  0.00199564  0.12202036  0.99976548  1
  Pr  Pr57  1  0.65628781  0.87381211  0.66581701  1
  Pr  Pr58  1  0.33306308  0.87530438  0.33767231  1
  Pr  Pr59  1  0.49778873  0.37391108  0.83098222  1
  Pr  Pr60  1  0.33725919  0.62482033  0.99349367  1
  Pr  Pr61  1  0.83755890  0.12403446  0.49575777  1
  Pr  Pr62  1  0.65527105  0.37237866  0.33188858  1
  Pr  Pr63  1  0.84331463  0.62306359  0.16844315  1
  Pr  Pr64  1  0.84008545  0.62235194  0.83147526  1
  Pr  Pr65  1  0.66230157  0.87172718  0.00013039  1
  Pr  Pr66  1  0.16455580  0.62576540  0.50630243  1
  Pr  Pr67  1  0.17234372  0.62273404  0.83270619  1
  Pr  Pr68  1  0.00106852  0.12362176  0.66817132  1
  Pr  Pr69  1  0.33428333  0.37551234  -0.00045920  1
  Pr  Pr70  1  0.66606294  0.87856290  0.33429671  1
  Pr  Pr71  1  0.00560132  0.62906164  0.99857179  1
  Mn  Mn72  1  0.00122505  0.00218384  0.16695216  1
  Mn  Mn73  1  0.00037351  0.00164338  0.50094058  1
  Mn  Mn74  1  0.00228422  -0.00105607  0.83463065  1
  Mn  Mn75  1  0.00154887  0.49919811  0.17127431  1
  Mn  Mn76  1  -0.00362267  0.49968914  0.50082790  1
  Mn  Mn77  1  0.00314513  0.50267123  0.83651426  1
  Mn  Mn78  1  0.33446151  0.00019734  0.17037023  1
  Mn  Mn79  1  0.33093474  -0.00053169  0.50057075  1
  Mn  Mn80  1  0.33444211  0.00080560  0.83338068  1
  Mn  Mn81  1  0.33440241  0.50014799  0.16606865  1
  Mn  Mn82  1  0.33110461  0.50193696  0.49987653  1
  Mn  Mn83  1  0.33447971  0.50025677  0.83407519  1
  Mn  Mn84  1  0.66486472  -0.00082712  0.16348738  1
  Mn  Mn85  1  0.66743699  0.00162064  0.49737612  1
  Mn  Mn86  1  0.66662900  0.00087289  0.83080557  1
  Mn  Mn87  1  0.66497157  0.50203419  0.16446558  1
  Mn  Mn88  1  0.66502402  0.49819445  0.49608428  1
  Mn  Mn89  1  0.66900872  0.49912779  0.83280368  1
  Mn  Mn90  1  0.00124521  0.25332214  0.17082807  1
  Mn  Mn91  1  -0.00324597  0.24904947  0.50118218  1
  Mn  Mn92  1  0.00291099  0.24881146  0.83686832  1
  Mn  Mn93  1  0.00205607  0.74667534  0.16676652  1
  Mn  Mn94  1  0.00062231  0.74939088  0.50133321  1
  Mn  Mn95  1  0.00208720  0.75042514  0.83374974  1
  Mn  Mn96  1  0.33105897  0.25234254  0.16831935  1
  Mn  Mn97  1  0.33093562  0.24901141  0.49919955  1
  Mn  Mn98  1  0.33405117  0.24897250  0.83516813  1
  Mn  Mn99  1  0.33624854  0.74720515  0.16959546  1
  Mn  Mn100  1  0.33121030  0.74998563  0.50085007  1
  Mn  Mn101  1  0.33533323  0.74917583  0.83235244  1
  Mn  Mn102  1  0.66325222  0.25089342  0.16521136  1
  Mn  Mn103  1  0.66685999  0.25094190  0.49706067  1
  Mn  Mn104  1  0.66593512  0.24890850  0.83073591  1
  Mn  Mn105  1  0.66603512  0.74683959  0.16395271  1
  Mn  Mn106  1  0.66592207  0.75046238  0.49723073  1
  Mn  Mn107  1  0.66878778  0.75064231  0.83285796  1
  Mn  Mn108  1  0.16586517  0.25328451  0.00136412  1
  Mn  Mn109  1  0.16465413  0.25058533  0.33206307  1
  Mn  Mn110  1  0.16510756  0.24920150  0.66720391  1
  Mn  Mn111  1  0.16892125  0.74731362  0.00202373  1
  Mn  Mn112  1  0.16952155  0.74934466  0.33516428  1
  Mn  Mn113  1  0.16569357  0.75017066  0.66759581  1
  Mn  Mn114  1  0.50214214  0.24894248  0.00098998  1
  Mn  Mn115  1  0.49801621  0.25029686  0.33424119  1
  Mn  Mn116  1  0.50172588  0.24990975  0.66749169  1
  Mn  Mn117  1  0.50257997  0.74997200  0.00251308  1
  Mn  Mn118  1  0.49975509  0.74646395  0.33375724  1
  Mn  Mn119  1  0.49794191  0.74914942  0.66638786  1
  Mn  Mn120  1  0.83348694  0.25143808  -0.00028021  1
  Mn  Mn121  1  0.83008834  0.25174436  0.33207352  1
  Mn  Mn122  1  0.83220364  0.24760214  0.66410980  1
  Mn  Mn123  1  0.83585660  0.74969919  -0.00247966  1
  Mn  Mn124  1  0.83158840  0.74741895  0.33159806  1
  Mn  Mn125  1  0.83306848  0.75181051  0.66474347  1
  Mn  Mn126  1  0.16745867  0.00162815  0.00220307  1
  Mn  Mn127  1  0.16754827  -0.00145762  0.33497648  1
  Mn  Mn128  1  0.16562485  -0.00059530  0.66715955  1
  Mn  Mn129  1  0.16715704  0.49827830  0.00027022  1
  Mn  Mn130  1  0.16616241  0.50164503  0.33289897  1
  Mn  Mn131  1  0.16569538  0.50144148  0.66862820  1
  Mn  Mn132  1  0.50404195  0.00082780  0.00063796  1
  Mn  Mn133  1  0.49798417  0.00003829  0.33177696  1
  Mn  Mn134  1  0.50004856  0.00097096  0.66841731  1
  Mn  Mn135  1  0.50097714  0.49912610  0.00282659  1
  Mn  Mn136  1  0.50070461  0.50190018  0.33420454  1
  Mn  Mn137  1  0.49964562  0.49998627  0.66582982  1
  Mn  Mn138  1  0.83409313  0.00105123  -0.00364096  1
  Mn  Mn139  1  0.83234110  0.00122958  0.33103901  1
  Mn  Mn140  1  0.83261847  0.00082887  0.66425290  1
  Mn  Mn141  1  0.83513646  0.49902074  0.00086365  1
  Mn  Mn142  1  0.83044917  0.50052850  0.33165714  1
  Mn  Mn143  1  0.83281065  0.50050184  0.66418464  1
  O  O144  1  0.16133645  0.13190954  0.02779526  1
  O  O145  1  0.16744094  0.12422611  0.35058983  1
  O  O146  1  0.15566364  0.12333635  0.68762526  1
  O  O147  1  0.17252069  0.62049341  0.02613817  1
  O  O148  1  0.16534650  0.62653174  0.36143804  1
  O  O149  1  0.15759151  0.62561982  0.68889390  1
  O  O150  1  0.50968782  0.12593305  0.02174081  1
  O  O151  1  0.50545509  0.12853460  0.34338654  1
  O  O152  1  0.51046222  0.12653905  0.68954839  1
  O  O153  1  0.49276092  0.62057915  0.02509874  1
  O  O154  1  0.50434541  0.62293305  0.35794704  1
  O  O155  1  0.49813187  0.62261074  0.67396651  1
  O  O156  1  0.83146953  0.12835757  0.01089701  1
  O  O157  1  0.82139034  0.13065637  0.35064715  1
  O  O158  1  0.82511232  0.12410178  0.68985957  1
  O  O159  1  0.83072070  0.62207102  0.02461062  1
  O  O160  1  0.81929815  0.62157327  0.35621806  1
  O  O161  1  0.83469801  0.62830421  0.68760607  1
  O  O162  1  0.16695406  0.37703293  0.31029928  1
  O  O163  1  0.16599302  0.37709226  0.66160499  1
  O  O164  1  0.16163512  0.37714001  0.97162382  1
  O  O165  1  0.17386070  0.87139424  0.30441536  1
  O  O166  1  0.15977862  0.87345798  0.64546903  1
  O  O167  1  0.15770953  0.87047723  0.99496807  1
  O  O168  1  0.49640623  0.37780422  0.30895025  1
  O  O169  1  0.50720134  0.37408486  0.64762403  1
  O  O170  1  0.50435254  0.37491599  0.97561552  1
  O  O171  1  0.49386769  0.87052300  0.30945813  1
  O  O172  1  0.50270146  0.87589356  0.66070171  1
  O  O173  1  0.51078975  0.87693562  0.97470702  1
  O  O174  1  0.84131875  0.37762908  0.30435984  1
  O  O175  1  0.83203917  0.37094097  0.64228670  1
  O  O176  1  0.84022598  0.37579229  0.98712817  1
  O  O177  1  0.82661260  0.87080980  0.31924488  1
  O  O178  1  0.84607483  0.87749189  0.65152777  1
  O  O179  1  0.83957378  0.87486176  0.98683372  1
  O  O180  1  0.01067512  0.37735300  0.19917616  1
  O  O181  1  -0.01141982  0.37475708  0.51149764  1
  O  O182  1  0.00776179  0.37602494  0.85945978  1
  O  O183  1  0.00982933  0.86985057  0.17452407  1
  O  O184  1  0.00345490  0.87360288  0.52346992  1
  O  O185  1  -0.00030978  0.87328403  0.86304094  1
  O  O186  1  0.33361735  0.37856151  0.19582830  1
  O  O187  1  0.33593140  0.37652907  0.50596573  1
  O  O188  1  0.33166338  0.37425354  0.85478143  1
  O  O189  1  0.33569584  0.87017990  0.19407708  1
  O  O190  1  0.32496143  0.87437809  0.51705525  1
  O  O191  1  0.34126603  0.87490305  0.84227018  1
  O  O192  1  0.67065158  0.37884521  0.18849804  1
  O  O193  1  0.67472504  0.37291993  0.52280396  1
  O  O194  1  0.66280334  0.37278577  0.85797971  1
  O  O195  1  0.66318340  0.86741362  0.19061350  1
  O  O196  1  0.66891835  0.87831366  0.51844334  1
  O  O197  1  0.66440439  0.87639209  0.85783695  1
  O  O198  1  0.00670152  0.13242941  0.14309575  1
  O  O199  1  -0.00094079  0.12755686  0.47611264  1
  O  O200  1  0.00671075  0.12271415  0.81528827  1
  O  O201  1  -0.00309546  0.62158093  0.14309210  1
  O  O202  1  0.00173525  0.62313198  0.47899898  1
  O  O203  1  0.00410817  0.62816672  0.81243714  1
  O  O204  1  0.32757600  0.13014197  0.15656251  1
  O  O205  1  0.32923542  0.12431861  0.47699822  1
  O  O206  1  0.33609607  0.12674111  0.82674349  1
  O  O207  1  0.33635770  0.62117446  0.13590762  1
  O  O208  1  0.32350825  0.62537385  0.47879461  1
  O  O209  1  0.33061614  0.62317195  0.82162295  1
  O  O210  1  0.65956094  0.12967599  0.14249401  1
  O  O211  1  0.66865142  0.12990040  0.46990039  1
  O  O212  1  0.65687956  0.12543343  0.80565616  1
  O  O213  1  0.65444585  0.62280162  0.13463189  1
  O  O214  1  0.66468594  0.62102187  0.47589134  1
  O  O215  1  0.67459958  0.62552245  0.82186025  1
  O  O216  1  0.08594122  0.01809897  0.25148871  1
  O  O217  1  0.07500579  0.01499601  0.59069137  1
  O  O218  1  0.08256698  0.02024159  0.92109301  1
  O  O219  1  0.08985662  0.52590913  0.24587966  1
  O  O220  1  0.08238475  0.51911970  0.58318620  1
  O  O221  1  0.08812559  0.52755466  0.91862050  1
  O  O222  1  0.41330198  0.01760012  0.25317240  1
  O  O223  1  0.41599899  0.00688698  0.58460023  1
  O  O224  1  0.42912204  0.01240204  0.91365467  1
  O  O225  1  0.42409971  0.52383512  0.24666798  1
  O  O226  1  0.41780649  0.50730217  0.57698533  1
  O  O227  1  0.41360450  0.50886336  0.92456123  1
  O  O228  1  0.74283676  0.01314302  0.24856666  1
  O  O229  1  0.75363804  0.02386976  0.57338798  1
  O  O230  1  0.75316271  0.02357694  0.90580401  1
  O  O231  1  0.75994981  0.51887188  0.23327411  1
  O  O232  1  0.75928765  0.51180558  0.56333996  1
  O  O233  1  0.75935611  0.51833917  0.90866038  1
  O  O234  1  0.24482421  0.23601474  0.24500734  1
  O  O235  1  0.24734541  0.23970876  0.57781837  1
  O  O236  1  0.24548766  0.23983467  0.91681631  1
  O  O237  1  0.25744467  0.72099898  0.25482338  1
  O  O238  1  0.24024051  0.73435409  0.57752738  1
  O  O239  1  0.25210983  0.73033160  0.92086984  1
  O  O240  1  0.58451055  0.24144492  0.25317007  1
  O  O241  1  0.59615186  0.23828542  0.59112438  1
  O  O242  1  0.58992705  0.22889833  0.91916738  1
  O  O243  1  0.58499934  0.72498206  0.24875353  1
  O  O244  1  0.58495672  0.74568608  0.58331999  1
  O  O245  1  0.59633246  0.73430103  0.93044620  1
  O  O246  1  0.92629944  0.23423588  0.26458271  1
  O  O247  1  0.91738375  0.22159774  0.58627945  1
  O  O248  1  0.92435974  0.23169781  0.92315302  1
  O  O249  1  0.91896364  0.72630712  0.25064027  1
  O  O250  1  0.91828563  0.72764122  0.58411754  1
  O  O251  1  0.92125922  0.72310381  0.91696395  1
  O  O252  1  0.08198491  0.47870906  0.07961349  1
  O  O253  1  0.06832673  0.48817609  0.40890516  1
  O  O254  1  0.08732504  0.48928027  0.75906191  1
  O  O255  1  0.08462797  0.98612697  0.08585636  1
  O  O256  1  0.08865543  0.98520623  0.42246353  1
  O  O257  1  0.07948145  0.98142772  0.74983258  1
  O  O258  1  0.41415175  0.47139160  0.08346917  1
  O  O259  1  0.41240072  0.48556081  0.40925581  1
  O  O260  1  0.42009112  0.48349790  0.75698806  1
  O  O261  1  0.42246994  0.98547754  0.09046016  1
  O  O262  1  0.40893862  0.98870768  0.40935468  1
  O  O263  1  0.42149111  0.99273662  0.75383765  1
  O  O264  1  0.73883893  0.48097906  0.07314771  1
  O  O265  1  0.73873161  0.47652700  0.39949878  1
  O  O266  1  0.74519417  0.48243015  0.73674535  1
  O  O267  1  0.74260599  0.98917847  0.06997280  1
  O  O268  1  0.74300923  0.98983166  0.40761996  1
  O  O269  1  0.73864699  0.98447884  0.73568095  1
  O  O270  1  0.24842596  0.27952996  0.08257400  1
  O  O271  1  0.25303478  0.26186786  0.40459080  1
  O  O272  1  0.24633239  0.25587690  0.75622951  1
  O  O273  1  0.24580221  0.76259158  0.09530120  1
  O  O274  1  0.24870895  0.77444434  0.41564041  1
  O  O275  1  0.24863607  0.75425278  0.74698554  1
  O  O276  1  0.57972008  0.27756184  0.08605642  1
  O  O277  1  0.57851929  0.27670892  0.42154620  1
  O  O278  1  0.57994056  0.27449185  0.75532177  1
  O  O279  1  0.57903376  0.77380413  0.08893229  1
  O  O280  1  0.58541988  0.76620733  0.40838600  1
  O  O281  1  0.58270405  0.76859885  0.75691253  1
  O  O282  1  0.91607692  0.27597543  0.09618495  1
  O  O283  1  0.90346186  0.26476164  0.42417424  1
  O  O284  1  0.91629669  0.24999442  0.75510162  1
  O  O285  1  0.92129953  0.75872300  0.07642761  1
  O  O286  1  0.91694360  0.74776619  0.41618483  1
  O  O287  1  0.91974699  0.75970139  0.74718778  1
  O  O288  1  0.24756932  0.47272207  0.08252437  1
  O  O289  1  0.25132605  0.48645781  0.40957236  1
  O  O290  1  0.24606834  0.49259980  0.75828681  1
  O  O291  1  0.24543160  0.98645334  0.09518614  1
  O  O292  1  0.24876321  0.97674464  0.41408374  1
  O  O293  1  0.24822265  0.99448412  0.74792573  1
  O  O294  1  0.57465575  0.47472953  0.09356202  1
  O  O295  1  0.57783886  0.47190043  0.41905005  1
  O  O296  1  0.58266984  0.47944830  0.75558038  1
  O  O297  1  0.58439903  0.97354608  0.08274518  1
  O  O298  1  0.58477748  0.98632832  0.40888433  1
  O  O299  1  0.58005003  0.97851004  0.75759220  1
  O  O300  1  0.90931401  0.48093281  0.09807316  1
  O  O301  1  0.90153680  0.48591544  0.42484479  1
  O  O302  1  0.91677804  0.49816728  0.75805982  1
  O  O303  1  0.92473422  0.99134084  0.07602227  1
  O  O304  1  0.91687712  1.00054956  0.41554017  1
  O  O305  1  0.92201944  0.99416314  0.74703026  1
  O  O306  1  0.08264981  0.27942914  0.08442905  1
  O  O307  1  0.07195088  0.26263668  0.40813998  1
  O  O308  1  0.08671894  0.26107380  0.76036889  1
  O  O309  1  0.08367445  0.75624781  0.08288958  1
  O  O310  1  0.08887260  0.76350732  0.42492370  1
  O  O311  1  0.07699472  0.76818944  0.74504366  1
  O  O312  1  0.41346189  0.27328672  0.08476115  1
  O  O313  1  0.41619704  0.26877066  0.41532883  1
  O  O314  1  0.42229306  0.26207283  0.75572086  1
  O  O315  1  0.42258522  0.76594626  0.09310520  1
  O  O316  1  0.40752242  0.75893896  0.40859738  1
  O  O317  1  0.41901072  0.76187315  0.75352309  1
  O  O318  1  0.74335040  0.27127526  0.07741448  1
  O  O319  1  0.74359466  0.27853658  0.40808035  1
  O  O320  1  0.73912140  0.26320533  0.73602646  1
  O  O321  1  0.74102785  0.76119613  0.07112704  1
  O  O322  1  0.73967349  0.76169493  0.40254148  1
  O  O323  1  0.74368330  0.77009308  0.73722863  1
  O  O324  1  0.25235048  0.01917955  0.25589738  1
  O  O325  1  0.24022272  0.00799797  0.57708550  1
  O  O326  1  0.24626325  0.01265535  0.91761838  1
  O  O327  1  0.25563134  0.52483424  0.24729780  1
  O  O328  1  0.24579168  0.51910011  0.58265722  1
  O  O329  1  0.25215682  0.51831233  0.92108323  1
  O  O330  1  0.58126849  0.01004103  0.24774876  1
  O  O331  1  0.59220193  0.01123198  0.59162904  1
  O  O332  1  0.59138427  0.02361031  0.92001790  1
  O  O333  1  0.59233147  0.51911900  0.25600909  1
  O  O334  1  0.58596557  0.50247391  0.58098453  1
  O  O335  1  0.59343488  0.51284606  0.93272688  1
  O  O336  1  0.92223853  0.01631372  0.25208548  1
  O  O337  1  0.91628602  0.02477293  0.58325144  1
  O  O338  1  0.91910383  0.02257140  0.91545570  1
  O  O339  1  0.92254678  0.52644960  0.26386132  1
  O  O340  1  0.91928824  0.52461404  0.58708206  1
  O  O341  1  0.92633369  0.52170038  0.92567480  1
  O  O342  1  0.08608224  0.22731302  0.24741534  1
  O  O343  1  0.07852208  0.23433464  0.58611850  1
  O  O344  1  0.08398375  0.22690216  0.92176229  1
  O  O345  1  0.08828790  0.72691387  0.25162135  1
  O  O346  1  0.08006349  0.72774547  0.58607675  1
  O  O347  1  0.08793807  0.72586093  0.91682559  1
  O  O348  1  0.40977128  0.23703730  0.25575534  1
  O  O349  1  0.42329925  0.24586205  0.58256007  1
  O  O350  1  0.42549795  0.24013738  0.91464860  1
  O  O351  1  0.41946558  0.71948629  0.24996174  1
  O  O352  1  0.41070373  0.73802615  0.58208001  1
  O  O353  1  0.41832310  0.73662949  0.92460813  1
  O  O354  1  0.74556668  0.24022307  0.24831017  1
  O  O355  1  0.75707933  0.22977739  0.56875966  1
  O  O356  1  0.75127230  0.22768312  0.90579838  1
  O  O357  1  0.75159735  0.72032499  0.23834811  1
  O  O358  1  0.75668917  0.73467963  0.57085014  1
  O  O359  1  0.75995320  0.73076877  0.90999220  1
