# generated using pymatgen
data_Ba17Sr5La8Pr42Mn72O216
_symmetry_space_group_name_H-M   'P 1'
_cell_length_a   16.67901188
_cell_length_b   15.70465817
_cell_length_c   16.82199868
_cell_angle_alpha   89.99810670
_cell_angle_beta   89.99706936
_cell_angle_gamma   89.99953114
_symmetry_Int_Tables_number   1
_chemical_formula_structural   Ba17Sr5La8Pr42Mn72O216
_chemical_formula_sum   'Ba17 Sr5 La8 Pr42 Mn72 O216'
_cell_volume   4406.32371243
_cell_formula_units_Z   1
loop_
 _symmetry_equiv_pos_site_id
 _symmetry_equiv_pos_as_xyz
  1  'x, y, z'
loop_
 _atom_site_type_symbol
 _atom_site_label
 _atom_site_symmetry_multiplicity
 _atom_site_fract_x
 _atom_site_fract_y
 _atom_site_fract_z
 _atom_site_occupancy
  Ba  Ba0  1  0.49711321  0.37682241  0.83062597  1
  Ba  Ba1  1  0.33482716  0.12603096  0.33593947  1
  Ba  Ba2  1  0.83455664  0.62545123  0.83590564  1
  Ba  Ba3  1  0.33767772  0.87497257  0.00098766  1
  Ba  Ba4  1  0.16653738  0.62487482  0.16959671  1
  Ba  Ba5  1  0.50472909  0.87592280  0.16374359  1
  Ba  Ba6  1  0.49884535  0.87390255  0.83078712  1
  Ba  Ba7  1  0.33414077  0.37519184  0.00032227  1
  Ba  Ba8  1  -0.00316510  0.62316465  0.33317186  1
  Ba  Ba9  1  0.83561960  0.87327142  0.83384469  1
  Ba  Ba10  1  0.16460464  0.62413914  0.50269360  1
  Ba  Ba11  1  0.16673255  0.87517214  0.16413789  1
  Ba  Ba12  1  0.66578706  0.87427871  0.66485910  1
  Ba  Ba13  1  0.16829386  0.12481212  0.16762748  1
  Ba  Ba14  1  0.49989613  0.12591364  0.82796395  1
  Ba  Ba15  1  0.83524783  0.12321658  0.83449603  1
  Ba  Ba16  1  0.66393262  0.12432608  0.66538062  1
  Sr  Sr17  1  -0.00099434  0.37456877  0.33477931  1
  Sr  Sr18  1  0.49627065  0.12647825  0.50389067  1
  Sr  Sr19  1  -0.00122191  0.12417484  0.66706340  1
  Sr  Sr20  1  0.33572678  0.12512542  0.66285549  1
  Sr  Sr21  1  0.66765246  0.62500292  1.00125138  1
  La  La22  1  0.66837884  0.37554219  -0.00046887  1
  La  La23  1  0.83398336  0.37237142  0.49981180  1
  La  La24  1  0.83090786  0.37514996  0.83277183  1
  La  La25  1  0.15950945  0.37388717  0.16717191  1
  La  La26  1  0.49810486  0.37123986  0.49764431  1
  La  La27  1  0.82984766  0.12567016  0.16719041  1
  La  La28  1  0.33308059  0.62494613  0.32891902  1
  La  La29  1  0.50121065  0.88069445  0.49519756  1
  Pr  Pr30  1  0.32880719  0.87588198  0.67073569  1
  Pr  Pr31  1  0.83173601  0.12700790  0.50898328  1
  Pr  Pr32  1  0.66335063  0.37499312  0.67032610  1
  Pr  Pr33  1  0.66107571  0.62852207  0.66757073  1
  Pr  Pr34  1  0.82855343  0.62424224  0.17101385  1
  Pr  Pr35  1  0.17224953  0.12682940  0.83551953  1
  Pr  Pr36  1  0.33675541  0.12075947  0.99897471  1
  Pr  Pr37  1  0.66718837  0.37743678  0.33672863  1
  Pr  Pr38  1  0.16202798  0.37267569  0.49919250  1
  Pr  Pr39  1  -0.00098628  0.87521976  0.00078702  1
  Pr  Pr40  1  0.83482447  0.37661468  0.16898105  1
  Pr  Pr41  1  0.16592913  0.87790404  0.83312623  1
  Pr  Pr42  1  0.00115281  0.87411629  0.66888631  1
  Pr  Pr43  1  0.00508012  0.62725083  0.99988276  1
  Pr  Pr44  1  -0.00330249  0.12643704  0.33137162  1
  Pr  Pr45  1  0.67341601  0.87634937  -0.00150196  1
  Pr  Pr46  1  0.49781955  0.62471542  0.49675983  1
  Pr  Pr47  1  0.16046044  0.37284899  0.83322372  1
  Pr  Pr48  1  0.66051224  0.62483776  0.32924599  1
  Pr  Pr49  1  0.32448743  0.37288996  0.33383623  1
  Pr  Pr50  1  -0.00485356  0.62612165  0.66207855  1
  Pr  Pr51  1  0.32107043  0.37327600  0.67194123  1
  Pr  Pr52  1  0.17008499  0.87711265  0.49834082  1
  Pr  Pr53  1  0.82951594  0.62328895  0.50497881  1
  Pr  Pr54  1  0.50042109  0.37511025  0.15973696  1
  Pr  Pr55  1  0.00956139  0.12259876  0.99445789  1
  Pr  Pr56  1  0.16982319  0.12637621  0.50550635  1
  Pr  Pr57  1  0.33927010  0.62968453  0.99944487  1
  Pr  Pr58  1  0.49507225  0.12664282  0.16534800  1
  Pr  Pr59  1  0.66053754  0.12536174  0.33386972  1
  Pr  Pr60  1  0.84266197  0.87944744  0.50065648  1
  Pr  Pr61  1  0.83771711  0.87273538  0.16603252  1
  Pr  Pr62  1  0.17024314  0.62230046  0.83695999  1
  Pr  Pr63  1  0.66609625  0.12296628  0.99194267  1
  Pr  Pr64  1  0.50509036  0.62628173  0.83453739  1
  Pr  Pr65  1  0.32887168  0.87690408  0.33157145  1
  Pr  Pr66  1  0.00858613  0.87579411  0.33469845  1
  Pr  Pr67  1  0.33849583  0.62318271  0.66370255  1
  Pr  Pr68  1  -0.00374837  0.37612152  0.66820676  1
  Pr  Pr69  1  -0.00350017  0.37399140  0.00234328  1
  Pr  Pr70  1  0.49504872  0.62410133  0.16485080  1
  Pr  Pr71  1  0.67163270  0.87263936  0.33888112  1
  Mn  Mn72  1  -0.00266396  0.00251334  0.16724701  1
  Mn  Mn73  1  0.00119025  0.00195637  0.49989879  1
  Mn  Mn74  1  0.00310033  0.00038051  0.83188325  1
  Mn  Mn75  1  -0.00257591  0.49808840  0.16672450  1
  Mn  Mn76  1  -0.00250539  0.49864455  0.50079045  1
  Mn  Mn77  1  0.00139155  0.49963715  0.83368037  1
  Mn  Mn78  1  0.33522091  0.00129144  0.16683349  1
  Mn  Mn79  1  0.33343072  -0.00112953  0.50161488  1
  Mn  Mn80  1  0.33281307  0.00077509  0.83134765  1
  Mn  Mn81  1  0.33371524  0.49798303  0.16815423  1
  Mn  Mn82  1  0.33163291  0.49836843  0.49922920  1
  Mn  Mn83  1  0.33054401  0.50079417  0.83224140  1
  Mn  Mn84  1  0.66927898  0.00250220  0.16734481  1
  Mn  Mn85  1  0.66760476  -0.00093232  0.49706528  1
  Mn  Mn86  1  0.66714363  -0.00081558  0.83189348  1
  Mn  Mn87  1  0.66749904  0.49910670  0.16833279  1
  Mn  Mn88  1  0.66554068  0.50183192  0.50108949  1
  Mn  Mn89  1  0.66709761  0.50065573  0.83387968  1
  Mn  Mn90  1  -0.00294693  0.24859750  0.16705290  1
  Mn  Mn91  1  -0.00073006  0.24884639  0.50020070  1
  Mn  Mn92  1  0.00056809  0.25018350  0.83367911  1
  Mn  Mn93  1  -0.00202089  0.75029093  0.16753672  1
  Mn  Mn94  1  -0.00144301  0.75141183  0.50036039  1
  Mn  Mn95  1  0.00431842  0.74876653  0.83214496  1
  Mn  Mn96  1  0.33423511  0.25221542  0.16767629  1
  Mn  Mn97  1  0.33170140  0.25305024  0.50211665  1
  Mn  Mn98  1  0.33187837  0.24958383  0.83304775  1
  Mn  Mn99  1  0.33499555  0.74946343  0.16632248  1
  Mn  Mn100  1  0.33386286  0.74952171  0.49973884  1
  Mn  Mn101  1  0.33105749  0.74840763  0.83078723  1
  Mn  Mn102  1  0.66805920  0.25007127  0.16671172  1
  Mn  Mn103  1  0.66523057  0.25251599  0.49951947  1
  Mn  Mn104  1  0.66715137  0.25127473  0.83369635  1
  Mn  Mn105  1  0.66837479  0.74973348  0.16867215  1
  Mn  Mn106  1  0.66743165  0.74760088  0.49753800  1
  Mn  Mn107  1  0.66792041  0.74844177  0.83451206  1
  Mn  Mn108  1  0.16776414  0.25157566  -0.00008662  1
  Mn  Mn109  1  0.16346816  0.25000053  0.33514163  1
  Mn  Mn110  1  0.16268351  0.24850925  0.66724849  1
  Mn  Mn111  1  0.16783740  0.74753336  -0.00112514  1
  Mn  Mn112  1  0.16711748  0.75013934  0.33521205  1
  Mn  Mn113  1  0.16456722  0.74967521  0.66895128  1
  Mn  Mn114  1  0.50290106  0.25109568  0.00000273  1
  Mn  Mn115  1  0.50090268  0.25192464  0.33055529  1
  Mn  Mn116  1  0.49739885  0.25159419  0.66227005  1
  Mn  Mn117  1  0.50617744  0.74886494  -0.00050851  1
  Mn  Mn118  1  0.50100202  0.75046281  0.33081421  1
  Mn  Mn119  1  0.49658753  0.74756266  0.66257967  1
  Mn  Mn120  1  0.83535325  0.25109806  0.00228448  1
  Mn  Mn121  1  0.83059270  0.24812494  0.33567920  1
  Mn  Mn122  1  0.83308008  0.25104105  0.66647903  1
  Mn  Mn123  1  0.83568711  0.74852138  0.00442750  1
  Mn  Mn124  1  0.83216068  0.75173880  0.33593665  1
  Mn  Mn125  1  0.83282589  0.74900777  0.66579865  1
  Mn  Mn126  1  0.16848326  0.00025866  -0.00165633  1
  Mn  Mn127  1  0.16654897  0.00085505  0.33585285  1
  Mn  Mn128  1  0.16488515  0.00131182  0.66625182  1
  Mn  Mn129  1  0.16700187  0.49920810  0.00083348  1
  Mn  Mn130  1  0.16518558  0.49830073  0.33475604  1
  Mn  Mn131  1  0.16243137  0.50059968  0.66966132  1
  Mn  Mn132  1  0.50530114  0.00070914  -0.00061670  1
  Mn  Mn133  1  0.50240580  0.00135426  0.33058048  1
  Mn  Mn134  1  0.49701545  -0.00010978  0.66178729  1
  Mn  Mn135  1  0.50235382  0.50089089  -0.00138473  1
  Mn  Mn136  1  0.49907620  0.49699544  0.33060864  1
  Mn  Mn137  1  0.49784701  0.50051545  0.66262133  1
  Mn  Mn138  1  0.83583055  -0.00002914  0.00474272  1
  Mn  Mn139  1  0.83243510  0.00169576  0.33460232  1
  Mn  Mn140  1  0.83444619  0.00040836  0.66618720  1
  Mn  Mn141  1  0.83591444  0.49978982  0.00233350  1
  Mn  Mn142  1  0.83103326  0.49857545  0.33634205  1
  Mn  Mn143  1  0.83138581  0.49991632  0.66711178  1
  O  O144  1  0.15949379  0.12806073  0.01060125  1
  O  O145  1  0.16024000  0.12493270  0.35930430  1
  O  O146  1  0.16259552  0.12494865  0.69198914  1
  O  O147  1  0.15842634  0.62134681  0.01406413  1
  O  O148  1  0.17393102  0.62431688  0.34446428  1
  O  O149  1  0.15337863  0.62478653  0.69346602  1
  O  O150  1  0.51403309  0.12810962  0.02002769  1
  O  O151  1  0.50608784  0.12969920  0.35401570  1
  O  O152  1  0.49325658  0.12905053  0.66803065  1
  O  O153  1  0.50125515  0.62290962  0.01967921  1
  O  O154  1  0.49665398  0.62167061  0.35519871  1
  O  O155  1  0.49158714  0.62224457  0.68863638  1
  O  O156  1  0.83072100  0.12679064  0.02303862  1
  O  O157  1  0.83299590  0.12464134  0.36547524  1
  O  O158  1  0.83471282  0.12813045  0.67387842  1
  O  O159  1  0.84184518  0.62291163  0.02701587  1
  O  O160  1  0.82659811  0.62766905  0.36103063  1
  O  O161  1  0.84183240  0.62360828  0.67735248  1
  O  O162  1  0.16635872  0.37384254  0.31468673  1
  O  O163  1  0.16733708  0.37433850  0.64314754  1
  O  O164  1  0.16233632  0.37570816  0.97642033  1
  O  O165  1  0.16474385  0.87616301  0.32403895  1
  O  O166  1  0.16735956  0.87546562  0.64084363  1
  O  O167  1  0.16344895  0.87311876  0.97722634  1
  O  O168  1  0.51143889  0.37608829  0.30276628  1
  O  O169  1  0.50749426  0.38032218  0.64234130  1
  O  O170  1  0.50587504  0.37783600  0.98916234  1
  O  O171  1  0.51444300  0.87324604  0.32059455  1
  O  O172  1  0.49034564  0.86832636  0.64078148  1
  O  O173  1  0.50916257  0.87252080  0.98965431  1
  O  O174  1  0.82587393  0.36952628  0.31088048  1
  O  O175  1  0.83385545  0.37623243  0.64515824  1
  O  O176  1  0.84161844  0.37611547  0.97719523  1
  O  O177  1  0.82799098  0.87937334  0.30719910  1
  O  O178  1  0.84182075  0.87290386  0.64686321  1
  O  O179  1  0.83444407  0.87403293  0.99177932  1
  O  O180  1  -0.00244829  0.37165732  0.18568543  1
  O  O181  1  0.00055578  0.37314557  0.52409526  1
  O  O182  1  0.00020920  0.37521266  0.85884636  1
  O  O183  1  -0.00907220  0.88026007  0.19195138  1
  O  O184  1  -0.00124035  0.87800815  0.52446409  1
  O  O185  1  0.00737422  0.87512355  0.85701960  1
  O  O186  1  0.34700599  0.37558904  0.18845798  1
  O  O187  1  0.32657874  0.37783339  0.52732207  1
  O  O188  1  0.32495615  0.37649200  0.84437408  1
  O  O189  1  0.33764412  0.87264955  0.18350756  1
  O  O190  1  0.32856690  0.87292833  0.52664593  1
  O  O191  1  0.32674420  0.87406932  0.84493742  1
  O  O192  1  0.66695741  0.37393410  0.19548749  1
  O  O193  1  0.66081371  0.38309803  0.52675077  1
  O  O194  1  0.67008873  0.37728131  0.85143944  1
  O  O195  1  0.67286767  0.87674956  0.19432257  1
  O  O196  1  0.65252327  0.87034745  0.50598870  1
  O  O197  1  0.66695185  0.87161277  0.85267392  1
  O  O198  1  -0.00716023  0.12617868  0.13937437  1
  O  O199  1  -0.00308245  0.12462419  0.47382628  1
  O  O200  1  0.00843203  0.12597468  0.81726095  1
  O  O201  1  -0.00875409  0.62096296  0.14503583  1
  O  O202  1  -0.00879457  0.62478511  0.49054583  1
  O  O203  1  0.00979004  0.62224053  0.80559341  1
  O  O204  1  0.33829234  0.13004769  0.14874023  1
  O  O205  1  0.32847594  0.12685730  0.49128667  1
  O  O206  1  0.32479858  0.12530853  0.81345478  1
  O  O207  1  0.33676138  0.62176483  0.14883785  1
  O  O208  1  0.33846485  0.62165730  0.47122161  1
  O  O209  1  0.32320228  0.62392993  0.80504772  1
  O  O210  1  0.67583637  0.12977109  0.13661446  1
  O  O211  1  0.67779375  0.12366528  0.47859926  1
  O  O212  1  0.66959807  0.12774079  0.82928047  1
  O  O213  1  0.67757040  0.62163411  0.15086538  1
  O  O214  1  0.67623540  0.62317201  0.47123728  1
  O  O215  1  0.66368931  0.62281853  0.81301469  1
  O  O216  1  0.07223404  0.01527775  0.25751928  1
  O  O217  1  0.08391133  0.02139786  0.58083374  1
  O  O218  1  0.09178170  0.01726635  0.90797740  1
  O  O219  1  0.08245407  0.50267715  0.24717850  1
  O  O220  1  0.07343803  0.51104165  0.59294965  1
  O  O221  1  0.08997877  0.51631475  0.90827771  1
  O  O222  1  0.42172131  0.01266913  0.24983972  1
  O  O223  1  0.41546853  0.00667860  0.57909884  1
  O  O224  1  0.41454156  0.01670145  0.92008858  1
  O  O225  1  0.41951115  0.52141145  0.24815907  1
  O  O226  1  0.42060466  0.52050444  0.57414775  1
  O  O227  1  0.41700161  0.52423904  0.90867374  1
  O  O228  1  0.74424116  0.02704652  0.25790605  1
  O  O229  1  0.75398931  0.00569417  0.57534242  1
  O  O230  1  0.74850028  0.00791334  0.93211995  1
  O  O231  1  0.74403602  0.51713066  0.25854643  1
  O  O232  1  0.74402295  0.52228285  0.58628907  1
  O  O233  1  0.75083903  0.50664616  0.92417945  1
  O  O234  1  0.25196601  0.24950974  0.25394789  1
  O  O235  1  0.24681273  0.23483366  0.58761554  1
  O  O236  1  0.25353124  0.22891176  0.92174838  1
  O  O237  1  0.25867834  0.74334479  0.25774079  1
  O  O238  1  0.25253840  0.73130848  0.59508636  1
  O  O239  1  0.25302298  0.72533628  0.91795428  1
  O  O240  1  0.58603539  0.22506147  0.24654997  1
  O  O241  1  0.58136426  0.24288559  0.57518840  1
  O  O242  1  0.59122723  0.24290745  0.92475742  1
  O  O243  1  0.57857984  0.72405552  0.24245824  1
  O  O244  1  0.58080555  0.72405894  0.57569458  1
  O  O245  1  0.58093524  0.72931451  0.91175984  1
  O  O246  1  0.91172715  0.22712465  0.25361228  1
  O  O247  1  0.91806596  0.23648341  0.58293281  1
  O  O248  1  0.92905981  0.23525110  0.92852820  1
  O  O249  1  0.89973760  0.73456375  0.24311754  1
  O  O250  1  0.90650000  0.73687273  0.57271384  1
  O  O251  1  0.92872159  0.73570081  0.92173349  1
  O  O252  1  0.07794514  0.47939492  0.07829740  1
  O  O253  1  0.08307481  0.48234085  0.42376093  1
  O  O254  1  0.07900119  0.47045239  0.74945742  1
  O  O255  1  0.07771328  0.98757524  0.07200070  1
  O  O256  1  0.08581261  0.97953797  0.42203796  1
  O  O257  1  0.08355496  0.97508299  0.74676831  1
  O  O258  1  0.42167649  0.49074318  0.08734275  1
  O  O259  1  0.41690565  0.47142751  0.40817303  1
  O  O260  1  0.40235709  0.48544558  0.73623002  1
  O  O261  1  0.42395798  1.00396527  0.08292176  1
  O  O262  1  0.41715684  0.97723223  0.41515776  1
  O  O263  1  0.40721617  0.98659744  0.74207724  1
  O  O264  1  0.75400450  0.47742579  0.09194608  1
  O  O265  1  0.74992454  0.47512379  0.42297349  1
  O  O266  1  0.75033866  0.48004822  0.75053901  1
  O  O267  1  0.75854838  0.98129680  0.09538898  1
  O  O268  1  0.75519799  0.97402775  0.41865217  1
  O  O269  1  0.75044827  0.99194760  0.75280503  1
  O  O270  1  0.24400733  0.26744283  0.09028202  1
  O  O271  1  0.24641754  0.27037713  0.42343420  1
  O  O272  1  0.23812992  0.26863483  0.75460682  1
  O  O273  1  0.25322778  0.75183235  0.08036281  1
  O  O274  1  0.25279734  0.77227442  0.42032532  1
  O  O275  1  0.24253538  0.77046838  0.75459554  1
  O  O276  1  0.58642910  0.27348572  0.08693712  1
  O  O277  1  0.58358689  0.27359328  0.41188196  1
  O  O278  1  0.58367470  0.26510704  0.74208883  1
  O  O279  1  0.60035612  0.76185721  0.07639201  1
  O  O280  1  0.59235343  0.75396415  0.40614161  1
  O  O281  1  0.57793097  0.74980819  0.74254334  1
  O  O282  1  0.91173442  0.27218277  0.08924026  1
  O  O283  1  0.91155123  0.26716388  0.42044163  1
  O  O284  1  0.91301527  0.27213667  0.75364256  1
  O  O285  1  0.92169860  0.77125527  0.08256152  1
  O  O286  1  0.92136190  0.77734582  0.40913699  1
  O  O287  1  0.92756204  0.75968255  0.74069616  1
  O  O288  1  0.24339840  0.48017135  0.09634249  1
  O  O289  1  0.24649429  0.47509157  0.42185727  1
  O  O290  1  0.23755037  0.48208627  0.75936157  1
  O  O291  1  0.25283018  0.99821803  0.07878175  1
  O  O292  1  0.25205476  0.97963650  0.42025925  1
  O  O293  1  0.24411451  0.98003974  0.75074090  1
  O  O294  1  0.58970860  0.48100714  0.08584112  1
  O  O295  1  0.58362801  0.48253108  0.41416956  1
  O  O296  1  0.58702397  0.49097203  0.73969323  1
  O  O297  1  0.59961997  0.98801232  0.07499026  1
  O  O298  1  0.59368207  0.99052936  0.40420066  1
  O  O299  1  0.57736758  0.99282154  0.74224422  1
  O  O300  1  0.91633283  0.47421945  0.08462016  1
  O  O301  1  0.91287977  0.48056994  0.41795108  1
  O  O302  1  0.91699339  0.47862337  0.75224666  1
  O  O303  1  0.91727535  0.97953892  0.08629951  1
  O  O304  1  0.92202543  0.97747605  0.41060871  1
  O  O305  1  0.92455999  0.98727065  0.74553526  1
  O  O306  1  0.07887983  0.26894004  0.07735617  1
  O  O307  1  0.08186200  0.26800872  0.42016932  1
  O  O308  1  0.07635781  0.27482682  0.74456701  1
  O  O309  1  0.07842248  0.76181693  0.07207087  1
  O  O310  1  0.08570396  0.76941085  0.42472179  1
  O  O311  1  0.08554219  0.77825908  0.75176749  1
  O  O312  1  0.42406896  0.25925017  0.08719304  1
  O  O313  1  0.41419757  0.27594830  0.41184265  1
  O  O314  1  0.40694460  0.26601002  0.73996154  1
  O  O315  1  0.42193955  0.74912599  0.08331518  1
  O  O316  1  0.42004432  0.77254038  0.41313138  1
  O  O317  1  0.40324579  0.76019878  0.73843368  1
  O  O318  1  0.75126002  0.27756293  0.08651978  1
  O  O319  1  0.74589513  0.27394479  0.41547658  1
  O  O320  1  0.74926731  0.27249152  0.74752767  1
  O  O321  1  0.76079990  0.76304263  0.10017413  1
  O  O322  1  0.75909950  0.77593074  0.42553669  1
  O  O323  1  0.75058302  0.75258336  0.74842437  1
  O  O324  1  0.25145160  0.00336241  0.25555765  1
  O  O325  1  0.24400910  0.01598081  0.58252979  1
  O  O326  1  0.25146363  0.02093572  0.91645972  1
  O  O327  1  0.26108710  0.50516634  0.26024755  1
  O  O328  1  0.25246471  0.51644474  0.59870124  1
  O  O329  1  0.25549296  0.52335797  0.92388768  1
  O  O330  1  0.58293414  0.02843038  0.24062731  1
  O  O331  1  0.57800173  0.00649841  0.56963240  1
  O  O332  1  0.58762883  0.01021168  0.91869894  1
  O  O333  1  0.58106467  0.52330313  0.24736579  1
  O  O334  1  0.58225819  0.53107554  0.57778401  1
  O  O335  1  0.58256072  0.51773773  0.91164235  1
  O  O336  1  0.90904757  0.02817607  0.25078621  1
  O  O337  1  0.91414485  0.01611139  0.57353397  1
  O  O338  1  0.92808664  0.01219129  0.92654677  1
  O  O339  1  0.90524421  0.51064147  0.24339732  1
  O  O340  1  0.91104417  0.51217892  0.58061297  1
  O  O341  1  0.92949320  0.51670114  0.92348687  1
  O  O342  1  0.07545995  0.23425464  0.25293898  1
  O  O343  1  0.08674039  0.23051302  0.57833929  1
  O  O344  1  0.09204204  0.23592145  0.90780018  1
  O  O345  1  0.07566515  0.74651814  0.25271041  1
  O  O346  1  0.07151247  0.73856989  0.59495699  1
  O  O347  1  0.08923930  0.72743603  0.91026382  1
  O  O348  1  0.42441697  0.23699419  0.24584183  1
  O  O349  1  0.41817245  0.24978784  0.57621726  1
  O  O350  1  0.41632537  0.23393309  0.92256134  1
  O  O351  1  0.41749388  0.72899562  0.25068477  1
  O  O352  1  0.41793374  0.72276694  0.57684416  1
  O  O353  1  0.41671475  0.72596737  0.90952693  1
  O  O354  1  0.74835638  0.22525349  0.25233289  1
  O  O355  1  0.75621854  0.24393715  0.57700236  1
  O  O356  1  0.75405969  0.24452070  0.92292895  1
  O  O357  1  0.73878517  0.73325428  0.26517649  1
  O  O358  1  0.74454415  0.72778806  0.58502059  1
  O  O359  1  0.74911964  0.74033257  0.93076579  1
