# generated using pymatgen
data_Ba17Sr5La8Pr42Mn72O216
_symmetry_space_group_name_H-M   'P 1'
_cell_length_a   16.68719777
_cell_length_b   15.71231195
_cell_length_c   16.83089740
_cell_angle_alpha   89.98552424
_cell_angle_beta   90.00435969
_cell_angle_gamma   89.99819585
_symmetry_Int_Tables_number   1
_chemical_formula_structural   Ba17Sr5La8Pr42Mn72O216
_chemical_formula_sum   'Ba17 Sr5 La8 Pr42 Mn72 O216'
_cell_volume   4412.96785025
_cell_formula_units_Z   1
loop_
 _symmetry_equiv_pos_site_id
 _symmetry_equiv_pos_as_xyz
  1  'x, y, z'
loop_
 _atom_site_type_symbol
 _atom_site_label
 _atom_site_symmetry_multiplicity
 _atom_site_fract_x
 _atom_site_fract_y
 _atom_site_fract_z
 _atom_site_occupancy
  Ba  Ba0  1  0.66820514  0.12582559  0.66752298  1
  Ba  Ba1  1  -0.00026728  0.87390399  0.66813791  1
  Ba  Ba2  1  0.66268026  0.87494131  0.33190945  1
  Ba  Ba3  1  -0.00249977  0.87613370  0.00146278  1
  Ba  Ba4  1  0.82863047  0.37630328  0.49978662  1
  Ba  Ba5  1  0.32907407  0.37413776  0.33464328  1
  Ba  Ba6  1  0.49989317  0.87341897  0.83348344  1
  Ba  Ba7  1  0.83491064  0.87471751  0.83533163  1
  Ba  Ba8  1  0.33346302  0.62350886  0.33280929  1
  Ba  Ba9  1  0.00281168  0.62460244  0.66526168  1
  Ba  Ba10  1  0.83443676  0.12542429  0.49929867  1
  Ba  Ba11  1  0.33137706  0.87494740  -0.00184742  1
  Ba  Ba12  1  0.83001702  0.37555964  0.83433937  1
  Ba  Ba13  1  0.16416268  0.87563923  0.50046216  1
  Ba  Ba14  1  0.83446549  0.62477281  0.49854162  1
  Ba  Ba15  1  0.17346030  0.12702607  0.83311540  1
  Ba  Ba16  1  -0.00491348  0.37413876  0.00118545  1
  Sr  Sr17  1  0.00613780  0.12522793  0.33643153  1
  Sr  Sr18  1  0.84204573  0.62660263  0.16994603  1
  Sr  Sr19  1  0.66371193  0.37338459  0.66727388  1
  Sr  Sr20  1  0.50381163  0.12505812  0.16611848  1
  Sr  Sr21  1  0.34027570  0.12264259  0.66699880  1
  La  La22  1  0.48917268  0.87531369  0.16289156  1
  La  La23  1  0.67191357  0.62472121  0.66735345  1
  La  La24  1  0.15963197  0.37505026  0.49718080  1
  La  La25  1  0.50453146  0.62622729  0.17052086  1
  La  La26  1  0.33563325  0.12451086  0.33349154  1
  La  La27  1  0.49652181  0.87772612  0.49910994  1
  La  La28  1  0.32902287  0.87683983  0.67160295  1
  La  La29  1  0.48897719  0.37481102  0.16522307  1
  Pr  Pr30  1  0.34171879  0.62748770  0.66164787  1
  Pr  Pr31  1  0.17376345  0.62472666  0.50346359  1
  Pr  Pr32  1  0.00867995  0.62344729  0.99584615  1
  Pr  Pr33  1  0.15756417  0.37476354  0.82803595  1
  Pr  Pr34  1  0.84566240  0.62471500  0.83442537  1
  Pr  Pr35  1  0.83141940  0.87331335  0.50165038  1
  Pr  Pr36  1  0.32805880  0.37473299  0.66768747  1
  Pr  Pr37  1  0.00140713  0.12451251  0.66436500  1
  Pr  Pr38  1  0.84595651  0.12407753  0.17315822  1
  Pr  Pr39  1  0.67550348  0.62268022  0.32910408  1
  Pr  Pr40  1  -0.00817413  0.37403451  0.33424991  1
  Pr  Pr41  1  0.50590562  0.62165802  0.49902462  1
  Pr  Pr42  1  0.67599213  0.12453928  0.99513122  1
  Pr  Pr43  1  0.32291358  0.37346193  0.00267424  1
  Pr  Pr44  1  0.68006044  0.62560010  0.99848468  1
  Pr  Pr45  1  0.15718854  0.37705667  0.16771812  1
  Pr  Pr46  1  0.00666250  0.62405656  0.33466993  1
  Pr  Pr47  1  0.01045594  0.12579531  0.99845379  1
  Pr  Pr48  1  0.50828039  0.12426080  0.83548134  1
  Pr  Pr49  1  0.17438620  0.62757810  0.83433126  1
  Pr  Pr50  1  0.17139901  0.12562714  0.50736158  1
  Pr  Pr51  1  0.16052139  0.87357610  0.16497891  1
  Pr  Pr52  1  0.16994733  0.12513367  0.16640040  1
  Pr  Pr53  1  0.67520597  0.12684485  0.33058089  1
  Pr  Pr54  1  0.66830567  0.87611095  0.66685154  1
  Pr  Pr55  1  0.49513160  0.37456651  0.82972903  1
  Pr  Pr56  1  0.65857830  0.87470501  0.00606995  1
  Pr  Pr57  1  0.16811211  0.62454467  0.16603241  1
  Pr  Pr58  1  0.32820809  0.87585458  0.33360183  1
  Pr  Pr59  1  0.49586962  0.37038258  0.50097769  1
  Pr  Pr60  1  0.82052956  0.87578564  0.15986260  1
  Pr  Pr61  1  0.34187954  0.62405216  0.99783970  1
  Pr  Pr62  1  0.16559254  0.87713881  0.82701274  1
  Pr  Pr63  1  0.51181068  0.62536303  0.83661518  1
  Pr  Pr64  1  0.65782793  0.37610567  0.00144781  1
  Pr  Pr65  1  0.65660872  0.37504147  0.33505899  1
  Pr  Pr66  1  -0.01157821  0.37429137  0.66867950  1
  Pr  Pr67  1  -0.01045474  0.87595247  0.33677386  1
  Pr  Pr68  1  0.82022551  0.37437797  0.16072205  1
  Pr  Pr69  1  0.50358603  0.12592636  0.50190220  1
  Pr  Pr70  1  0.84409086  0.12591708  0.83287973  1
  Pr  Pr71  1  0.34626082  0.12528107  0.99395040  1
  Mn  Mn72  1  0.00071926  -0.00001026  0.16917538  1
  Mn  Mn73  1  -0.00033761  -0.00010070  0.49901598  1
  Mn  Mn74  1  0.00357423  0.00158407  0.83418869  1
  Mn  Mn75  1  -0.00240111  0.50169837  0.16723867  1
  Mn  Mn76  1  0.00099757  0.49926334  0.49943207  1
  Mn  Mn77  1  0.00197892  0.49978006  0.83205527  1
  Mn  Mn78  1  0.33145181  0.00403854  0.16625279  1
  Mn  Mn79  1  0.33399268  -0.00025044  0.49916358  1
  Mn  Mn80  1  0.33655983  0.00162584  0.83257172  1
  Mn  Mn81  1  0.33076741  0.49817143  0.16381166  1
  Mn  Mn82  1  0.33457463  0.49966667  0.50218829  1
  Mn  Mn83  1  0.33487458  0.49991545  0.83270235  1
  Mn  Mn84  1  0.66379582  0.00359020  0.16530939  1
  Mn  Mn85  1  0.66469758  -0.00079983  0.49894507  1
  Mn  Mn86  1  0.66940544  -0.00091693  0.83481905  1
  Mn  Mn87  1  0.66508043  0.49966187  0.16635545  1
  Mn  Mn88  1  0.66378752  0.49888670  0.49967552  1
  Mn  Mn89  1  0.66729018  0.50053823  0.83424586  1
  Mn  Mn90  1  -0.00046878  0.24985415  0.16883606  1
  Mn  Mn91  1  0.00125568  0.24980354  0.49933712  1
  Mn  Mn92  1  0.00149611  0.25002386  0.83284183  1
  Mn  Mn93  1  -0.00076064  0.74927792  0.16827587  1
  Mn  Mn94  1  -0.00014979  0.75101522  0.49807762  1
  Mn  Mn95  1  0.00384397  0.74824777  0.83504980  1
  Mn  Mn96  1  0.33109381  0.24913149  0.16492388  1
  Mn  Mn97  1  0.33301371  0.24893853  0.50222418  1
  Mn  Mn98  1  0.33682122  0.25200081  0.83420980  1
  Mn  Mn99  1  0.33095027  0.74868484  0.16603033  1
  Mn  Mn100  1  0.33492402  0.75083732  0.49919286  1
  Mn  Mn101  1  0.33490638  0.74717137  0.83115169  1
  Mn  Mn102  1  0.66427760  0.24870517  0.16526697  1
  Mn  Mn103  1  0.66388974  0.25196570  0.49892527  1
  Mn  Mn104  1  0.66739914  0.25037045  0.83511083  1
  Mn  Mn105  1  0.66480023  0.74851885  0.16664197  1
  Mn  Mn106  1  0.66381455  0.74884088  0.49982233  1
  Mn  Mn107  1  0.66974205  0.74972589  0.83423318  1
  Mn  Mn108  1  0.16741558  0.25131071  0.00120456  1
  Mn  Mn109  1  0.16478429  0.24750862  0.33455271  1
  Mn  Mn110  1  0.16837918  0.25143164  0.66451034  1
  Mn  Mn111  1  0.16846338  0.74940761  0.00021678  1
  Mn  Mn112  1  0.16515832  0.75043500  0.33179672  1
  Mn  Mn113  1  0.16970379  0.74761332  0.66784671  1
  Mn  Mn114  1  0.50180012  0.25185293  -0.00068531  1
  Mn  Mn115  1  0.49898887  0.24812248  0.33223100  1
  Mn  Mn116  1  0.49826851  0.25053796  0.66776991  1
  Mn  Mn117  1  0.50066759  0.74717169  0.00234071  1
  Mn  Mn118  1  0.49894699  0.75016036  0.33308221  1
  Mn  Mn119  1  0.50165411  0.74806308  0.66499321  1
  Mn  Mn120  1  0.83132192  0.24820148  0.00267911  1
  Mn  Mn121  1  0.83346497  0.25080725  0.32961195  1
  Mn  Mn122  1  0.83171464  0.24998304  0.66776683  1
  Mn  Mn123  1  0.83388951  0.74883339  0.00254020  1
  Mn  Mn124  1  0.83280056  0.75043123  0.33102498  1
  Mn  Mn125  1  0.83281429  0.74969544  0.66707111  1
  Mn  Mn126  1  0.16848631  -0.00019643  0.00110729  1
  Mn  Mn127  1  0.16544232  0.00189309  0.33281485  1
  Mn  Mn128  1  0.16825365  0.00239805  0.66700587  1
  Mn  Mn129  1  0.16818400  0.49935186  -0.00103657  1
  Mn  Mn130  1  0.16367668  0.49915995  0.33349582  1
  Mn  Mn131  1  0.16985711  0.49846222  0.66575624  1
  Mn  Mn132  1  0.50167208  0.00120217  0.00219141  1
  Mn  Mn133  1  0.49876497  0.00195235  0.33163512  1
  Mn  Mn134  1  0.50094943  -0.00013097  0.66565428  1
  Mn  Mn135  1  0.50020897  0.50020385  -0.00082287  1
  Mn  Mn136  1  0.50009904  0.49971491  0.33357387  1
  Mn  Mn137  1  0.49972859  0.50045843  0.66840734  1
  Mn  Mn138  1  0.83224929  0.00219118  0.00220834  1
  Mn  Mn139  1  0.83268160  -0.00052492  0.33157364  1
  Mn  Mn140  1  0.83398915  0.00001333  0.66713581  1
  Mn  Mn141  1  0.83298304  0.50081816  0.00242917  1
  Mn  Mn142  1  0.83340899  0.50009892  0.32862590  1
  Mn  Mn143  1  0.83069653  0.49995029  0.66758764  1
  O  O144  1  0.16334751  0.12920254  0.02161913  1
  O  O145  1  0.16628147  0.12472959  0.36225416  1
  O  O146  1  0.15770882  0.12865151  0.67618646  1
  O  O147  1  0.16596422  0.62316465  0.02252340  1
  O  O148  1  0.15800785  0.62250325  0.35970698  1
  O  O149  1  0.17626162  0.62032071  0.68958220  1
  O  O150  1  0.49765069  0.12765919  0.01502267  1
  O  O151  1  0.49390364  0.12460181  0.35773262  1
  O  O152  1  0.49651383  0.12979178  0.69184558  1
  O  O153  1  0.49466175  0.62135518  0.02525269  1
  O  O154  1  0.50306863  0.62114618  0.35413127  1
  O  O155  1  0.49261612  0.62318191  0.69478583  1
  O  O156  1  0.82499383  0.12572527  0.02997841  1
  O  O157  1  0.82481641  0.12591752  0.34021993  1
  O  O158  1  0.83689170  0.12511296  0.68506911  1
  O  O159  1  0.83049585  0.62417752  0.02205088  1
  O  O160  1  0.82564591  0.62554908  0.34188233  1
  O  O161  1  0.82437484  0.62538874  0.68669318  1
  O  O162  1  0.15991111  0.37369698  0.31069513  1
  O  O163  1  0.17947997  0.37520258  0.64075782  1
  O  O164  1  0.17335211  0.37607228  0.97221312  1
  O  O165  1  0.17352416  0.87841891  0.30698220  1
  O  O166  1  0.17585148  0.87470088  0.66076516  1
  O  O167  1  0.16719608  0.87008117  0.97352974  1
  O  O168  1  0.50563046  0.37513012  0.30872260  1
  O  O169  1  0.49923183  0.37686456  0.64499696  1
  O  O170  1  0.50662296  0.37859510  0.97325759  1
  O  O171  1  0.49424002  0.88001092  0.30548554  1
  O  O172  1  0.50742981  0.86898963  0.64304168  1
  O  O173  1  0.50542050  0.87366958  0.99237499  1
  O  O174  1  0.84000588  0.37492302  0.30501376  1
  O  O175  1  0.83898877  0.37472608  0.65964461  1
  O  O176  1  0.82529283  0.37458774  0.99102257  1
  O  O177  1  0.83802737  0.87441959  0.30450353  1
  O  O178  1  0.83016006  0.87398737  0.64869398  1
  O  O179  1  0.82557857  0.87591393  0.99279050  1
  O  O180  1  0.00736769  0.37624392  0.19077673  1
  O  O181  1  0.00800412  0.37514727  0.52294129  1
  O  O182  1  0.00527210  0.37572323  0.84269072  1
  O  O183  1  0.01115279  0.87389432  0.19237905  1
  O  O184  1  -0.00699477  0.87590169  0.50988044  1
  O  O185  1  0.01056889  0.87293232  0.84410762  1
  O  O186  1  0.33864554  0.37368974  0.17788062  1
  O  O187  1  0.33766513  0.37559234  0.52430346  1
  O  O188  1  0.34302713  0.37778563  0.86150058  1
  O  O189  1  0.33639913  0.88034169  0.18907720  1
  O  O190  1  0.34033660  0.87531955  0.52476657  1
  O  O191  1  0.32823928  0.87388712  0.84159008  1
  O  O192  1  0.67158912  0.37425632  0.19006264  1
  O  O193  1  0.65690094  0.37618110  0.51609669  1
  O  O194  1  0.66092732  0.37750405  0.85850517  1
  O  O195  1  0.67143844  0.87539815  0.17451123  1
  O  O196  1  0.65946652  0.87086208  0.52139312  1
  O  O197  1  0.66914944  0.87170393  0.86143871  1
  O  O198  1  -0.00510304  0.12523975  0.14248967  1
  O  O199  1  0.00872068  0.12571943  0.48593479  1
  O  O200  1  -0.00027980  0.12749500  0.81307632  1
  O  O201  1  -0.00032246  0.62536859  0.13961187  1
  O  O202  1  0.00826585  0.62410526  0.47927841  1
  O  O203  1  0.00122088  0.62275909  0.82554848  1
  O  O204  1  0.32189077  0.12812418  0.13719322  1
  O  O205  1  0.33189756  0.12278550  0.47752767  1
  O  O206  1  0.34439199  0.12888156  0.81841998  1
  O  O207  1  0.32373660  0.61881564  0.14210345  1
  O  O208  1  0.32942781  0.62467671  0.48895926  1
  O  O209  1  0.32739315  0.62119101  0.80508966  1
  O  O210  1  0.66012457  0.12844736  0.13945654  1
  O  O211  1  0.65805197  0.12876588  0.47550816  1
  O  O212  1  0.65722576  0.12552314  0.82590656  1
  O  O213  1  0.65648792  0.62236768  0.14273315  1
  O  O214  1  0.65803093  0.62335732  0.47280316  1
  O  O215  1  0.66048654  0.62506723  0.81277751  1
  O  O216  1  0.09281348  0.02077893  0.24208914  1
  O  O217  1  0.08710750  0.01599350  0.58146565  1
  O  O218  1  0.08576137  0.01598223  0.91974917  1
  O  O219  1  0.08467449  0.52378527  0.24518837  1
  O  O220  1  0.10088266  0.51316930  0.57083025  1
  O  O221  1  0.09526853  0.51693540  0.90928291  1
  O  O222  1  0.41648389  0.02305549  0.24669706  1
  O  O223  1  0.42350607  0.01678448  0.57281036  1
  O  O224  1  0.42708224  0.01809476  0.91182075  1
  O  O225  1  0.42766455  0.51266719  0.23792848  1
  O  O226  1  0.42344612  0.52099650  0.58152419  1
  O  O227  1  0.42627085  0.52469487  0.90489124  1
  O  O228  1  0.75512405  0.01786961  0.23787554  1
  O  O229  1  0.75245023  -0.00006911  0.57942873  1
  O  O230  1  0.75981049  0.02465830  0.91105175  1
  O  O231  1  0.75632223  0.51442351  0.23735041  1
  O  O232  1  0.74648326  0.51266666  0.58136858  1
  O  O233  1  0.75686852  0.52351888  0.91050357  1
  O  O234  1  0.25176875  0.22711148  0.25820117  1
  O  O235  1  0.25658066  0.23054445  0.58948875  1
  O  O236  1  0.26802143  0.23766394  0.93026685  1
  O  O237  1  0.24787098  0.73608564  0.24801237  1
  O  O238  1  0.25816121  0.73306905  0.59013381  1
  O  O239  1  0.25667853  0.72387820  0.92083591  1
  O  O240  1  0.59625356  0.23296855  0.25851516  1
  O  O241  1  0.57789970  0.23748135  0.58016774  1
  O  O242  1  0.59535929  0.23615663  0.93110220  1
  O  O243  1  0.58877852  0.72817833  0.25599536  1
  O  O244  1  0.58476484  0.72095557  0.58693035  1
  O  O245  1  0.59198289  0.72857521  0.92489761  1
  O  O246  1  0.92461424  0.23318445  0.25592613  1
  O  O247  1  0.93084126  0.23922752  0.59270024  1
  O  O248  1  0.91971140  0.22591649  0.92742242  1
  O  O249  1  0.92924857  0.73304030  0.26072393  1
  O  O250  1  0.91461242  0.74405010  0.58238135  1
  O  O251  1  0.92406969  0.73025190  0.92562395  1
  O  O252  1  0.08088260  0.48790707  0.08384631  1
  O  O253  1  0.07503859  0.47783376  0.40789277  1
  O  O254  1  0.08235536  0.47648947  0.73783078  1
  O  O255  1  0.07991259  0.99054861  0.08427586  1
  O  O256  1  0.07499876  0.98349317  0.40467562  1
  O  O257  1  0.08864496  0.98923902  0.75252684  1
  O  O258  1  0.40796705  0.48185848  0.06733671  1
  O  O259  1  0.41583493  0.48512811  0.42089339  1
  O  O260  1  0.40823221  0.47688956  0.74308082  1
  O  O261  1  0.41247005  0.99351122  0.08179340  1
  O  O262  1  0.41062932  0.97913122  0.40904440  1
  O  O263  1  0.41239365  0.98421335  0.73885384  1
  O  O264  1  0.73612858  0.48453682  0.07345069  1
  O  O265  1  0.73890990  0.48655437  0.39912622  1
  O  O266  1  0.73762220  0.49073979  0.74477400  1
  O  O267  1  0.73715458  0.98620792  0.07185976  1
  O  O268  1  0.74621120  0.98792455  0.41387504  1
  O  O269  1  0.74568065  0.98442773  0.74458964  1
  O  O270  1  0.23910295  0.27469855  0.09137609  1
  O  O271  1  0.23912329  0.26248599  0.42833671  1
  O  O272  1  0.24668124  0.27378553  0.75825668  1
  O  O273  1  0.24024322  0.76529399  0.09033817  1
  O  O274  1  0.24777386  0.76386707  0.41393566  1
  O  O275  1  0.24631354  0.76381601  0.75773059  1
  O  O276  1  0.57292229  0.27574804  0.09191644  1
  O  O277  1  0.57622269  0.27113445  0.41960601  1
  O  O278  1  0.57301751  0.26559284  0.76184380  1
  O  O279  1  0.57512570  0.76605071  0.09476742  1
  O  O280  1  0.57070454  0.76415996  0.42665923  1
  O  O281  1  0.58399513  0.76034326  0.74915105  1
  O  O282  1  0.90163492  0.26309594  0.09774260  1
  O  O283  1  0.91612442  0.26439687  0.41728515  1
  O  O284  1  0.91617442  0.25706866  0.75271101  1
  O  O285  1  0.90654389  0.76813908  0.10010252  1
  O  O286  1  0.90919491  0.77010433  0.41633562  1
  O  O287  1  0.91429704  0.74981874  0.75783743  1
  O  O288  1  0.24179209  0.47528260  0.08516439  1
  O  O289  1  0.23870245  0.48789399  0.42851566  1
  O  O290  1  0.24442896  0.47431862  0.76028061  1
  O  O291  1  0.23867053  0.98328582  0.09593825  1
  O  O292  1  0.25225078  0.98497705  0.41296748  1
  O  O293  1  0.24978709  0.98862549  0.75254854  1
  O  O294  1  0.57326876  0.47698184  0.09427154  1
  O  O295  1  0.57422630  0.47825285  0.42325569  1
  O  O296  1  0.57070190  0.48744286  0.76302217  1
  O  O297  1  0.57482270  0.98220522  0.09269437  1
  O  O298  1  0.57104079  0.98721736  0.42335799  1
  O  O299  1  0.58514688  0.98544157  0.75103596  1
  O  O300  1  0.90458932  0.48287882  0.09735566  1
  O  O301  1  0.91582098  0.48787555  0.41269012  1
  O  O302  1  0.91365072  0.49494452  0.75387744  1
  O  O303  1  0.90252576  0.98669563  0.09830477  1
  O  O304  1  0.90846319  0.98012436  0.42029947  1
  O  O305  1  0.91547918  0.99846789  0.75538513  1
  O  O306  1  0.07921645  0.26256039  0.08509825  1
  O  O307  1  0.07611660  0.27126006  0.40938188  1
  O  O308  1  0.08202043  0.27239837  0.73820285  1
  O  O309  1  0.08157067  0.76192421  0.08426545  1
  O  O310  1  0.07331789  0.76642826  0.40185339  1
  O  O311  1  0.09107305  0.75555654  0.75622577  1
  O  O312  1  0.40925118  0.26723754  0.06728672  1
  O  O313  1  0.41437876  0.26287878  0.42007060  1
  O  O314  1  0.40980940  0.27622434  0.74498278  1
  O  O315  1  0.41118517  0.75634452  0.08200586  1
  O  O316  1  0.41067636  0.77291092  0.40964103  1
  O  O317  1  0.40813497  0.76274210  0.73580736  1
  O  O318  1  0.73491381  0.26887348  0.07336521  1
  O  O319  1  0.73820025  0.26431568  0.39902600  1
  O  O320  1  0.74265849  0.25927140  0.75006307  1
  O  O321  1  0.73745723  0.76159817  0.07354644  1
  O  O322  1  0.74859767  0.76497192  0.41822833  1
  O  O323  1  0.74210868  0.76546001  0.74369150  1
  O  O324  1  0.25393101  0.02603950  0.25455111  1
  O  O325  1  0.25265521  0.01677851  0.58339809  1
  O  O326  1  0.26107425  0.01776672  0.92667708  1
  O  O327  1  0.24293537  0.51047579  0.24859878  1
  O  O328  1  0.26173607  0.51700385  0.59474428  1
  O  O329  1  0.26165757  0.52137246  0.92252632  1
  O  O330  1  0.58937248  0.02298467  0.25815018  1
  O  O331  1  0.58149738  0.01456808  0.58185585  1
  O  O332  1  0.59312992  0.01351670  0.92793926  1
  O  O333  1  0.59468806  0.51700053  0.25868238  1
  O  O334  1  0.58362704  0.52344458  0.59112136  1
  O  O335  1  0.59295898  0.52298077  0.92849418  1
  O  O336  1  0.92536346  0.01536816  0.25680489  1
  O  O337  1  0.92342242  0.01535914  0.59079772  1
  O  O338  1  0.92160011  0.02447098  0.92641820  1
  O  O339  1  0.92677378  0.51859547  0.25832128  1
  O  O340  1  0.92353891  0.50375528  0.58668509  1
  O  O341  1  0.92171783  0.51919530  0.92763562  1
  O  O342  1  0.09167389  0.23061512  0.24377380  1
  O  O343  1  0.09450957  0.23814536  0.57226398  1
  O  O344  1  0.08717813  0.23911024  0.91694672  1
  O  O345  1  0.08875680  0.72487381  0.24369081  1
  O  O346  1  0.09518105  0.73515694  0.57809123  1
  O  O347  1  0.09057509  0.72524783  0.91655447  1
  O  O348  1  0.42057752  0.23375013  0.24405190  1
  O  O349  1  0.42085906  0.23287224  0.57837855  1
  O  O350  1  0.43347151  0.23475730  0.90477936  1
  O  O351  1  0.42409218  0.73549448  0.24085713  1
  O  O352  1  0.42637975  0.72827753  0.57604201  1
  O  O353  1  0.42195017  0.72575721  0.90924264  1
  O  O354  1  0.75808858  0.23272104  0.23342979  1
  O  O355  1  0.75004002  0.24462121  0.57852840  1
  O  O356  1  0.75811139  0.22661426  0.91284493  1
  O  O357  1  0.75245963  0.73558723  0.24273932  1
  O  O358  1  0.74383414  0.73982467  0.58419456  1
  O  O359  1  0.75748832  0.72398929  0.90857813  1
