# generated using pymatgen
data_Ba17Sr5La8Pr42Mn72O216
_symmetry_space_group_name_H-M   'P 1'
_cell_length_a   16.67459286
_cell_length_b   15.69677164
_cell_length_c   16.82717086
_cell_angle_alpha   89.99549601
_cell_angle_beta   90.00310440
_cell_angle_gamma   89.99645869
_symmetry_Int_Tables_number   1
_chemical_formula_structural   Ba17Sr5La8Pr42Mn72O216
_chemical_formula_sum   'Ba17 Sr5 La8 Pr42 Mn72 O216'
_cell_volume   4404.29784198
_cell_formula_units_Z   1
loop_
 _symmetry_equiv_pos_site_id
 _symmetry_equiv_pos_as_xyz
  1  'x, y, z'
loop_
 _atom_site_type_symbol
 _atom_site_label
 _atom_site_symmetry_multiplicity
 _atom_site_fract_x
 _atom_site_fract_y
 _atom_site_fract_z
 _atom_site_occupancy
  Ba  Ba0  1  0.83189885  0.87488320  0.49481694  1
  Ba  Ba1  1  0.66398965  0.12405388  0.99727054  1
  Ba  Ba2  1  0.66784398  0.37700886  0.33326997  1
  Ba  Ba3  1  0.33315928  0.62434088  0.66887246  1
  Ba  Ba4  1  -0.00274098  0.87547082  0.66564793  1
  Ba  Ba5  1  0.16968993  0.87596944  0.16886772  1
  Ba  Ba6  1  0.66976340  0.37621750  0.66449157  1
  Ba  Ba7  1  0.16739195  0.62353070  0.16800346  1
  Ba  Ba8  1  0.83217603  0.37451746  0.49535160  1
  Ba  Ba9  1  0.16780923  0.87480358  0.50149023  1
  Ba  Ba10  1  0.83411301  0.87439104  0.16331744  1
  Ba  Ba11  1  0.33323391  0.87542705  0.66759899  1
  Ba  Ba12  1  0.16638780  0.62258638  0.50259199  1
  Ba  Ba13  1  0.16393854  0.62317451  0.83616365  1
  Ba  Ba14  1  0.33221059  0.12584790  0.66683315  1
  Ba  Ba15  1  0.33508571  0.37456687  0.66714095  1
  Ba  Ba16  1  0.66430136  0.12535981  0.66439173  1
  Sr  Sr17  1  0.66851185  0.62791479  0.99678898  1
  Sr  Sr18  1  0.83792606  0.37545864  0.16435183  1
  Sr  Sr19  1  0.66822135  0.62475046  0.66551355  1
  Sr  Sr20  1  0.49912314  0.12578353  0.50202641  1
  Sr  Sr21  1  0.17246488  0.37560595  0.50324682  1
  La  La22  1  0.33450046  0.87308872  0.33825432  1
  La  La23  1  0.33275115  0.62445152  0.33569287  1
  La  La24  1  0.16639375  0.87500617  0.82869524  1
  La  La25  1  0.82900830  0.12620652  0.16491869  1
  La  La26  1  -0.00556414  0.12425721  0.66316947  1
  La  La27  1  -0.00069750  0.62585583  0.33377580  1
  La  La28  1  0.66424405  0.87414962  0.33442965  1
  La  La29  1  0.33453685  0.87351660  0.00231710  1
  Pr  Pr30  1  -0.00667176  0.12342612  0.33253333  1
  Pr  Pr31  1  0.00924250  0.37559465  0.00395790  1
  Pr  Pr32  1  0.49812851  0.12564404  0.17289207  1
  Pr  Pr33  1  0.33623608  0.37800590  0.34029115  1
  Pr  Pr34  1  0.66634378  0.12555381  0.33008170  1
  Pr  Pr35  1  0.49668587  0.87790931  0.50274365  1
  Pr  Pr36  1  0.82578302  0.12332620  0.83080660  1
  Pr  Pr37  1  0.17449649  0.37323692  0.83064690  1
  Pr  Pr38  1  0.67595980  0.37787060  0.00406064  1
  Pr  Pr39  1  0.17882222  0.37262467  0.16738685  1
  Pr  Pr40  1  0.83113247  0.62497585  0.83095312  1
  Pr  Pr41  1  0.34186229  0.37760717  0.00181618  1
  Pr  Pr42  1  0.00333772  0.87318566  0.00231971  1
  Pr  Pr43  1  0.66281837  0.87305331  0.00188006  1
  Pr  Pr44  1  0.15918989  0.12747020  0.17041884  1
  Pr  Pr45  1  0.49657065  0.62315856  0.83599488  1
  Pr  Pr46  1  0.00510228  0.87215339  0.34006747  1
  Pr  Pr47  1  0.50289765  0.62262704  0.50533630  1
  Pr  Pr48  1  0.66350648  0.87422753  0.66470956  1
  Pr  Pr49  1  0.32509808  0.12599905  0.33393407  1
  Pr  Pr50  1  0.00510498  0.37602277  0.66907256  1
  Pr  Pr51  1  0.16261940  0.12684849  0.50498376  1
  Pr  Pr52  1  0.50855137  0.37442480  0.83141368  1
  Pr  Pr53  1  0.50019827  0.37050849  0.50297552  1
  Pr  Pr54  1  0.83613364  0.62305114  0.16593741  1
  Pr  Pr55  1  0.32929798  0.62627000  0.99733962  1
  Pr  Pr56  1  0.83336774  0.62195029  0.49962609  1
  Pr  Pr57  1  0.82809960  0.87499368  0.82714186  1
  Pr  Pr58  1  0.67237146  0.62488443  0.33034590  1
  Pr  Pr59  1  0.32588373  0.12438512  0.99821539  1
  Pr  Pr60  1  -0.00830209  0.12507616  0.99893383  1
  Pr  Pr61  1  0.82530253  0.12661659  0.49800611  1
  Pr  Pr62  1  0.50268981  0.62570410  0.17193973  1
  Pr  Pr63  1  -0.00203622  0.62520457  0.66265727  1
  Pr  Pr64  1  0.15823130  0.12465971  0.83262515  1
  Pr  Pr65  1  0.00603759  0.37606125  0.33765827  1
  Pr  Pr66  1  0.50956557  0.37624360  0.16682629  1
  Pr  Pr67  1  0.83603529  0.37317962  0.82680300  1
  Pr  Pr68  1  -0.00396959  0.62525339  0.99956199  1
  Pr  Pr69  1  0.50117680  0.87528999  0.16550491  1
  Pr  Pr70  1  0.50219412  0.87568907  0.83244959  1
  Pr  Pr71  1  0.49462545  0.12653578  0.83284261  1
  Mn  Mn72  1  0.00014234  0.00091813  0.16547180  1
  Mn  Mn73  1  -0.00099464  0.00219720  0.49700941  1
  Mn  Mn74  1  -0.00368126  0.00147999  0.83533422  1
  Mn  Mn75  1  0.00163949  0.49680664  0.16704948  1
  Mn  Mn76  1  0.00004071  0.49720369  0.50058592  1
  Mn  Mn77  1  -0.00200197  0.49825471  0.83539531  1
  Mn  Mn78  1  0.33486372  0.00244007  0.16742143  1
  Mn  Mn79  1  0.33372121  0.00171076  0.49867823  1
  Mn  Mn80  1  0.33201781  0.00188120  0.83739329  1
  Mn  Mn81  1  0.33859034  0.49859644  0.16836755  1
  Mn  Mn82  1  0.33494926  0.49922232  0.50086145  1
  Mn  Mn83  1  0.33480955  0.49911352  0.83755872  1
  Mn  Mn84  1  0.66547395  -0.00064767  0.16449838  1
  Mn  Mn85  1  0.66371180  -0.00097391  0.49673981  1
  Mn  Mn86  1  0.66406380  -0.00166281  0.83218402  1
  Mn  Mn87  1  0.66938796  0.50202341  0.16413478  1
  Mn  Mn88  1  0.66502982  0.50217364  0.49886155  1
  Mn  Mn89  1  0.66724963  0.50290704  0.83583004  1
  Mn  Mn90  1  0.00073228  0.25123348  0.16704682  1
  Mn  Mn91  1  0.00039147  0.25036158  0.49908466  1
  Mn  Mn92  1  -0.00235100  0.25001478  0.83476557  1
  Mn  Mn93  1  0.00064971  0.75038020  0.16628512  1
  Mn  Mn94  1  -0.00109924  0.74884960  0.49927535  1
  Mn  Mn95  1  -0.00316071  0.74911758  0.83480018  1
  Mn  Mn96  1  0.33708887  0.25007808  0.16764563  1
  Mn  Mn97  1  0.33376739  0.24973871  0.49870676  1
  Mn  Mn98  1  0.33307053  0.24916170  0.83826743  1
  Mn  Mn99  1  0.33651547  0.74968831  0.16811262  1
  Mn  Mn100  1  0.33529189  0.74974029  0.50051628  1
  Mn  Mn101  1  0.33332306  0.75015347  0.83687155  1
  Mn  Mn102  1  0.66735880  0.25131520  0.16378388  1
  Mn  Mn103  1  0.66427750  0.24999938  0.49650762  1
  Mn  Mn104  1  0.66623239  0.25022248  0.83472243  1
  Mn  Mn105  1  0.66731772  0.74840484  0.16452790  1
  Mn  Mn106  1  0.66467243  0.74881425  0.49853229  1
  Mn  Mn107  1  0.66522147  0.74862066  0.83243398  1
  Mn  Mn108  1  0.16686324  0.24980252  0.00148650  1
  Mn  Mn109  1  0.16656174  0.25038513  0.33531240  1
  Mn  Mn110  1  0.16446268  0.24994825  0.66846458  1
  Mn  Mn111  1  0.16607024  0.75059970  0.00079716  1
  Mn  Mn112  1  0.16743383  0.74833680  0.33396457  1
  Mn  Mn113  1  0.16491734  0.74988049  0.66896501  1
  Mn  Mn114  1  0.49892900  0.25127229  0.00248384  1
  Mn  Mn115  1  0.49899409  0.24900391  0.33376275  1
  Mn  Mn116  1  0.50077116  0.25041939  0.66718918  1
  Mn  Mn117  1  0.49951071  0.74825619  0.00184969  1
  Mn  Mn118  1  0.50076423  0.74968957  0.33526694  1
  Mn  Mn119  1  0.50188180  0.74919231  0.66828743  1
  Mn  Mn120  1  0.83479114  0.25186635  -0.00325463  1
  Mn  Mn121  1  0.83439735  0.24954201  0.32959430  1
  Mn  Mn122  1  0.83486709  0.24984855  0.66410689  1
  Mn  Mn123  1  0.83452260  0.74968017  -0.00452506  1
  Mn  Mn124  1  0.83386565  0.74927407  0.32936909  1
  Mn  Mn125  1  0.83059095  0.74928801  0.66462128  1
  Mn  Mn126  1  0.16524411  0.00229459  -0.00003839  1
  Mn  Mn127  1  0.16632795  0.00261858  0.33366484  1
  Mn  Mn128  1  0.16447848  0.00128225  0.66848392  1
  Mn  Mn129  1  0.16760164  0.49684932  0.00219774  1
  Mn  Mn130  1  0.16744342  0.49875503  0.33473034  1
  Mn  Mn131  1  0.16541889  0.49865819  0.66937370  1
  Mn  Mn132  1  0.49735885  0.00028059  0.00174018  1
  Mn  Mn133  1  0.49954300  0.00135273  0.33407091  1
  Mn  Mn134  1  0.49965581  -0.00086030  0.66684722  1
  Mn  Mn135  1  0.50180586  0.50106050  0.00186389  1
  Mn  Mn136  1  0.50016949  0.50207057  0.33519884  1
  Mn  Mn137  1  0.50331926  0.50081152  0.66873127  1
  Mn  Mn138  1  0.83380645  -0.00148886  -0.00424278  1
  Mn  Mn139  1  0.83295490  0.00027848  0.32912097  1
  Mn  Mn140  1  0.83058549  -0.00034079  0.66351593  1
  Mn  Mn141  1  0.83516580  0.50013952  -0.00275327  1
  Mn  Mn142  1  0.83573184  0.50041687  0.33011559  1
  Mn  Mn143  1  0.83445805  0.49988398  0.66594096  1
  O  O144  1  0.17005399  0.12761840  0.02884766  1
  O  O145  1  0.17293329  0.12803833  0.35970550  1
  O  O146  1  0.15660514  0.12658251  0.68796338  1
  O  O147  1  0.16984311  0.61931781  0.01237886  1
  O  O148  1  0.16755758  0.62119246  0.34313667  1
  O  O149  1  0.15577445  0.62187864  0.67867714  1
  O  O150  1  0.49344424  0.12869922  0.02840953  1
  O  O151  1  0.51335750  0.12256249  0.35265965  1
  O  O152  1  0.50004696  0.12328480  0.68852323  1
  O  O153  1  0.49435931  0.62493950  0.02940948  1
  O  O154  1  0.50171528  0.62846034  0.36079071  1
  O  O155  1  0.50317772  0.62600306  0.69088886  1
  O  O156  1  0.83730480  0.12877843  0.02167023  1
  O  O157  1  0.83756756  0.12429577  0.35209980  1
  O  O158  1  0.83720299  0.12549426  0.68706278  1
  O  O159  1  0.83859630  0.62460191  0.02377974  1
  O  O160  1  0.83736784  0.62657832  0.35219158  1
  O  O161  1  0.83769076  0.62483471  0.68784185  1
  O  O162  1  0.16628942  0.37282314  0.30968940  1
  O  O163  1  0.15953298  0.37176484  0.65462201  1
  O  O164  1  0.16109769  0.37186725  0.97468594  1
  O  O165  1  0.16322219  0.87764988  0.32496793  1
  O  O166  1  0.16558224  0.87910459  0.66274245  1
  O  O167  1  0.16231243  0.88143632  0.97519640  1
  O  O168  1  0.48996873  0.37565553  0.30906263  1
  O  O169  1  0.50133177  0.37700103  0.65107665  1
  O  O170  1  0.49545614  0.37745087  0.97457495  1
  O  O171  1  0.49590048  0.87497313  0.30696411  1
  O  O172  1  0.50429795  0.87323246  0.64782707  1
  O  O173  1  0.49992173  0.87100967  0.97691389  1
  O  O174  1  0.83942113  0.37319091  0.31496779  1
  O  O175  1  0.84169907  0.37376742  0.65280130  1
  O  O176  1  0.83153122  0.37634195  0.97127470  1
  O  O177  1  0.83327881  0.87431204  0.31928212  1
  O  O178  1  0.82631252  0.87348624  0.65174210  1
  O  O179  1  0.84520600  0.87081461  0.97090266  1
  O  O180  1  -0.00355122  0.37228842  0.19325636  1
  O  O181  1  -0.00311542  0.37236194  0.52338149  1
  O  O182  1  -0.01527748  0.37104626  0.86285093  1
  O  O183  1  -0.00083196  0.88083086  0.19270915  1
  O  O184  1  -0.00158867  0.87675137  0.50391490  1
  O  O185  1  -0.00760630  0.87786688  0.85965793  1
  O  O186  1  0.33541563  0.37174780  0.19715416  1
  O  O187  1  0.34042446  0.37450405  0.50723746  1
  O  O188  1  0.32792436  0.37220106  0.85811607  1
  O  O189  1  0.34164085  0.88073499  0.19407856  1
  O  O190  1  0.33950541  0.87544567  0.50710390  1
  O  O191  1  0.33211452  0.87815887  0.85795201  1
  O  O192  1  0.66532026  0.37801520  0.17777380  1
  O  O193  1  0.66267821  0.37786342  0.50713471  1
  O  O194  1  0.66333705  0.37886027  0.85965369  1
  O  O195  1  0.66152391  0.87260459  0.18937372  1
  O  O196  1  0.66538950  0.87171313  0.52008788  1
  O  O197  1  0.66429232  0.87298455  0.85901396  1
  O  O198  1  0.00740461  0.12778727  0.14132734  1
  O  O199  1  0.00748838  0.12803922  0.47610416  1
  O  O200  1  0.00512067  0.12992187  0.80779922  1
  O  O201  1  -0.00301457  0.61998592  0.14292369  1
  O  O202  1  -0.00589124  0.62187618  0.48023378  1
  O  O203  1  -0.00473121  0.62030549  0.80728755  1
  O  O204  1  0.34071576  0.12766461  0.13972953  1
  O  O205  1  0.33253838  0.12631902  0.47715484  1
  O  O206  1  0.34606563  0.12584471  0.82611969  1
  O  O207  1  0.34332532  0.61927868  0.14031136  1
  O  O208  1  0.34393959  0.62456847  0.48072826  1
  O  O209  1  0.34046499  0.62410214  0.82834647  1
  O  O210  1  0.66065852  0.12549781  0.15285313  1
  O  O211  1  0.66396423  0.12282990  0.47571554  1
  O  O212  1  0.66908873  0.12073615  0.82218284  1
  O  O213  1  0.66205745  0.62514355  0.14493727  1
  O  O214  1  0.65471449  0.62788916  0.47328189  1
  O  O215  1  0.66598148  0.62688691  0.81412187  1
  O  O216  1  0.08170061  0.02522296  0.25186832  1
  O  O217  1  0.07880074  0.02088783  0.58331659  1
  O  O218  1  0.07791729  0.02587345  0.92143814  1
  O  O219  1  0.07473911  0.50946160  0.25977155  1
  O  O220  1  0.07082519  0.50771789  0.59533905  1
  O  O221  1  0.06842537  0.51006824  0.92790341  1
  O  O222  1  0.41523108  0.02772979  0.25623705  1
  O  O223  1  0.41796079  0.00790250  0.58209604  1
  O  O224  1  0.40649656  0.01533814  0.93059144  1
  O  O225  1  0.42161011  0.52513772  0.24975890  1
  O  O226  1  0.42562784  0.51103396  0.57765106  1
  O  O227  1  0.41505524  0.51905705  0.92716834  1
  O  O228  1  0.74981043  0.02064193  0.24581140  1
  O  O229  1  0.75192545  0.01649784  0.57189976  1
  O  O230  1  0.75555561  0.00733732  0.90623940  1
  O  O231  1  0.75168773  0.52323150  0.24661518  1
  O  O232  1  0.75107892  0.51957700  0.57862372  1
  O  O233  1  0.74817302  0.52055574  0.91809997  1
  O  O234  1  0.24430432  0.22950458  0.23974733  1
  O  O235  1  0.24181225  0.23699072  0.57125768  1
  O  O236  1  0.24087725  0.22644908  0.91324383  1
  O  O237  1  0.25908317  0.73825693  0.25298344  1
  O  O238  1  0.25250598  0.74324995  0.58364368  1
  O  O239  1  0.25341448  0.74215899  0.92219134  1
  O  O240  1  0.57553738  0.23729117  0.24487195  1
  O  O241  1  0.57869650  0.24415754  0.57603458  1
  O  O242  1  0.56616294  0.23583482  0.91069282  1
  O  O243  1  0.58517755  0.72957739  0.25658665  1
  O  O244  1  0.58637351  0.73368679  0.58403174  1
  O  O245  1  0.57892331  0.73192346  0.91578221  1
  O  O246  1  0.91232051  0.22550372  0.24056560  1
  O  O247  1  0.91283099  0.22414059  0.57558766  1
  O  O248  1  0.90943124  0.22336190  0.90590222  1
  O  O249  1  0.91493415  0.72754088  0.24447630  1
  O  O250  1  0.91473687  0.72858226  0.58175800  1
  O  O251  1  0.91571400  0.72065754  0.91542117  1
  O  O252  1  0.09044487  0.47256233  0.09313166  1
  O  O253  1  0.08471787  0.47951138  0.42122472  1
  O  O254  1  0.08349624  0.47245570  0.76308102  1
  O  O255  1  0.08301079  0.98537958  0.08163149  1
  O  O256  1  0.08134597  0.99258311  0.41202291  1
  O  O257  1  0.08333152  0.98744039  0.76234561  1
  O  O258  1  0.42320002  0.47248277  0.08900951  1
  O  O259  1  0.41377804  0.48568612  0.41082833  1
  O  O260  1  0.42295650  0.48660617  0.76379796  1
  O  O261  1  0.42244955  0.97872054  0.09163878  1
  O  O262  1  0.42035374  0.98311208  0.41613538  1
  O  O263  1  0.42419294  0.98713306  0.76480856  1
  O  O264  1  0.75654579  0.48365938  0.08007601  1
  O  O265  1  0.74938129  0.50364174  0.41368194  1
  O  O266  1  0.75987067  0.48786493  0.75827723  1
  O  O267  1  0.74703881  0.98214471  0.07183678  1
  O  O268  1  0.74003996  0.99153400  0.40496417  1
  O  O269  1  0.74408653  0.97853824  0.74645616  1
  O  O270  1  0.26215386  0.27464354  0.07961689  1
  O  O271  1  0.25885168  0.26545828  0.40432905  1
  O  O272  1  0.24823076  0.25837673  0.75573914  1
  O  O273  1  0.25743226  0.76253264  0.07882819  1
  O  O274  1  0.25758088  0.75603110  0.41155516  1
  O  O275  1  0.24796388  0.76167293  0.75883532  1
  O  O276  1  0.58809010  0.27519417  0.07490207  1
  O  O277  1  0.57914359  0.26621076  0.41575031  1
  O  O278  1  0.58458409  0.26299937  0.75409943  1
  O  O279  1  0.58071843  0.77099612  0.08447632  1
  O  O280  1  0.57809412  0.77675326  0.41888018  1
  O  O281  1  0.58368985  0.77432017  0.75156361  1
  O  O282  1  0.92646040  0.26676303  0.06924075  1
  O  O283  1  0.92769279  0.25990538  0.40380255  1
  O  O284  1  0.92629734  0.26730658  0.74533577  1
  O  O285  1  0.92331058  0.76334783  0.07535668  1
  O  O286  1  0.92068889  0.75927706  0.40778155  1
  O  O287  1  0.90769926  0.76293384  0.75783834  1
  O  O288  1  0.25727920  0.47372293  0.08714302  1
  O  O289  1  0.25393109  0.48646607  0.41265441  1
  O  O290  1  0.24804696  0.48658762  0.75802553  1
  O  O291  1  0.25897473  0.98612198  0.07247584  1
  O  O292  1  0.25948442  0.99008595  0.40406373  1
  O  O293  1  0.24785277  0.99487294  0.75785481  1
  O  O294  1  0.58612333  0.47971651  0.08010686  1
  O  O295  1  0.57174206  0.48576749  0.42460158  1
  O  O296  1  0.58296654  0.48622348  0.75683099  1
  O  O297  1  0.58307172  0.97652302  0.08021092  1
  O  O298  1  0.58105530  0.97286597  0.41443068  1
  O  O299  1  0.58436968  0.97580376  0.74895797  1
  O  O300  1  0.92680772  0.48127639  0.07300451  1
  O  O301  1  0.92567367  0.48708548  0.40681236  1
  O  O302  1  0.92371188  0.47819886  0.74699164  1
  O  O303  1  0.92360592  0.98817696  0.07477041  1
  O  O304  1  0.92239552  0.99161218  0.40525499  1
  O  O305  1  0.90907725  0.99028831  0.75745127  1
  O  O306  1  0.09372843  0.27225090  0.09395451  1
  O  O307  1  0.08816656  0.27041375  0.42257358  1
  O  O308  1  0.08424609  0.27376469  0.76439669  1
  O  O309  1  0.08232661  0.76531518  0.08247432  1
  O  O310  1  0.07916571  0.75670710  0.41460215  1
  O  O311  1  0.08201447  0.76559546  0.76025258  1
  O  O312  1  0.42752458  0.27581073  0.09573068  1
  O  O313  1  0.41953108  0.26695268  0.41628556  1
  O  O314  1  0.42507830  0.26281089  0.76799028  1
  O  O315  1  0.41961916  0.77410212  0.08725441  1
  O  O316  1  0.41770438  0.76952749  0.41283983  1
  O  O317  1  0.42265092  0.76300594  0.76239258  1
  O  O318  1  0.75647998  0.26842786  0.08070599  1
  O  O319  1  0.75095763  0.24839116  0.41255130  1
  O  O320  1  0.76124266  0.26115896  0.75544856  1
  O  O321  1  0.74564961  0.76645222  0.06884185  1
  O  O322  1  0.73972727  0.75756705  0.40341026  1
  O  O323  1  0.74409589  0.76924163  0.74465151  1
  O  O324  1  0.24660364  0.02644127  0.24380673  1
  O  O325  1  0.24369989  0.01713266  0.57349736  1
  O  O326  1  0.24170145  0.02570390  0.91404103  1
  O  O327  1  0.25917407  0.51009964  0.25292713  1
  O  O328  1  0.25225203  0.50350642  0.58148237  1
  O  O329  1  0.25610853  0.50681697  0.92532926  1
  O  O330  1  0.57975749  0.01555660  0.24971325  1
  O  O331  1  0.58148987  0.00450611  0.57867741  1
  O  O332  1  0.57100334  0.01163626  0.90879716  1
  O  O333  1  0.58328327  0.52055679  0.25319355  1
  O  O334  1  0.58535925  0.51893640  0.58372093  1
  O  O335  1  0.57715464  0.52133577  0.91629701  1
  O  O336  1  0.91503445  0.02609880  0.24166528  1
  O  O337  1  0.91511991  0.02192649  0.57749458  1
  O  O338  1  0.91475581  0.02844694  0.91434924  1
  O  O339  1  0.91391006  0.52015847  0.24215212  1
  O  O340  1  0.91338181  0.52192726  0.57980041  1
  O  O341  1  0.90975787  0.52466120  0.90977276  1
  O  O342  1  0.07965719  0.22839077  0.25928366  1
  O  O343  1  0.07474681  0.23125087  0.58961464  1
  O  O344  1  0.07123279  0.22972431  0.92304141  1
  O  O345  1  0.07601253  0.73932196  0.25597597  1
  O  O346  1  0.07478538  0.73727602  0.58904434  1
  O  O347  1  0.07340039  0.73841446  0.92530486  1
  O  O348  1  0.41199730  0.22242226  0.25589886  1
  O  O349  1  0.41630940  0.24205300  0.58221787  1
  O  O350  1  0.40316170  0.23828814  0.93581968  1
  O  O351  1  0.42214384  0.72601604  0.25092260  1
  O  O352  1  0.42559736  0.73810631  0.57727977  1
  O  O353  1  0.41482162  0.73037115  0.92512454  1
  O  O354  1  0.74837155  0.22862542  0.24948343  1
  O  O355  1  0.75106890  0.23517900  0.57596462  1
  O  O356  1  0.74963512  0.23977676  0.91610934  1
  O  O357  1  0.75316228  0.72605425  0.24339889  1
  O  O358  1  0.75237487  0.72677926  0.57297859  1
  O  O359  1  0.75609390  0.73540547  0.90623657  1
