# generated using pymatgen
data_Ba17Sr5La8Pr42Mn72O216
_symmetry_space_group_name_H-M   'P 1'
_cell_length_a   16.67115053
_cell_length_b   15.70541257
_cell_length_c   16.81939183
_cell_angle_alpha   89.99956808
_cell_angle_beta   89.96638983
_cell_angle_gamma   89.99765506
_symmetry_Int_Tables_number   1
_chemical_formula_structural   Ba17Sr5La8Pr42Mn72O216
_chemical_formula_sum   'Ba17 Sr5 La8 Pr42 Mn72 O216'
_cell_volume   4403.77514120
_cell_formula_units_Z   1
loop_
 _symmetry_equiv_pos_site_id
 _symmetry_equiv_pos_as_xyz
  1  'x, y, z'
loop_
 _atom_site_type_symbol
 _atom_site_label
 _atom_site_symmetry_multiplicity
 _atom_site_fract_x
 _atom_site_fract_y
 _atom_site_fract_z
 _atom_site_occupancy
  Ba  Ba0  1  0.00058520  0.12362350  0.99966353  1
  Ba  Ba1  1  0.16447215  0.62575134  0.50018176  1
  Ba  Ba2  1  0.83405179  0.37489817  0.82929186  1
  Ba  Ba3  1  0.33046035  0.37458532  0.66839903  1
  Ba  Ba4  1  -0.00124907  0.12664172  0.33039354  1
  Ba  Ba5  1  0.33342821  0.12358677  0.33282680  1
  Ba  Ba6  1  0.49988747  0.12218854  0.83578053  1
  Ba  Ba7  1  0.50005285  0.12674700  0.17108437  1
  Ba  Ba8  1  0.66762067  0.37620083  0.00093823  1
  Ba  Ba9  1  0.66624124  0.12421328  0.33411460  1
  Ba  Ba10  1  0.49936872  0.87578521  0.83447917  1
  Ba  Ba11  1  0.00233660  0.62689756  0.99813900  1
  Ba  Ba12  1  0.00009740  0.87509225  0.00127296  1
  Ba  Ba13  1  0.49899454  0.62831512  0.83445888  1
  Ba  Ba14  1  0.83172469  0.87396027  0.16378455  1
  Ba  Ba15  1  0.33091172  0.62383135  0.66768068  1
  Ba  Ba16  1  0.50019922  0.37581228  0.16798525  1
  Sr  Sr17  1  0.16291903  0.37661888  0.83111658  1
  Sr  Sr18  1  -0.00144837  0.62377819  0.32860550  1
  Sr  Sr19  1  0.33294380  0.62465492  0.33334131  1
  Sr  Sr20  1  0.00147271  0.37584476  0.66772348  1
  Sr  Sr21  1  0.16708351  0.62071708  0.83380011  1
  La  La22  1  0.66698293  0.62555558  0.33474598  1
  La  La23  1  0.17098766  0.37449626  0.16876288  1
  La  La24  1  0.16756822  0.13005626  0.83493235  1
  La  La25  1  0.32756879  0.87220780  0.67128611  1
  La  La26  1  0.83655469  0.37525388  0.49655483  1
  La  La27  1  0.83243321  0.12297240  0.49892485  1
  La  La28  1  -0.00165561  0.62053328  0.66443420  1
  La  La29  1  0.50004804  0.87249430  0.50002492  1
  Pr  Pr30  1  0.33668201  0.37305032  0.33846254  1
  Pr  Pr31  1  0.83425705  0.62307337  0.83345640  1
  Pr  Pr32  1  0.16809494  0.87605428  0.16592503  1
  Pr  Pr33  1  0.49727180  0.87715768  0.16769395  1
  Pr  Pr34  1  0.16419131  0.12204497  0.17102359  1
  Pr  Pr35  1  0.67017057  0.62399124  0.99831183  1
  Pr  Pr36  1  0.33615080  0.12322097  0.66369689  1
  Pr  Pr37  1  0.00920808  0.37604748  0.33506130  1
  Pr  Pr38  1  0.33574834  0.87475630  0.33566928  1
  Pr  Pr39  1  0.49978460  0.62397599  0.50906653  1
  Pr  Pr40  1  0.66931742  0.87552056  0.67126726  1
  Pr  Pr41  1  0.16611297  0.12594820  0.50502120  1
  Pr  Pr42  1  0.83335660  0.62633187  0.50046721  1
  Pr  Pr43  1  0.66748218  0.12485391  0.66451135  1
  Pr  Pr44  1  0.66885803  0.12651811  1.00097939  1
  Pr  Pr45  1  0.17202301  0.87154351  0.49725312  1
  Pr  Pr46  1  0.66647437  0.62560913  0.66580755  1
  Pr  Pr47  1  0.50357468  0.12806344  0.50549081  1
  Pr  Pr48  1  0.49640010  0.37564122  0.83315982  1
  Pr  Pr49  1  0.33583233  0.12726617  1.00142636  1
  Pr  Pr50  1  0.83081479  0.62682189  0.16522198  1
  Pr  Pr51  1  0.00575991  0.87397204  0.33241027  1
  Pr  Pr52  1  0.66402202  0.37500784  0.67464136  1
  Pr  Pr53  1  0.82831546  0.12264153  0.16652769  1
  Pr  Pr54  1  0.33531390  0.37588500  -0.00160251  1
  Pr  Pr55  1  0.65991497  0.87455696  0.00268945  1
  Pr  Pr56  1  0.33380269  0.87441450  -0.00021822  1
  Pr  Pr57  1  0.16182282  0.87430244  0.83425462  1
  Pr  Pr58  1  0.66576406  0.37301312  0.33500674  1
  Pr  Pr59  1  0.17276618  0.37858127  0.49904249  1
  Pr  Pr60  1  -0.00231344  0.13118897  0.66301887  1
  Pr  Pr61  1  0.83912107  0.87474137  0.83209266  1
  Pr  Pr62  1  0.00569168  0.37720895  -0.00150934  1
  Pr  Pr63  1  0.49677362  0.37853753  0.49808872  1
  Pr  Pr64  1  0.83306825  0.12652547  0.83318794  1
  Pr  Pr65  1  0.83617611  0.87446765  0.49073020  1
  Pr  Pr66  1  0.00218432  0.87455341  0.66655649  1
  Pr  Pr67  1  0.83802847  0.37301971  0.15999580  1
  Pr  Pr68  1  0.66699985  0.87690029  0.33509353  1
  Pr  Pr69  1  0.50004439  0.62300750  0.16756060  1
  Pr  Pr70  1  0.33365151  0.62275032  0.99320082  1
  Pr  Pr71  1  0.16240821  0.62751367  0.17071858  1
  Mn  Mn72  1  0.00009463  0.00022330  0.16680232  1
  Mn  Mn73  1  0.00072963  0.00035735  0.49991968  1
  Mn  Mn74  1  0.00007583  0.00013424  0.82971118  1
  Mn  Mn75  1  0.00026911  0.49885889  0.16702730  1
  Mn  Mn76  1  -0.00138389  0.49886864  0.49778496  1
  Mn  Mn77  1  0.00074286  0.50004850  0.83134952  1
  Mn  Mn78  1  0.33206554  -0.00254448  0.16761873  1
  Mn  Mn79  1  0.33439679  0.00002311  0.50138968  1
  Mn  Mn80  1  0.32949321  0.00040986  0.83347073  1
  Mn  Mn81  1  0.33195045  0.50228132  0.16634192  1
  Mn  Mn82  1  0.33358444  0.50101468  0.49945693  1
  Mn  Mn83  1  0.33129608  0.49955684  0.83397457  1
  Mn  Mn84  1  0.66536274  -0.00218120  0.16727454  1
  Mn  Mn85  1  0.66692431  -0.00137018  0.50201646  1
  Mn  Mn86  1  0.66998574  -0.00049677  0.83418323  1
  Mn  Mn87  1  0.66879781  0.50250026  0.16846143  1
  Mn  Mn88  1  0.66907372  0.49885649  0.50194580  1
  Mn  Mn89  1  0.66561875  0.50114456  0.83310321  1
  Mn  Mn90  1  0.00055670  0.25197415  0.16541256  1
  Mn  Mn91  1  0.00042787  0.25116014  0.49822623  1
  Mn  Mn92  1  -0.00005645  0.24938233  0.83114165  1
  Mn  Mn93  1  0.00010847  0.74900521  0.16749913  1
  Mn  Mn94  1  -0.00119340  0.75103812  0.49893652  1
  Mn  Mn95  1  0.00080726  0.75081722  0.83006889  1
  Mn  Mn96  1  0.33188413  0.25190831  0.16753915  1
  Mn  Mn97  1  0.33359308  0.24838568  0.50159825  1
  Mn  Mn98  1  0.33202004  0.24893882  0.83371039  1
  Mn  Mn99  1  0.33277255  0.74808391  0.16647167  1
  Mn  Mn100  1  0.33514479  0.75054322  0.50041367  1
  Mn  Mn101  1  0.32954962  0.75108434  0.83508953  1
  Mn  Mn102  1  0.66893332  0.25125263  0.16768349  1
  Mn  Mn103  1  0.66810166  0.25247005  0.50283097  1
  Mn  Mn104  1  0.66568647  0.24894687  0.83319955  1
  Mn  Mn105  1  0.66396730  0.74772629  0.16770912  1
  Mn  Mn106  1  0.66784345  0.75029887  0.50081686  1
  Mn  Mn107  1  0.66995247  0.75078566  0.83388795  1
  Mn  Mn108  1  0.16877020  0.25114361  0.00123041  1
  Mn  Mn109  1  0.16767070  0.25055417  0.33412919  1
  Mn  Mn110  1  0.16486570  0.24903731  0.66838261  1
  Mn  Mn111  1  0.16912035  0.74995141  0.00081930  1
  Mn  Mn112  1  0.16776314  0.74935147  0.33253076  1
  Mn  Mn113  1  0.16324764  0.75087700  0.66639437  1
  Mn  Mn114  1  0.50016158  0.24868482  0.00056462  1
  Mn  Mn115  1  0.50082042  0.25259043  0.33697152  1
  Mn  Mn116  1  0.50047725  0.24997708  0.66861750  1
  Mn  Mn117  1  0.49821690  0.75070104  0.00480728  1
  Mn  Mn118  1  0.50046632  0.74682334  0.33395227  1
  Mn  Mn119  1  0.50118060  0.75153443  0.66652728  1
  Mn  Mn120  1  0.83572665  0.25031108  -0.00161331  1
  Mn  Mn121  1  0.83288603  0.25282742  0.32885195  1
  Mn  Mn122  1  0.83204191  0.24890888  0.66331293  1
  Mn  Mn123  1  0.83055538  0.74927304  -0.00243858  1
  Mn  Mn124  1  0.83420111  0.74873864  0.33207104  1
  Mn  Mn125  1  0.83382689  0.75238812  0.66357856  1
  Mn  Mn126  1  0.16987880  0.00152385  0.00042294  1
  Mn  Mn127  1  0.16711170  -0.00227172  0.33490639  1
  Mn  Mn128  1  0.16446277  0.00075835  0.66705928  1
  Mn  Mn129  1  0.16854424  0.49746731  0.00155019  1
  Mn  Mn130  1  0.16847401  0.50178641  0.33221878  1
  Mn  Mn131  1  0.16324770  0.49945458  0.66722911  1
  Mn  Mn132  1  0.49924365  -0.00046013  0.00333476  1
  Mn  Mn133  1  0.50076017  -0.00331247  0.33542669  1
  Mn  Mn134  1  0.50062377  -0.00031808  0.66601108  1
  Mn  Mn135  1  0.49932244  0.50115141  0.00105688  1
  Mn  Mn136  1  0.50001744  0.50309745  0.33569415  1
  Mn  Mn137  1  0.50087589  0.49903143  0.66739787  1
  Mn  Mn138  1  0.83056315  0.00094388  -0.00223728  1
  Mn  Mn139  1  0.83408901  -0.00092419  0.33139831  1
  Mn  Mn140  1  0.83410141  -0.00154221  0.66433743  1
  Mn  Mn141  1  0.83603652  0.49978335  -0.00127623  1
  Mn  Mn142  1  0.83320107  0.50016392  0.32998684  1
  Mn  Mn143  1  0.83162524  0.50141715  0.66336777  1
  O  O144  1  0.17486597  0.12702292  0.02937326  1
  O  O145  1  0.16503364  0.12124596  0.35905186  1
  O  O146  1  0.16404844  0.12041908  0.69095034  1
  O  O147  1  0.17580903  0.62116797  0.02730640  1
  O  O148  1  0.16009847  0.62506535  0.34403135  1
  O  O149  1  0.15638817  0.62905286  0.68068805  1
  O  O150  1  0.49366896  0.12197233  0.01413498  1
  O  O151  1  0.50099239  0.12732824  0.36050862  1
  O  O152  1  0.50080166  0.12452173  0.67920426  1
  O  O153  1  0.48786768  0.62895026  0.02331418  1
  O  O154  1  0.50458984  0.62634373  0.36573255  1
  O  O155  1  0.50598052  0.62514253  0.67561974  1
  O  O156  1  0.82477621  0.12534656  0.02124239  1
  O  O157  1  0.83331530  0.12369700  0.35583280  1
  O  O158  1  0.83108257  0.11986040  0.68929098  1
  O  O159  1  0.82606675  0.62414312  0.01939921  1
  O  O160  1  0.83187035  0.62382700  0.35897948  1
  O  O161  1  0.83285744  0.63108082  0.68935983  1
  O  O162  1  0.17610526  0.37804794  0.31532634  1
  O  O163  1  0.16162822  0.36969963  0.64359181  1
  O  O164  1  0.16873578  0.37247058  0.97950524  1
  O  O165  1  0.17536995  0.87350588  0.31173790  1
  O  O166  1  0.16199301  0.88109680  0.63965142  1
  O  O167  1  0.17632395  0.87888867  0.97721363  1
  O  O168  1  0.49914434  0.37863458  0.32554774  1
  O  O169  1  0.50890672  0.37314967  0.64292112  1
  O  O170  1  0.49709486  0.37358759  0.97910169  1
  O  O171  1  0.50234315  0.86565300  0.31029979  1
  O  O172  1  0.50681488  0.87716251  0.64500200  1
  O  O173  1  0.50737067  0.87440957  0.99091950  1
  O  O174  1  0.82262541  0.38034983  0.30389952  1
  O  O175  1  0.82494971  0.37503730  0.64139253  1
  O  O176  1  0.84096841  0.37632119  0.98695285  1
  O  O177  1  0.82576271  0.87344631  0.32115033  1
  O  O178  1  0.83345013  0.87575468  0.63331859  1
  O  O179  1  0.82436872  0.87509728  0.97698846  1
  O  O180  1  -0.01181281  0.37610163  0.19078727  1
  O  O181  1  -0.00794107  0.37398746  0.51838794  1
  O  O182  1  0.00048573  0.37137465  0.85312963  1
  O  O183  1  0.00226496  0.87437527  0.18532857  1
  O  O184  1  -0.00858692  0.87890462  0.52467700  1
  O  O185  1  -0.00219983  0.87688632  0.84472257  1
  O  O186  1  0.32616325  0.38156380  0.19543545  1
  O  O187  1  0.33256025  0.37370287  0.51078451  1
  O  O188  1  0.33588652  0.37380780  0.85329352  1
  O  O189  1  0.32946622  0.86917085  0.19424095  1
  O  O190  1  0.33216251  0.87881089  0.52519707  1
  O  O191  1  0.31973336  0.87765828  0.85454140  1
  O  O192  1  0.67529113  0.38117780  0.18912914  1
  O  O193  1  0.67502919  0.37666929  0.53158363  1
  O  O194  1  0.66232799  0.37527411  0.84308906  1
  O  O195  1  0.65913994  0.86851396  0.19128623  1
  O  O196  1  0.67315157  0.87396464  0.52779862  1
  O  O197  1  0.67650052  0.87559444  0.85913962  1
  O  O198  1  0.01371767  0.12811053  0.15677892  1
  O  O199  1  0.00472857  0.12455475  0.48434735  1
  O  O200  1  -0.00036334  0.12163610  0.80761047  1
  O  O201  1  0.01271404  0.62184190  0.15709867  1
  O  O202  1  -0.00736789  0.62309057  0.47842739  1
  O  O203  1  -0.00344409  0.62996673  0.80875085  1
  O  O204  1  0.32682596  0.12252844  0.14558286  1
  O  O205  1  0.33124873  0.12307982  0.48821979  1
  O  O206  1  0.32812329  0.12211545  0.80765371  1
  O  O207  1  0.33447175  0.62660143  0.13715851  1
  O  O208  1  0.34328477  0.62501014  0.48622072  1
  O  O209  1  0.33147122  0.62623055  0.82667102  1
  O  O210  1  0.67410998  0.12289581  0.14767494  1
  O  O211  1  0.66157955  0.12443904  0.48788315  1
  O  O212  1  0.67369046  0.12242300  0.80784802  1
  O  O213  1  0.67140067  0.62615929  0.14337628  1
  O  O214  1  0.66493187  0.62489896  0.47646831  1
  O  O215  1  0.67323642  0.62723001  0.80934541  1
  O  O216  1  0.08468698  0.00394773  0.25390392  1
  O  O217  1  0.08542207  0.02355600  0.58557912  1
  O  O218  1  0.09081947  0.01218232  0.90925296  1
  O  O219  1  0.08050610  0.50239531  0.25343750  1
  O  O220  1  0.07278380  0.51130970  0.58608560  1
  O  O221  1  0.08551534  0.50706083  0.92000063  1
  O  O222  1  0.41324233  -0.00009625  0.25145294  1
  O  O223  1  0.41931528  0.02042688  0.58010878  1
  O  O224  1  0.41103884  0.00684252  0.92522367  1
  O  O225  1  0.41651755  0.52285629  0.24544876  1
  O  O226  1  0.42599306  0.50789666  0.57687328  1
  O  O227  1  0.41493962  0.50828249  0.91900404  1
  O  O228  1  0.75241915  0.01146929  0.24450820  1
  O  O229  1  0.74803438  0.02147152  0.58587015  1
  O  O230  1  0.75189273  0.02673915  0.91316999  1
  O  O231  1  0.74759588  0.52875740  0.25427308  1
  O  O232  1  0.75062336  0.52899321  0.58057354  1
  O  O233  1  0.75037420  0.51954051  0.91544313  1
  O  O234  1  0.24111849  0.23403896  0.24260313  1
  O  O235  1  0.24828829  0.22716680  0.58596483  1
  O  O236  1  0.25258996  0.22774866  0.92123351  1
  O  O237  1  0.24832362  0.72826288  0.24337838  1
  O  O238  1  0.24753604  0.74836505  0.58467988  1
  O  O239  1  0.25166377  0.73164886  0.92264638  1
  O  O240  1  0.58659260  0.24993621  0.25870312  1
  O  O241  1  0.58665217  0.23101939  0.58836570  1
  O  O242  1  0.58803840  0.23270689  0.92100525  1
  O  O243  1  0.58417466  0.72043635  0.25311009  1
  O  O244  1  0.58608569  0.73186569  0.57885338  1
  O  O245  1  0.58918203  0.73641578  0.93268442  1
  O  O246  1  0.90800816  0.23497913  0.23381373  1
  O  O247  1  0.91277850  0.22854874  0.57673520  1
  O  O248  1  0.91258077  0.23082852  0.90778577  1
  O  O249  1  0.91298682  0.73111197  0.24769665  1
  O  O250  1  0.91038072  0.72892601  0.57728754  1
  O  O251  1  0.90967154  0.73941908  0.90242456  1
  O  O252  1  0.08665577  0.47570497  0.08718120  1
  O  O253  1  0.08722579  0.47585363  0.42045988  1
  O  O254  1  0.08051515  0.48828165  0.74957995  1
  O  O255  1  0.09301080  0.98662076  0.08906683  1
  O  O256  1  0.08670279  0.97144756  0.41862859  1
  O  O257  1  0.08257968  0.97772568  0.74460189  1
  O  O258  1  0.40945449  0.48386118  0.07879311  1
  O  O259  1  0.41589039  0.48182770  0.41655186  1
  O  O260  1  0.42022426  0.48403222  0.75402937  1
  O  O261  1  0.41452163  0.97685080  0.08645349  1
  O  O262  1  0.41941307  0.97481445  0.41763303  1
  O  O263  1  0.40751213  0.98603965  0.74165088  1
  O  O264  1  0.76136671  0.48981020  0.09134147  1
  O  O265  1  0.75172097  0.47925736  0.41833649  1
  O  O266  1  0.74196846  0.49074908  0.73991673  1
  O  O267  1  0.73839364  0.98580817  0.07316160  1
  O  O268  1  0.75095764  0.98118607  0.42030044  1
  O  O269  1  0.75604631  0.97429388  0.74861714  1
  O  O270  1  0.25231565  0.27424937  0.08234804  1
  O  O271  1  0.25147284  0.26768324  0.41751468  1
  O  O272  1  0.24345284  0.25743694  0.75422148  1
  O  O273  1  0.25299274  0.77435079  0.08438404  1
  O  O274  1  0.25328764  0.76880945  0.41535406  1
  O  O275  1  0.24268374  0.77130070  0.75052434  1
  O  O276  1  0.58936707  0.25354434  0.08481509  1
  O  O277  1  0.58440038  0.27506497  0.42601076  1
  O  O278  1  0.58000551  0.26939967  0.75247042  1
  O  O279  1  0.57355101  0.76284985  0.09570624  1
  O  O280  1  0.58851489  0.77402996  0.41703326  1
  O  O281  1  0.59271805  0.76538084  0.74579782  1
  O  O282  1  0.92564525  0.26860296  0.07593724  1
  O  O283  1  0.91732402  0.27379572  0.40600976  1
  O  O284  1  0.91612742  0.25560722  0.73957893  1
  O  O285  1  0.91147288  0.75181177  0.08202306  1
  O  O286  1  0.92026709  0.77259684  0.41267849  1
  O  O287  1  0.91928750  0.77318365  0.73942007  1
  O  O288  1  0.25076254  0.47488213  0.08435690  1
  O  O289  1  0.25348420  0.48428148  0.41296514  1
  O  O290  1  0.24639421  0.49213198  0.75512286  1
  O  O291  1  0.25391850  0.97578963  0.08246929  1
  O  O292  1  0.25147606  0.97676228  0.41791300  1
  O  O293  1  0.24140057  0.97752650  0.74888219  1
  O  O294  1  0.58266381  0.50056718  0.08685185  1
  O  O295  1  0.58760532  0.47624795  0.42346616  1
  O  O296  1  0.57995355  0.48047201  0.75169371  1
  O  O297  1  0.57943119  0.98047443  0.09060134  1
  O  O298  1  0.58601799  0.97326748  0.42084638  1
  O  O299  1  0.59236286  0.98595730  0.74574238  1
  O  O300  1  0.92449328  0.48257560  0.07747488  1
  O  O301  1  0.91954245  0.47610131  0.40706994  1
  O  O302  1  0.91586988  0.49374667  0.73960375  1
  O  O303  1  0.91136317  0.99731323  0.08131302  1
  O  O304  1  0.91778820  0.97883224  0.41330417  1
  O  O305  1  0.91729476  0.97775074  0.74183487  1
  O  O306  1  0.08611227  0.27505064  0.08521028  1
  O  O307  1  0.08790137  0.27426154  0.42021386  1
  O  O308  1  0.08005782  0.25892500  0.74698093  1
  O  O309  1  0.09292686  0.76308547  0.08915487  1
  O  O310  1  0.08524029  0.77613984  0.42039672  1
  O  O311  1  0.08288318  0.77473887  0.74833797  1
  O  O312  1  0.41056884  0.26323115  0.08009893  1
  O  O313  1  0.42049447  0.26857164  0.42186332  1
  O  O314  1  0.42018027  0.26450821  0.75374717  1
  O  O315  1  0.41421644  0.77652754  0.08648615  1
  O  O316  1  0.41762356  0.77303042  0.41433088  1
  O  O317  1  0.40891053  0.76713988  0.74630604  1
  O  O318  1  0.76030510  0.26253648  0.08900367  1
  O  O319  1  0.74972439  0.27333435  0.41797244  1
  O  O320  1  0.74171798  0.25963490  0.73954148  1
  O  O321  1  0.73598079  0.76291794  0.07562512  1
  O  O322  1  0.75160063  0.76664060  0.42050262  1
  O  O323  1  0.75741608  0.77686665  0.74690371  1
  O  O324  1  0.24196646  0.01276129  0.24293813  1
  O  O325  1  0.24829485  0.02153832  0.58914240  1
  O  O326  1  0.25064686  0.02872354  0.91916641  1
  O  O327  1  0.24549819  0.52371881  0.24265383  1
  O  O328  1  0.24584670  0.50373452  0.57835261  1
  O  O329  1  0.25510338  0.51208332  0.92483569  1
  O  O330  1  0.58422694  0.00243589  0.25503090  1
  O  O331  1  0.58319962  0.01801874  0.58150841  1
  O  O332  1  0.59180952  0.01188078  0.92801042  1
  O  O333  1  0.58425154  0.52194707  0.25460391  1
  O  O334  1  0.58902493  0.51910768  0.58548366  1
  O  O335  1  0.58726783  0.51865350  0.92219718  1
  O  O336  1  0.91232973  0.01351669  0.24568399  1
  O  O337  1  0.91423943  0.02544470  0.58184651  1
  O  O338  1  0.90936596  0.01259628  0.90533961  1
  O  O339  1  0.90792549  0.52038040  0.24003260  1
  O  O340  1  0.90894448  0.51853427  0.57417478  1
  O  O341  1  0.91262419  0.51737079  0.90861326  1
  O  O342  1  0.08213398  0.25017934  0.25114051  1
  O  O343  1  0.08504648  0.22737918  0.58498295  1
  O  O344  1  0.08934252  0.23467902  0.91481075  1
  O  O345  1  0.08242860  0.74443683  0.25430365  1
  O  O346  1  0.07291234  0.74148602  0.58881066  1
  O  O347  1  0.08856219  0.74361252  0.91210119  1
  O  O348  1  0.41125235  0.24742139  0.25534860  1
  O  O349  1  0.41832499  0.23036666  0.58436571  1
  O  O350  1  0.41141881  0.23750107  0.92071771  1
  O  O351  1  0.41859903  0.72746701  0.24632687  1
  O  O352  1  0.42426211  0.74222261  0.57537395  1
  O  O353  1  0.41245425  0.74538171  0.92613678  1
  O  O354  1  0.75192415  0.23393065  0.24807084  1
  O  O355  1  0.75225064  0.22418289  0.57953876  1
  O  O356  1  0.75000613  0.22990694  0.91510001  1
  O  O357  1  0.74887765  0.72850288  0.24943430  1
  O  O358  1  0.74774340  0.72642027  0.58502353  1
  O  O359  1  0.75162129  0.72437844  0.91325882  1
