# generated using pymatgen
data_Ba17Sr5La8Pr42Mn72O216
_symmetry_space_group_name_H-M   'P 1'
_cell_length_a   16.66817124
_cell_length_b   15.70478504
_cell_length_c   16.81625429
_cell_angle_alpha   89.99681163
_cell_angle_beta   89.98506956
_cell_angle_gamma   90.01518928
_symmetry_Int_Tables_number   1
_chemical_formula_structural   Ba17Sr5La8Pr42Mn72O216
_chemical_formula_sum   'Ba17 Sr5 La8 Pr42 Mn72 O216'
_cell_volume   4401.99135622
_cell_formula_units_Z   1
loop_
 _symmetry_equiv_pos_site_id
 _symmetry_equiv_pos_as_xyz
  1  'x, y, z'
loop_
 _atom_site_type_symbol
 _atom_site_label
 _atom_site_symmetry_multiplicity
 _atom_site_fract_x
 _atom_site_fract_y
 _atom_site_fract_z
 _atom_site_occupancy
  Ba  Ba0  1  -0.00184596  0.62346683  1.00033916  1
  Ba  Ba1  1  0.83400887  0.12483711  0.16956115  1
  Ba  Ba2  1  0.49785585  0.12507897  0.50078035  1
  Ba  Ba3  1  0.66595319  0.87368607  0.00446875  1
  Ba  Ba4  1  0.00150565  0.12644853  0.33197607  1
  Ba  Ba5  1  0.66510910  0.37705459  0.00238088  1
  Ba  Ba6  1  0.00271240  0.87267470  0.66628892  1
  Ba  Ba7  1  0.16828908  0.12460303  0.16398483  1
  Ba  Ba8  1  -0.00108702  0.12459337  1.00089854  1
  Ba  Ba9  1  0.49857644  0.12713742  0.83480372  1
  Ba  Ba10  1  0.33276607  0.12590899  0.66410011  1
  Ba  Ba11  1  0.83382010  0.12742645  0.50278863  1
  Ba  Ba12  1  0.83239097  0.87407627  0.16788852  1
  Ba  Ba13  1  0.83548574  0.12612142  0.83498964  1
  Ba  Ba14  1  0.33302296  0.12488663  0.99655387  1
  Ba  Ba15  1  0.00074780  0.87198561  0.00056466  1
  Ba  Ba16  1  0.82796303  0.62283431  0.50279515  1
  Sr  Sr17  1  0.83480810  0.37653467  0.49860457  1
  Sr  Sr18  1  0.32867642  0.62316765  0.65973648  1
  Sr  Sr19  1  0.50240777  0.37417905  0.83320612  1
  Sr  Sr20  1  0.66116680  0.62437002  0.33593317  1
  Sr  Sr21  1  0.49777424  0.62465037  0.16822674  1
  La  La22  1  0.49811103  0.38067612  0.16363056  1
  La  La23  1  0.66197558  0.12734127  0.66730712  1
  La  La24  1  -0.00062575  0.37716680  0.66403417  1
  La  La25  1  0.66942738  0.12360952  1.00049051  1
  La  La26  1  0.33483414  0.87511169  -0.00344180  1
  La  La27  1  0.83453971  0.37652555  0.16769156  1
  La  La28  1  0.33669318  0.12416198  0.32689512  1
  La  La29  1  0.66686513  0.37654581  0.33843518  1
  Pr  Pr30  1  0.34021234  0.87478828  0.33119839  1
  Pr  Pr31  1  0.16927447  0.87432885  0.82968670  1
  Pr  Pr32  1  0.82975116  0.62654047  0.83575267  1
  Pr  Pr33  1  -0.00683521  0.62441412  0.66335013  1
  Pr  Pr34  1  0.49882717  0.87111730  0.16400726  1
  Pr  Pr35  1  0.50035574  0.37378828  0.50054582  1
  Pr  Pr36  1  0.84231255  0.87393968  0.49669291  1
  Pr  Pr37  1  0.32962295  0.62613680  0.32600229  1
  Pr  Pr38  1  0.16512274  0.12216335  0.83798469  1
  Pr  Pr39  1  -0.01119064  0.62051914  0.32719175  1
  Pr  Pr40  1  0.00725161  0.37122136  0.33461935  1
  Pr  Pr41  1  -0.00060537  0.37232949  0.00013413  1
  Pr  Pr42  1  0.50396595  0.87665850  0.49943653  1
  Pr  Pr43  1  0.33660484  0.37364369  -0.00263587  1
  Pr  Pr44  1  -0.00187756  0.12509839  0.66231160  1
  Pr  Pr45  1  0.66665457  0.62658748  1.00310106  1
  Pr  Pr46  1  0.16678470  0.87643414  0.16311375  1
  Pr  Pr47  1  0.49479557  0.62477645  0.50207266  1
  Pr  Pr48  1  0.15825947  0.62579553  0.16680495  1
  Pr  Pr49  1  0.50447729  0.12628495  0.17031575  1
  Pr  Pr50  1  0.67185627  0.12606976  0.33481676  1
  Pr  Pr51  1  0.33714206  0.37558304  0.33074896  1
  Pr  Pr52  1  0.16681752  0.37415550  0.16053806  1
  Pr  Pr53  1  0.67177124  0.87595936  0.67315497  1
  Pr  Pr54  1  0.17313442  0.37709135  0.49561734  1
  Pr  Pr55  1  0.33782394  0.37493273  0.66729669  1
  Pr  Pr56  1  0.83685365  0.37594685  0.83401842  1
  Pr  Pr57  1  0.67115675  0.87372621  0.33817221  1
  Pr  Pr58  1  0.84247173  0.87624723  0.83662461  1
  Pr  Pr59  1  0.16423066  0.62722389  0.83134524  1
  Pr  Pr60  1  0.67119981  0.37363751  0.67248694  1
  Pr  Pr61  1  0.49783416  0.62335867  0.83660352  1
  Pr  Pr62  1  0.16825681  0.37603589  0.82905480  1
  Pr  Pr63  1  0.82292928  0.62786856  0.17106391  1
  Pr  Pr64  1  0.50295725  0.87780243  0.83157560  1
  Pr  Pr65  1  0.65583757  0.62276182  0.66411226  1
  Pr  Pr66  1  0.00748862  0.87897161  0.33498969  1
  Pr  Pr67  1  0.17328250  0.87269267  0.49712427  1
  Pr  Pr68  1  0.15713086  0.62405866  0.49962999  1
  Pr  Pr69  1  0.33728317  0.87420329  0.66614425  1
  Pr  Pr70  1  0.33344276  0.62398307  0.99431194  1
  Pr  Pr71  1  0.16430589  0.12534760  0.50066034  1
  Mn  Mn72  1  0.00144294  -0.00158770  0.16863168  1
  Mn  Mn73  1  0.00280436  -0.00095839  0.50129942  1
  Mn  Mn74  1  0.00190960  -0.00113582  0.83162384  1
  Mn  Mn75  1  -0.00053677  0.49917470  0.16604606  1
  Mn  Mn76  1  0.00060421  0.49926322  0.49727184  1
  Mn  Mn77  1  0.00109831  0.50066519  0.83145071  1
  Mn  Mn78  1  0.33634667  -0.00219031  0.16501556  1
  Mn  Mn79  1  0.33234814  -0.00291910  0.49728857  1
  Mn  Mn80  1  0.33305732  -0.00283592  0.83072341  1
  Mn  Mn81  1  0.33000971  0.50184704  0.16362515  1
  Mn  Mn82  1  0.33311390  0.50146195  0.49639706  1
  Mn  Mn83  1  0.33376476  0.50195768  0.82887208  1
  Mn  Mn84  1  0.66413272  0.00058010  0.17069192  1
  Mn  Mn85  1  0.66750696  -0.00157290  0.50469898  1
  Mn  Mn86  1  0.66771583  -0.00157787  0.83593246  1
  Mn  Mn87  1  0.66384439  0.50109757  0.17157146  1
  Mn  Mn88  1  0.66325161  0.50007264  0.50294031  1
  Mn  Mn89  1  0.66748561  0.50165687  0.83387760  1
  Mn  Mn90  1  0.00111577  0.25338816  0.16800701  1
  Mn  Mn91  1  0.00252062  0.25267027  0.50073516  1
  Mn  Mn92  1  0.00232512  0.25424582  0.83124110  1
  Mn  Mn93  1  -0.00017919  0.74766537  0.16952335  1
  Mn  Mn94  1  0.00132072  0.74830011  0.49799952  1
  Mn  Mn95  1  0.00110994  0.74785496  0.83159282  1
  Mn  Mn96  1  0.33530786  0.25188587  0.16532156  1
  Mn  Mn97  1  0.33216335  0.25263510  0.49727270  1
  Mn  Mn98  1  0.33264026  0.25341637  0.83146179  1
  Mn  Mn99  1  0.33107722  0.74883435  0.16347513  1
  Mn  Mn100  1  0.33347997  0.74827632  0.49675679  1
  Mn  Mn101  1  0.33455996  0.74669194  0.82866865  1
  Mn  Mn102  1  0.66534515  0.25200126  0.17110067  1
  Mn  Mn103  1  0.66623371  0.25205742  0.50318509  1
  Mn  Mn104  1  0.66750206  0.25167781  0.83604005  1
  Mn  Mn105  1  0.66167020  0.74782274  0.17148005  1
  Mn  Mn106  1  0.66445836  0.74977852  0.50453736  1
  Mn  Mn107  1  0.66664978  0.74916514  0.83391258  1
  Mn  Mn108  1  0.16673164  0.25265306  -0.00487302  1
  Mn  Mn109  1  0.17194611  0.25223937  0.33171031  1
  Mn  Mn110  1  0.16616101  0.25229027  0.66469774  1
  Mn  Mn111  1  0.16915718  0.74770607  -0.00118707  1
  Mn  Mn112  1  0.16774535  0.74725358  0.33194568  1
  Mn  Mn113  1  0.16816712  0.74692769  0.66317834  1
  Mn  Mn114  1  0.49968982  0.25205783  0.00208270  1
  Mn  Mn115  1  0.50048234  0.25147796  0.33300517  1
  Mn  Mn116  1  0.50062739  0.25217955  0.66669816  1
  Mn  Mn117  1  0.49869448  0.74708815  -0.00041092  1
  Mn  Mn118  1  0.50004720  0.74951597  0.33437360  1
  Mn  Mn119  1  0.49852236  0.74915460  0.66703084  1
  Mn  Mn120  1  0.83237524  0.25276306  0.00125438  1
  Mn  Mn121  1  0.83288505  0.25399857  0.33553927  1
  Mn  Mn122  1  0.83431160  0.25249620  0.66836093  1
  Mn  Mn123  1  0.83229275  0.74718233  0.00244789  1
  Mn  Mn124  1  0.83215528  0.74917493  0.33556065  1
  Mn  Mn125  1  0.83083143  0.75019560  0.66894500  1
  Mn  Mn126  1  0.16701321  -0.00232662  -0.00267296  1
  Mn  Mn127  1  0.17128497  -0.00235100  0.33272687  1
  Mn  Mn128  1  0.16797567  0.00022352  0.66533622  1
  Mn  Mn129  1  0.16835099  0.50140120  -0.00326181  1
  Mn  Mn130  1  0.16873935  0.50147859  0.33105062  1
  Mn  Mn131  1  0.16646017  0.50075542  0.66257701  1
  Mn  Mn132  1  0.49957228  -0.00128376  0.00163277  1
  Mn  Mn133  1  0.50247077  -0.00141518  0.33280653  1
  Mn  Mn134  1  0.50076361  -0.00193453  0.66559977  1
  Mn  Mn135  1  0.49896126  0.50219874  0.00010227  1
  Mn  Mn136  1  0.49812584  0.50066026  0.33394933  1
  Mn  Mn137  1  0.49845290  0.50040912  0.66737412  1
  Mn  Mn138  1  0.83326927  -0.00030448  0.00148735  1
  Mn  Mn139  1  0.83423723  -0.00245400  0.33623208  1
  Mn  Mn140  1  0.83366004  -0.00075165  0.66792983  1
  Mn  Mn141  1  0.83240990  0.50037799  0.00127766  1
  Mn  Mn142  1  0.83019328  0.49967062  0.33363653  1
  Mn  Mn143  1  0.83207221  0.49916945  0.66914257  1
  O  O144  1  0.16797873  0.12589730  0.00370184  1
  O  O145  1  0.17870258  0.12737835  0.35597984  1
  O  O146  1  0.16290296  0.13155783  0.69234164  1
  O  O147  1  0.17721195  0.62351550  0.02404570  1
  O  O148  1  0.17798985  0.62511161  0.35860361  1
  O  O149  1  0.16914051  0.62298568  0.68812118  1
  O  O150  1  0.50069188  0.12844251  0.02468510  1
  O  O151  1  0.49065066  0.12454046  0.34635472  1
  O  O152  1  0.50332109  0.12485976  0.67706904  1
  O  O153  1  0.49168308  0.62486425  0.01898973  1
  O  O154  1  0.48999219  0.62554655  0.35976251  1
  O  O155  1  0.50128039  0.62550193  0.69315575  1
  O  O156  1  0.82859033  0.12966167  0.01063915  1
  O  O157  1  0.82836611  0.12289321  0.34544292  1
  O  O158  1  0.84255779  0.12754178  0.67839758  1
  O  O159  1  0.82832506  0.62131046  0.02476890  1
  O  O160  1  0.83908286  0.62383399  0.34727551  1
  O  O161  1  0.83835335  0.62330298  0.69111577  1
  O  O162  1  0.17016136  0.38080654  0.30593302  1
  O  O163  1  0.16561787  0.37806714  0.63680529  1
  O  O164  1  0.16375165  0.38012686  0.97349233  1
  O  O165  1  0.16227540  0.86531505  0.30748101  1
  O  O166  1  0.17283054  0.86893690  0.64023276  1
  O  O167  1  0.17267004  0.86927705  0.97492061  1
  O  O168  1  0.49833217  0.37597587  0.30772819  1
  O  O169  1  0.50221678  0.37882573  0.64491289  1
  O  O170  1  0.49541804  0.38064535  0.98437439  1
  O  O171  1  0.50176809  0.87353764  0.30768696  1
  O  O172  1  0.50304922  0.87049217  0.64361178  1
  O  O173  1  0.49805525  0.86684720  0.97537638  1
  O  O174  1  0.82058516  0.38014450  0.31325081  1
  O  O175  1  0.82671335  0.37705249  0.64843398  1
  O  O176  1  0.83433051  0.37921253  0.97840036  1
  O  O177  1  0.82436113  0.87199803  0.32615019  1
  O  O178  1  0.82468040  0.87296021  0.64134789  1
  O  O179  1  0.83111697  0.86904848  0.98303280  1
  O  O180  1  0.00813461  0.38001238  0.18928722  1
  O  O181  1  0.01176229  0.37785332  0.51990060  1
  O  O182  1  0.00626818  0.38089568  0.85675511  1
  O  O183  1  0.01031165  0.86683027  0.19015649  1
  O  O184  1  0.00580879  0.87260929  0.50996916  1
  O  O185  1  0.00229072  0.86866886  0.84179343  1
  O  O186  1  0.32939631  0.38028184  0.18846802  1
  O  O187  1  0.32655351  0.38118324  0.52339269  1
  O  O188  1  0.32523933  0.38187643  0.85348897  1
  O  O189  1  0.33131363  0.87158127  0.18853106  1
  O  O190  1  0.32465659  0.86900113  0.52270720  1
  O  O191  1  0.32607496  0.86759453  0.85206882  1
  O  O192  1  0.66166696  0.37729548  0.19273256  1
  O  O193  1  0.65695456  0.37816009  0.52705247  1
  O  O194  1  0.67008860  0.37939751  0.84580786  1
  O  O195  1  0.65421887  0.87325331  0.19226360  1
  O  O196  1  0.65832445  0.87130769  0.52927389  1
  O  O197  1  0.65491131  0.87230312  0.84897233  1
  O  O198  1  0.00092957  0.13235783  0.16094708  1
  O  O199  1  0.00660244  0.12578988  0.48881911  1
  O  O200  1  0.00819310  0.13014667  0.80703151  1
  O  O201  1  0.00523872  0.62136711  0.15697652  1
  O  O202  1  0.00449982  0.62292909  0.47152171  1
  O  O203  1  0.00077639  0.62265718  0.80687037  1
  O  O204  1  0.34382913  0.12148773  0.15488775  1
  O  O205  1  0.32695561  0.12456903  0.47229078  1
  O  O206  1  0.32435709  0.12496712  0.82077788  1
  O  O207  1  0.32870798  0.62523484  0.13863372  1
  O  O208  1  0.34148985  0.62491742  0.46911537  1
  O  O209  1  0.34221826  0.62464216  0.80595330  1
  O  O210  1  0.65862942  0.12902338  0.14773972  1
  O  O211  1  0.66610522  0.12540217  0.47889374  1
  O  O212  1  0.66782728  0.12220323  0.81215907  1
  O  O213  1  0.66851490  0.62293266  0.14931866  1
  O  O214  1  0.65761522  0.62522765  0.48466041  1
  O  O215  1  0.67322030  0.62656509  0.80559182  1
  O  O216  1  0.08918807  0.00261806  0.25278780  1
  O  O217  1  0.08185225  0.02121498  0.58813042  1
  O  O218  1  0.08541286  0.00979747  0.91167606  1
  O  O219  1  0.07918239  0.52004748  0.25853106  1
  O  O220  1  0.07894792  0.52499286  0.58665213  1
  O  O221  1  0.08973980  0.52006291  0.90927856  1
  O  O222  1  0.42394579  0.00937593  0.24418116  1
  O  O223  1  0.41330024  -0.00171639  0.58152026  1
  O  O224  1  0.41533557  -0.00180480  0.91282508  1
  O  O225  1  0.40681510  0.51636933  0.25364857  1
  O  O226  1  0.41290073  0.51748676  0.58072256  1
  O  O227  1  0.41525646  0.52033335  0.91481471  1
  O  O228  1  0.74143211  0.00854758  0.26234352  1
  O  O229  1  0.74251706  0.01499410  0.59716479  1
  O  O230  1  0.74616981  0.00984647  0.91992866  1
  O  O231  1  0.74576125  0.52046850  0.25470861  1
  O  O232  1  0.73687902  0.51347316  0.59790755  1
  O  O233  1  0.74497671  0.52554139  0.92164900  1
  O  O234  1  0.26094553  0.23807434  0.25513287  1
  O  O235  1  0.24039826  0.23613962  0.57300422  1
  O  O236  1  0.24492361  0.24478338  0.90682647  1
  O  O237  1  0.23975170  0.72666565  0.24227356  1
  O  O238  1  0.24089851  0.72789130  0.56722875  1
  O  O239  1  0.25277116  0.72344405  0.90882376  1
  O  O240  1  0.58585055  0.22800809  0.25811237  1
  O  O241  1  0.58530623  0.23854955  0.58715279  1
  O  O242  1  0.58582295  0.23647152  0.92646234  1
  O  O243  1  0.57728506  0.72978197  0.25262625  1
  O  O244  1  0.57412432  0.72607319  0.58053220  1
  O  O245  1  0.58268769  0.72187272  0.91515714  1
  O  O246  1  0.91769843  0.25828185  0.25146320  1
  O  O247  1  0.92320577  0.24580445  0.59118247  1
  O  O248  1  0.92129200  0.25229204  0.91645210  1
  O  O249  1  0.91401448  0.72959505  0.24765617  1
  O  O250  1  0.91369905  0.73622547  0.58471114  1
  O  O251  1  0.90889281  0.73508528  0.90953377  1
  O  O252  1  0.08733568  0.48254025  0.08593271  1
  O  O253  1  0.09509921  0.48130327  0.41817040  1
  O  O254  1  0.08673707  0.48082086  0.74710281  1
  O  O255  1  0.09052925  0.98391357  0.08704911  1
  O  O256  1  0.09105567  0.98160054  0.42025734  1
  O  O257  1  0.09543540  0.98566421  0.75568473  1
  O  O258  1  0.41155067  0.48144876  0.08213442  1
  O  O259  1  0.41942797  0.47363659  0.41959915  1
  O  O260  1  0.41761961  0.47808234  0.74825239  1
  O  O261  1  0.41493008  0.97234699  0.08090161  1
  O  O262  1  0.41889457  0.97536283  0.41338099  1
  O  O263  1  0.41887319  0.97578877  0.74922202  1
  O  O264  1  0.75636580  0.48762546  0.09510455  1
  O  O265  1  0.74702119  0.48360008  0.42218396  1
  O  O266  1  0.75852530  0.48294869  0.75922079  1
  O  O267  1  0.74320723  0.99643373  0.08762631  1
  O  O268  1  0.75277904  0.97652498  0.42762734  1
  O  O269  1  0.75362375  0.97540106  0.75598046  1
  O  O270  1  0.24873799  0.27251713  0.08044135  1
  O  O271  1  0.25316848  0.27823888  0.41266170  1
  O  O272  1  0.25066323  0.27744450  0.74235166  1
  O  O273  1  0.25388990  0.77284834  0.07855519  1
  O  O274  1  0.25883515  0.76953812  0.40048870  1
  O  O275  1  0.25588589  0.76703866  0.74194170  1
  O  O276  1  0.57354337  0.26663972  0.09774566  1
  O  O277  1  0.58053148  0.27277840  0.41768999  1
  O  O278  1  0.58807127  0.26538634  0.74765300  1
  O  O279  1  0.57642258  0.75879397  0.08959698  1
  O  O280  1  0.58717384  0.77217108  0.41805986  1
  O  O281  1  0.58563100  0.76591211  0.74634396  1
  O  O282  1  0.91682876  0.27512357  0.08352883  1
  O  O283  1  0.92236025  0.27227798  0.41567332  1
  O  O284  1  0.91900329  0.27703682  0.75168015  1
  O  O285  1  0.91690772  0.75265205  0.08576887  1
  O  O286  1  0.92360065  0.76945006  0.41119342  1
  O  O287  1  0.91309337  0.76150731  0.75102126  1
  O  O288  1  0.25120633  0.47524744  0.07737598  1
  O  O289  1  0.25837218  0.47973589  0.40510500  1
  O  O290  1  0.25138178  0.47975814  0.74170103  1
  O  O291  1  0.25187186  0.97916714  0.08128721  1
  O  O292  1  0.25372544  0.97091218  0.41230667  1
  O  O293  1  0.25564821  0.97611617  0.74181970  1
  O  O294  1  0.57895449  0.49203905  0.08898711  1
  O  O295  1  0.58155033  0.47941171  0.41904836  1
  O  O296  1  0.59148523  0.48792057  0.74447066  1
  O  O297  1  0.57234995  0.98717243  0.09793020  1
  O  O298  1  0.58619869  0.97659406  0.41605196  1
  O  O299  1  0.58494478  0.98127969  0.75058533  1
  O  O300  1  0.92195337  0.47625527  0.07798582  1
  O  O301  1  0.92505234  0.48031670  0.40521996  1
  O  O302  1  0.92056805  0.47705785  0.74758530  1
  O  O303  1  0.91827544  0.99294892  0.08583830  1
  O  O304  1  0.92050283  0.97895558  0.41754685  1
  O  O305  1  0.91631959  0.98550786  0.75057051  1
  O  O306  1  0.08258639  0.27361110  0.07924723  1
  O  O307  1  0.09081851  0.27078513  0.41678650  1
  O  O308  1  0.08459271  0.27962358  0.74579856  1
  O  O309  1  0.09331849  0.75802782  0.09772813  1
  O  O310  1  0.09810445  0.76536313  0.42113467  1
  O  O311  1  0.09492206  0.75845321  0.75487188  1
  O  O312  1  0.41313990  0.27544016  0.08224763  1
  O  O313  1  0.41633920  0.27414015  0.41277667  1
  O  O314  1  0.41516368  0.27037277  0.74738291  1
  O  O315  1  0.41464012  0.77023130  0.08193536  1
  O  O316  1  0.42239548  0.77620619  0.42116803  1
  O  O317  1  0.42134721  0.77621190  0.75215655  1
  O  O318  1  0.75145105  0.26716823  0.09424115  1
  O  O319  1  0.74669076  0.26887254  0.42067878  1
  O  O320  1  0.75466151  0.26992887  0.75373299  1
  O  O321  1  0.74646769  0.75081050  0.08768191  1
  O  O322  1  0.75210499  0.76937268  0.42971449  1
  O  O323  1  0.75412909  0.77448859  0.75916171  1
  O  O324  1  0.26131320  0.00863709  0.25487366  1
  O  O325  1  0.23952983  0.01553732  0.57237282  1
  O  O326  1  0.24377275  0.00528989  0.90588508  1
  O  O327  1  0.24291618  0.52469305  0.24165213  1
  O  O328  1  0.24120658  0.51980639  0.56832728  1
  O  O329  1  0.25181365  0.52545037  0.91015758  1
  O  O330  1  0.58576917  0.02639919  0.25680703  1
  O  O331  1  0.58494810  0.01232498  0.58645940  1
  O  O332  1  0.58550482  0.01599294  0.92539573  1
  O  O333  1  0.57740351  0.51545649  0.25364587  1
  O  O334  1  0.57383505  0.52303164  0.58050212  1
  O  O335  1  0.58231458  0.52488671  0.91454901  1
  O  O336  1  0.92083345  -0.00400236  0.25758734  1
  O  O337  1  0.91818077  0.00736530  0.58417802  1
  O  O338  1  0.91625618  0.00032399  0.91229230  1
  O  O339  1  0.90862457  0.51388155  0.24084206  1
  O  O340  1  0.91680920  0.51125831  0.58819004  1
  O  O341  1  0.90785741  0.51452251  0.90630611  1
  O  O342  1  0.09033856  0.24901267  0.24998932  1
  O  O343  1  0.08282855  0.22893729  0.58625237  1
  O  O344  1  0.08823828  0.23926972  0.90659215  1
  O  O345  1  0.07858189  0.72317760  0.26389987  1
  O  O346  1  0.07836344  0.72394114  0.58655873  1
  O  O347  1  0.08840698  0.73172769  0.91353690  1
  O  O348  1  0.42335604  0.23773428  0.24622964  1
  O  O349  1  0.41406036  0.25156572  0.58055826  1
  O  O350  1  0.41362497  0.25052582  0.91731989  1
  O  O351  1  0.40556247  0.73509832  0.25385436  1
  O  O352  1  0.41325833  0.73221525  0.58535162  1
  O  O353  1  0.41535822  0.72802350  0.91390134  1
  O  O354  1  0.74228000  0.23872195  0.25858519  1
  O  O355  1  0.74364418  0.23863965  0.59420377  1
  O  O356  1  0.74651164  0.23913036  0.92350106  1
  O  O357  1  0.74486954  0.73498331  0.25611653  1
  O  O358  1  0.73607722  0.73339481  0.59959042  1
  O  O359  1  0.74659811  0.72558335  0.91976714  1
