# generated using pymatgen
data_Ba17Sr5La8Pr42Mn72O216
_symmetry_space_group_name_H-M   'P 1'
_cell_length_a   16.67774146
_cell_length_b   15.70113100
_cell_length_c   16.82369401
_cell_angle_alpha   90.00074082
_cell_angle_beta   90.04186883
_cell_angle_gamma   89.99278151
_symmetry_Int_Tables_number   1
_chemical_formula_structural   Ba17Sr5La8Pr42Mn72O216
_chemical_formula_sum   'Ba17 Sr5 La8 Pr42 Mn72 O216'
_cell_volume   4405.44126644
_cell_formula_units_Z   1
loop_
 _symmetry_equiv_pos_site_id
 _symmetry_equiv_pos_as_xyz
  1  'x, y, z'
loop_
 _atom_site_type_symbol
 _atom_site_label
 _atom_site_symmetry_multiplicity
 _atom_site_fract_x
 _atom_site_fract_y
 _atom_site_fract_z
 _atom_site_occupancy
  Ba  Ba0  1  -0.00110204  0.37445534  0.66325688  1
  Ba  Ba1  1  0.83105558  0.87409800  0.16264441  1
  Ba  Ba2  1  0.83341075  0.87394968  0.83016203  1
  Ba  Ba3  1  0.83428664  0.12440374  0.16651870  1
  Ba  Ba4  1  0.16923142  0.12460637  0.83641888  1
  Ba  Ba5  1  0.17065637  0.62381163  0.16636022  1
  Ba  Ba6  1  0.00179009  0.12621690  0.66461857  1
  Ba  Ba7  1  -0.00033363  0.12767863  0.99816553  1
  Ba  Ba8  1  0.16744871  0.62698050  0.49962049  1
  Ba  Ba9  1  0.66669709  0.12602859  0.33031420  1
  Ba  Ba10  1  0.00319710  0.62379479  0.99823596  1
  Ba  Ba11  1  0.66470170  0.37518993  0.66955594  1
  Ba  Ba12  1  0.16441698  0.87518611  0.49883221  1
  Ba  Ba13  1  0.66447760  0.87298696  0.66872223  1
  Ba  Ba14  1  0.49927587  0.12499218  0.16660183  1
  Ba  Ba15  1  0.66697249  0.62430559  0.66429376  1
  Ba  Ba16  1  0.33031196  0.37612257  0.67084591  1
  Sr  Sr17  1  0.32914330  0.87844757  0.00147899  1
  Sr  Sr18  1  0.16454027  0.87749727  0.83369963  1
  Sr  Sr19  1  0.66192440  0.37698671  0.00043313  1
  Sr  Sr20  1  0.33922696  0.12172931  0.99811648  1
  Sr  Sr21  1  -0.00344533  0.37431402  -0.00149956  1
  La  La22  1  0.49634463  0.37684550  0.50166077  1
  La  La23  1  0.66406372  0.87371839  0.00094907  1
  La  La24  1  0.67168793  0.62391069  0.33217698  1
  La  La25  1  0.83063407  0.87487836  0.49832371  1
  La  La26  1  0.83370556  0.62308274  0.83001194  1
  La  La27  1  0.33227157  0.87541218  0.33353689  1
  La  La28  1  0.49929290  0.62352228  0.50502427  1
  La  La29  1  0.82762400  0.37388747  0.49988593  1
  Pr  Pr30  1  0.67384117  0.62518734  0.99766817  1
  Pr  Pr31  1  0.66089940  0.36854634  0.33522108  1
  Pr  Pr32  1  0.33425230  0.62725296  0.66745833  1
  Pr  Pr33  1  0.16411494  0.87384078  0.16232216  1
  Pr  Pr34  1  0.15661513  0.37491322  0.16501291  1
  Pr  Pr35  1  0.49974421  0.87172793  0.49931068  1
  Pr  Pr36  1  0.83700756  0.37590700  0.83128821  1
  Pr  Pr37  1  0.33915603  0.62803572  0.99866781  1
  Pr  Pr38  1  0.00159627  0.87404044  0.66844208  1
  Pr  Pr39  1  0.83614279  0.12603139  0.49832921  1
  Pr  Pr40  1  0.82520686  0.37384801  0.16050095  1
  Pr  Pr41  1  0.66595303  0.88221958  0.33471133  1
  Pr  Pr42  1  0.33630469  0.12213323  0.67012374  1
  Pr  Pr43  1  0.00546226  0.12278487  0.32389637  1
  Pr  Pr44  1  0.01076008  0.62803112  0.32572098  1
  Pr  Pr45  1  0.67235927  0.12269719  0.66504774  1
  Pr  Pr46  1  0.33650225  0.12164179  0.33304839  1
  Pr  Pr47  1  0.15600681  0.37282815  0.49624095  1
  Pr  Pr48  1  0.49708720  0.87799451  0.16435498  1
  Pr  Pr49  1  0.33763392  0.62832009  0.33154110  1
  Pr  Pr50  1  0.32606412  0.87353995  0.67148657  1
  Pr  Pr51  1  0.32898021  0.37493687  0.34051684  1
  Pr  Pr52  1  0.00429822  0.87862710  -0.00126679  1
  Pr  Pr53  1  0.49584900  0.37222874  0.16607308  1
  Pr  Pr54  1  0.17574667  0.12508560  0.50546500  1
  Pr  Pr55  1  0.50584581  0.12677231  0.83937158  1
  Pr  Pr56  1  0.50440979  0.62424602  0.16911511  1
  Pr  Pr57  1  0.49563310  0.37428539  0.83227594  1
  Pr  Pr58  1  0.17216365  0.62202368  0.83856829  1
  Pr  Pr59  1  0.49390779  0.87496490  0.83200117  1
  Pr  Pr60  1  0.67078556  0.12513481  1.00011232  1
  Pr  Pr61  1  0.84241036  0.62284363  0.16738221  1
  Pr  Pr62  1  0.83584513  0.12937956  0.83518026  1
  Pr  Pr63  1  0.00150438  0.62592063  0.66523854  1
  Pr  Pr64  1  0.17245870  0.12553887  0.16478699  1
  Pr  Pr65  1  0.50338161  0.12495092  0.50480622  1
  Pr  Pr66  1  -0.00973726  0.38092988  0.33294224  1
  Pr  Pr67  1  0.50806230  0.62318883  0.83463292  1
  Pr  Pr68  1  0.83818264  0.62295755  0.50258118  1
  Pr  Pr69  1  0.15784379  0.37308683  0.83333034  1
  Pr  Pr70  1  0.32891011  0.37195970  0.00454643  1
  Pr  Pr71  1  -0.00841794  0.87073017  0.33244235  1
  Mn  Mn72  1  0.00228485  -0.00008905  0.16514746  1
  Mn  Mn73  1  -0.00145468  0.00006837  0.49472986  1
  Mn  Mn74  1  -0.00034992  -0.00096601  0.83228461  1
  Mn  Mn75  1  -0.00028532  0.49836901  0.16625053  1
  Mn  Mn76  1  -0.00093922  0.50107170  0.49731870  1
  Mn  Mn77  1  0.00168291  0.50055399  0.83132238  1
  Mn  Mn78  1  0.33216665  0.00085492  0.16719643  1
  Mn  Mn79  1  0.33606254  -0.00059419  0.50139016  1
  Mn  Mn80  1  0.33498865  -0.00135547  0.83479356  1
  Mn  Mn81  1  0.33529271  0.49830932  0.16963831  1
  Mn  Mn82  1  0.33134583  0.50009899  0.50201006  1
  Mn  Mn83  1  0.33490919  0.50070321  0.83794600  1
  Mn  Mn84  1  0.66510067  -0.00190747  0.16640659  1
  Mn  Mn85  1  0.66628431  0.00070052  0.50086713  1
  Mn  Mn86  1  0.66587591  0.00134731  0.83298546  1
  Mn  Mn87  1  0.66547351  0.50113517  0.16618646  1
  Mn  Mn88  1  0.66509867  0.49787061  0.49642686  1
  Mn  Mn89  1  0.66672265  0.49913814  0.83625054  1
  Mn  Mn90  1  0.00029133  0.25089357  0.16580827  1
  Mn  Mn91  1  -0.00180961  0.25014929  0.49145425  1
  Mn  Mn92  1  -0.00022810  0.25107904  0.83259181  1
  Mn  Mn93  1  0.00102324  0.75121563  0.16438367  1
  Mn  Mn94  1  -0.00220124  0.74975552  0.49885124  1
  Mn  Mn95  1  0.00312626  0.74909065  0.83154347  1
  Mn  Mn96  1  0.33191927  0.25066206  0.17097701  1
  Mn  Mn97  1  0.33372332  0.25016726  0.50243138  1
  Mn  Mn98  1  0.33534718  0.25019976  0.83817794  1
  Mn  Mn99  1  0.33547681  0.75021514  0.16570268  1
  Mn  Mn100  1  0.33409895  0.75011472  0.50074570  1
  Mn  Mn101  1  0.33392952  0.75032549  0.83450037  1
  Mn  Mn102  1  0.66482558  0.25307837  0.16557010  1
  Mn  Mn103  1  0.66484887  0.24896773  0.50122598  1
  Mn  Mn104  1  0.66635966  0.25126342  0.83496697  1
  Mn  Mn105  1  0.66515001  0.74724398  0.16645227  1
  Mn  Mn106  1  0.66587183  0.75048707  0.49594593  1
  Mn  Mn107  1  0.66570761  0.74890308  0.83494202  1
  Mn  Mn108  1  0.16838069  0.25179496  0.00114801  1
  Mn  Mn109  1  0.16600762  0.24893786  0.33302519  1
  Mn  Mn110  1  0.16896735  0.25015875  0.66650699  1
  Mn  Mn111  1  0.16959730  0.75060317  -0.00114477  1
  Mn  Mn112  1  0.16910420  0.75194872  0.33118012  1
  Mn  Mn113  1  0.16635326  0.75040270  0.67090153  1
  Mn  Mn114  1  0.50057980  0.25152572  0.00036116  1
  Mn  Mn115  1  0.49646297  0.25125113  0.33502024  1
  Mn  Mn116  1  0.49909792  0.24776540  0.67032993  1
  Mn  Mn117  1  0.49964955  0.74944361  0.00195735  1
  Mn  Mn118  1  0.50183918  0.74923533  0.33350749  1
  Mn  Mn119  1  0.49702255  0.75077622  0.66708024  1
  Mn  Mn120  1  0.83051996  0.25265595  -0.00145851  1
  Mn  Mn121  1  0.83435577  0.25244866  0.33092535  1
  Mn  Mn122  1  0.83295875  0.24960743  0.66619798  1
  Mn  Mn123  1  0.83393827  0.74913862  -0.00242227  1
  Mn  Mn124  1  0.83121886  0.74774373  0.33266137  1
  Mn  Mn125  1  0.83502669  0.74823005  0.66351244  1
  Mn  Mn126  1  0.16894567  -0.00097356  -0.00025617  1
  Mn  Mn127  1  0.16638007  0.00076122  0.33217896  1
  Mn  Mn128  1  0.16747564  0.00055015  0.66690229  1
  Mn  Mn129  1  0.16983657  0.49860071  0.00114880  1
  Mn  Mn130  1  0.16880881  0.49798630  0.33275586  1
  Mn  Mn131  1  0.16653123  0.50059384  0.66845653  1
  Mn  Mn132  1  0.50146626  -0.00097091  -0.00084759  1
  Mn  Mn133  1  0.49877148  -0.00215535  0.33501279  1
  Mn  Mn134  1  0.49833295  0.00044661  0.66922629  1
  Mn  Mn135  1  0.49887957  0.50003446  0.00255483  1
  Mn  Mn136  1  0.49960373  0.50075317  0.33420166  1
  Mn  Mn137  1  0.49776681  0.49975060  0.66878087  1
  Mn  Mn138  1  0.83237201  -0.00018329  -0.00390026  1
  Mn  Mn139  1  0.83434259  -0.00098469  0.33299539  1
  Mn  Mn140  1  0.83468785  0.00091980  0.66434542  1
  Mn  Mn141  1  0.83227889  0.49949546  -0.00055316  1
  Mn  Mn142  1  0.83176554  0.50160614  0.33211086  1
  Mn  Mn143  1  0.83395492  0.49974556  0.66541232  1
  O  O144  1  0.17003392  0.12632204  0.02088856  1
  O  O145  1  0.15603096  0.12613648  0.36237427  1
  O  O146  1  0.17384074  0.12496509  0.67670966  1
  O  O147  1  0.17503418  0.62352175  0.01142988  1
  O  O148  1  0.16356006  0.62476932  0.34229450  1
  O  O149  1  0.16449786  0.62710991  0.69377506  1
  O  O150  1  0.50470656  0.12472326  0.01186237  1
  O  O151  1  0.49198717  0.12393878  0.35933375  1
  O  O152  1  0.49568671  0.12346487  0.69499839  1
  O  O153  1  0.49287980  0.62488255  0.02866339  1
  O  O154  1  0.49858390  0.62508759  0.36198735  1
  O  O155  1  0.49256019  0.62832136  0.68835575  1
  O  O156  1  0.82833924  0.12731225  0.01005150  1
  O  O157  1  0.84204698  0.12315215  0.35319931  1
  O  O158  1  0.82868144  0.12644054  0.68775993  1
  O  O159  1  0.82828988  0.62272191  0.02402452  1
  O  O160  1  0.82605275  0.62302452  0.36060257  1
  O  O161  1  0.84007304  0.62341820  0.68300448  1
  O  O162  1  0.17912275  0.37110905  0.30817477  1
  O  O163  1  0.16748911  0.37302234  0.64046116  1
  O  O164  1  0.17872631  0.37620860  0.97843005  1
  O  O165  1  0.17711104  0.87863884  0.30806435  1
  O  O166  1  0.16922104  0.87662030  0.65377615  1
  O  O167  1  0.16630028  0.87400306  0.98429648  1
  O  O168  1  0.49561161  0.38025315  0.31027474  1
  O  O169  1  0.49734132  0.37074594  0.64642202  1
  O  O170  1  0.49530292  0.37821111  0.97491290  1
  O  O171  1  0.49919536  0.86936348  0.30824098  1
  O  O172  1  0.49259537  0.87569883  0.64301904  1
  O  O173  1  0.50710948  0.87262489  0.97505121  1
  O  O174  1  0.83747040  0.38340206  0.30405238  1
  O  O175  1  0.83126897  0.37484098  0.64535679  1
  O  O176  1  0.82890766  0.37783114  0.97608177  1
  O  O177  1  0.83306955  0.87100761  0.31952972  1
  O  O178  1  0.84030849  0.87341220  0.64278450  1
  O  O179  1  0.82649669  0.87394370  0.98711315  1
  O  O180  1  0.00085051  0.37438439  0.18907321  1
  O  O181  1  0.00369391  0.37672408  0.50798702  1
  O  O182  1  -0.00181198  0.37764247  0.84669348  1
  O  O183  1  0.00685323  0.87638395  0.18742199  1
  O  O184  1  -0.00759943  0.87174477  0.52398893  1
  O  O185  1  0.00074217  0.87168934  0.85351956  1
  O  O186  1  0.34335216  0.37631285  0.19758493  1
  O  O187  1  0.33758812  0.37474238  0.51483427  1
  O  O188  1  0.34632255  0.37918931  0.86113123  1
  O  O189  1  0.33571019  0.87664695  0.19032170  1
  O  O190  1  0.34265590  0.87676233  0.52690702  1
  O  O191  1  0.34339716  0.87250995  0.85266538  1
  O  O192  1  0.67028322  0.38133792  0.19134827  1
  O  O193  1  0.67002058  0.37234885  0.51202935  1
  O  O194  1  0.66900513  0.37588005  0.85281361  1
  O  O195  1  0.66144685  0.86643146  0.19134655  1
  O  O196  1  0.66998832  0.87734937  0.51217277  1
  O  O197  1  0.66078329  0.87386792  0.85598945  1
  O  O198  1  0.00510977  0.12549959  0.15606835  1
  O  O199  1  -0.01203933  0.12836297  0.46674153  1
  O  O200  1  -0.00842676  0.12675506  0.82426691  1
  O  O201  1  -0.00423538  0.62381928  0.15793135  1
  O  O202  1  -0.00836791  0.62323199  0.46931377  1
  O  O203  1  0.00853970  0.62440092  0.80980216  1
  O  O204  1  0.32697233  0.12526374  0.14762699  1
  O  O205  1  0.33245834  0.12526302  0.47586497  1
  O  O206  1  0.34166089  0.12284336  0.81454241  1
  O  O207  1  0.34020862  0.62206013  0.14199996  1
  O  O208  1  0.33839668  0.62355234  0.47525274  1
  O  O209  1  0.32621021  0.62612800  0.81120647  1
  O  O210  1  0.66417262  0.12937701  0.14683585  1
  O  O211  1  0.65808665  0.12474269  0.48592770  1
  O  O212  1  0.65875384  0.12775121  0.80911020  1
  O  O213  1  0.65621210  0.62298166  0.14039250  1
  O  O214  1  0.65899966  0.62368435  0.47596048  1
  O  O215  1  0.66004571  0.62356999  0.82182541  1
  O  O216  1  0.09269507  0.02042617  0.24301114  1
  O  O217  1  0.08784724  0.01729138  0.56789601  1
  O  O218  1  0.08235624  0.00241164  0.91889816  1
  O  O219  1  0.08526063  0.50432610  0.25022028  1
  O  O220  1  0.08060624  0.51676464  0.58235808  1
  O  O221  1  0.09558562  0.50889225  0.90731764  1
  O  O222  1  0.41042590  0.01101007  0.25805478  1
  O  O223  1  0.42069969  0.02734180  0.58272960  1
  O  O224  1  0.42940095  0.01180306  0.90740517  1
  O  O225  1  0.42394084  0.52606988  0.24770616  1
  O  O226  1  0.41529503  0.52023373  0.58254564  1
  O  O227  1  0.42203927  0.52855789  0.91560936  1
  O  O228  1  0.75015578  0.00399666  0.25154432  1
  O  O229  1  0.75185950  0.02190612  0.58002611  1
  O  O230  1  0.75020950  0.02376121  0.91025452  1
  O  O231  1  0.75883666  0.52587212  0.24373887  1
  O  O232  1  0.75724573  0.51289592  0.57097140  1
  O  O233  1  0.75132368  0.52234412  0.91597166  1
  O  O234  1  0.25282676  0.22307163  0.26095985  1
  O  O235  1  0.25770110  0.22789012  0.58785871  1
  O  O236  1  0.26404789  0.24126763  0.93080800  1
  O  O237  1  0.26315623  0.73582386  0.25505056  1
  O  O238  1  0.25552682  0.73658316  0.59537961  1
  O  O239  1  0.25861408  0.73082911  0.92166415  1
  O  O240  1  0.58249572  0.25070557  0.25261569  1
  O  O241  1  0.58224445  0.22743876  0.59085380  1
  O  O242  1  0.58916955  0.23256507  0.92124490  1
  O  O243  1  0.58701287  0.72282814  0.25517061  1
  O  O244  1  0.57677052  0.73991403  0.57825798  1
  O  O245  1  0.58647566  0.72719359  0.92949153  1
  O  O246  1  0.92921562  0.23935995  0.25880826  1
  O  O247  1  0.91145609  0.23783514  0.57248061  1
  O  O248  1  0.90836999  0.24530243  0.91140963  1
  O  O249  1  0.91907345  0.73105616  0.25741755  1
  O  O250  1  0.91796163  0.72368136  0.58030449  1
  O  O251  1  0.91576053  0.73114484  0.90594456  1
  O  O252  1  0.08466550  0.48068435  0.07911791  1
  O  O253  1  0.07953566  0.48132655  0.40997081  1
  O  O254  1  0.08529750  0.48339383  0.74946735  1
  O  O255  1  0.08392824  0.97836436  0.08305005  1
  O  O256  1  0.07252804  0.98034984  0.40024944  1
  O  O257  1  0.08067727  0.98515380  0.74381807  1
  O  O258  1  0.41119097  0.47580426  0.08155861  1
  O  O259  1  0.41402807  0.48160285  0.41290120  1
  O  O260  1  0.41690779  0.49004203  0.75662621  1
  O  O261  1  0.41700179  0.98288960  0.08374899  1
  O  O262  1  0.41807427  0.97606546  0.41999093  1
  O  O263  1  0.41087271  0.97821088  0.74318816  1
  O  O264  1  0.74526611  0.48386872  0.08219121  1
  O  O265  1  0.74336824  0.47940675  0.40215350  1
  O  O266  1  0.75424049  0.49012575  0.75520512  1
  O  O267  1  0.74051031  0.99038113  0.07267981  1
  O  O268  1  0.75054159  0.98551867  0.41549599  1
  O  O269  1  0.74352072  0.99609479  0.74584862  1
  O  O270  1  0.24493962  0.27312516  0.09785172  1
  O  O271  1  0.24038188  0.26737823  0.42430760  1
  O  O272  1  0.24862164  0.26725215  0.76655861  1
  O  O273  1  0.24668789  0.76810862  0.08902906  1
  O  O274  1  0.25589857  0.76328351  0.41464580  1
  O  O275  1  0.24957401  0.76741465  0.75585477  1
  O  O276  1  0.57687381  0.27346839  0.08661088  1
  O  O277  1  0.57601288  0.27041547  0.42015401  1
  O  O278  1  0.57570483  0.26552495  0.76125281  1
  O  O279  1  0.57447658  0.76963402  0.09278074  1
  O  O280  1  0.58140040  0.77501943  0.41490142  1
  O  O281  1  0.57133925  0.76211462  0.76039646  1
  O  O282  1  0.91022758  0.27000706  0.08709845  1
  O  O283  1  0.91069160  0.27753634  0.41593231  1
  O  O284  1  0.91120910  0.26321114  0.75248121  1
  O  O285  1  0.91931552  0.76225009  0.07835222  1
  O  O286  1  0.90906364  0.76816596  0.42118708  1
  O  O287  1  0.92562648  0.75959530  0.73799321  1
  O  O288  1  0.24852212  0.47352067  0.09481923  1
  O  O289  1  0.24430837  0.47736671  0.42354802  1
  O  O290  1  0.24313656  0.48512948  0.76888247  1
  O  O291  1  0.24407476  0.98327730  0.09324082  1
  O  O292  1  0.25404569  0.98967946  0.41321166  1
  O  O293  1  0.25400695  0.98591502  0.75051166  1
  O  O294  1  0.57133597  0.48141663  0.09363733  1
  O  O295  1  0.57869551  0.47492066  0.41631721  1
  O  O296  1  0.57605430  0.48766438  0.76145137  1
  O  O297  1  0.57985677  0.97567939  0.08463875  1
  O  O298  1  0.57978551  0.97880098  0.42013056  1
  O  O299  1  0.57111589  0.98485071  0.76163769  1
  O  O300  1  0.90786651  0.48398883  0.09180000  1
  O  O301  1  0.90523609  0.47905033  0.41986591  1
  O  O302  1  0.91241632  0.48979785  0.75315623  1
  O  O303  1  0.92173789  0.98505816  0.07654793  1
  O  O304  1  0.91368032  0.97458311  0.41776482  1
  O  O305  1  0.92087977  0.98460431  0.73995713  1
  O  O306  1  0.08194056  0.27058793  0.08324161  1
  O  O307  1  0.07542452  0.27575367  0.40092238  1
  O  O308  1  0.08612825  0.26313631  0.74876619  1
  O  O309  1  0.08325666  0.77062530  0.07784243  1
  O  O310  1  0.07258433  0.76446528  0.40961796  1
  O  O311  1  0.08184893  0.77127585  0.74716652  1
  O  O312  1  0.41299366  0.27112496  0.08278773  1
  O  O313  1  0.41252773  0.27053314  0.41733008  1
  O  O314  1  0.41725158  0.26369754  0.75326476  1
  O  O315  1  0.41455464  0.77181938  0.08087344  1
  O  O316  1  0.41963877  0.77079185  0.41451103  1
  O  O317  1  0.40989271  0.76926716  0.74466809  1
  O  O318  1  0.74603414  0.26993063  0.08072771  1
  O  O319  1  0.74978882  0.26750299  0.41271936  1
  O  O320  1  0.75204571  0.26238351  0.75715202  1
  O  O321  1  0.73579806  0.75923850  0.07581365  1
  O  O322  1  0.74149706  0.76586580  0.40413882  1
  O  O323  1  0.75364557  0.75232778  0.74586047  1
  O  O324  1  0.25039856  0.02591061  0.25453366  1
  O  O325  1  0.25712676  0.01810461  0.58537109  1
  O  O326  1  0.25906018  0.00881941  0.92251957  1
  O  O327  1  0.26484904  0.51442986  0.26330740  1
  O  O328  1  0.25464303  0.52082260  0.59578401  1
  O  O329  1  0.26327561  0.51729387  0.92910313  1
  O  O330  1  0.58095914  0.00265552  0.25257796  1
  O  O331  1  0.58354569  0.02021309  0.59063900  1
  O  O332  1  0.59216834  0.02063154  0.92324087  1
  O  O333  1  0.58808715  0.52100120  0.25692100  1
  O  O334  1  0.57600559  0.50956701  0.57882773  1
  O  O335  1  0.58557606  0.52020252  0.92698582  1
  O  O336  1  0.92757655  0.00831387  0.25770738  1
  O  O337  1  0.91159112  0.01812394  0.57315127  1
  O  O338  1  0.91097296  0.01016267  0.91076279  1
  O  O339  1  0.92049390  0.52340096  0.26251264  1
  O  O340  1  0.91956380  0.52020590  0.58212574  1
  O  O341  1  0.91420559  0.51328116  0.91180071  1
  O  O342  1  0.09444170  0.23244434  0.24238984  1
  O  O343  1  0.09034915  0.23536080  0.56032478  1
  O  O344  1  0.08682323  0.25112035  0.91375561  1
  O  O345  1  0.08383241  0.74321321  0.24894431  1
  O  O346  1  0.07722774  0.73571112  0.58838754  1
  O  O347  1  0.09369469  0.73554733  0.90956612  1
  O  O348  1  0.41228286  0.23372117  0.25625372  1
  O  O349  1  0.42065390  0.22498418  0.58307957  1
  O  O350  1  0.42664215  0.23445014  0.91207871  1
  O  O351  1  0.42343483  0.72736295  0.24830693  1
  O  O352  1  0.41651319  0.72713281  0.58181445  1
  O  O353  1  0.42350732  0.72674994  0.91069804  1
  O  O354  1  0.75410351  0.24828387  0.24784191  1
  O  O355  1  0.75058838  0.22783801  0.58260803  1
  O  O356  1  0.74780847  0.22792089  0.91498030  1
  O  O357  1  0.75388305  0.72183043  0.24115772  1
  O  O358  1  0.75773807  0.73582067  0.56968702  1
  O  O359  1  0.75204857  0.72794725  0.91454544  1
