# generated using pymatgen
data_Ba17Sr5La8Pr42Mn72O216
_symmetry_space_group_name_H-M   'P 1'
_cell_length_a   16.67374346
_cell_length_b   15.70801827
_cell_length_c   16.81350892
_cell_angle_alpha   89.99610450
_cell_angle_beta   89.97539389
_cell_angle_gamma   89.98902115
_symmetry_Int_Tables_number   1
_chemical_formula_structural   Ba17Sr5La8Pr42Mn72O216
_chemical_formula_sum   'Ba17 Sr5 La8 Pr42 Mn72 O216'
_cell_volume   4403.65028984
_cell_formula_units_Z   1
loop_
 _symmetry_equiv_pos_site_id
 _symmetry_equiv_pos_as_xyz
  1  'x, y, z'
loop_
 _atom_site_type_symbol
 _atom_site_label
 _atom_site_symmetry_multiplicity
 _atom_site_fract_x
 _atom_site_fract_y
 _atom_site_fract_z
 _atom_site_occupancy
  Ba  Ba0  1  0.16507480  0.87466579  0.16629867  1
  Ba  Ba1  1  0.16660666  0.62335342  0.83521806  1
  Ba  Ba2  1  0.50185364  0.62375951  0.83219910  1
  Ba  Ba3  1  -0.00047058  0.62255068  0.33424245  1
  Ba  Ba4  1  0.33605256  0.37255226  0.67007877  1
  Ba  Ba5  1  0.66606889  0.62518063  0.66130337  1
  Ba  Ba6  1  0.33486699  0.87606136  0.00220701  1
  Ba  Ba7  1  -0.00101045  0.87474834  -0.00041805  1
  Ba  Ba8  1  0.16469893  0.62371887  0.16734898  1
  Ba  Ba9  1  0.16611794  0.12690039  0.16923337  1
  Ba  Ba10  1  -0.00073424  0.87330338  0.33413058  1
  Ba  Ba11  1  0.83052584  0.12620261  0.16804581  1
  Ba  Ba12  1  0.16338708  0.12615159  0.50142659  1
  Ba  Ba13  1  0.33738162  0.37581390  0.33786884  1
  Ba  Ba14  1  0.50180875  0.87489379  0.16551205  1
  Ba  Ba15  1  0.33379773  0.87748856  0.66881404  1
  Ba  Ba16  1  0.16741974  0.87621918  0.50210510  1
  Sr  Sr17  1  0.66509400  0.12572605  0.32473097  1
  Sr  Sr18  1  0.50537632  0.37422107  0.16608974  1
  Sr  Sr19  1  0.66531521  0.62537886  0.99108729  1
  Sr  Sr20  1  0.00065407  0.37364117  0.33533743  1
  Sr  Sr21  1  0.16691997  0.87292918  0.83196019  1
  La  La22  1  0.33821318  0.37864539  0.00751056  1
  La  La23  1  0.00162141  0.12236819  1.00161791  1
  La  La24  1  0.33138701  0.87701189  0.33502312  1
  La  La25  1  0.83670804  0.62464634  0.50039377  1
  La  La26  1  0.16971664  0.37559699  0.83368565  1
  La  La27  1  0.33280362  0.63001390  1.00019294  1
  La  La28  1  0.49407019  0.12670107  0.49866548  1
  La  La29  1  0.67050433  0.37220462  0.32747897  1
  Pr  Pr30  1  0.83162590  0.87478482  0.82993855  1
  Pr  Pr31  1  0.66146969  0.12652430  0.99528621  1
  Pr  Pr32  1  0.83354839  0.87248383  0.49845737  1
  Pr  Pr33  1  0.66702117  0.87232907  -0.00186282  1
  Pr  Pr34  1  0.00222740  0.12377572  0.33033760  1
  Pr  Pr35  1  0.16978103  0.37502707  0.49796182  1
  Pr  Pr36  1  0.50351407  0.87367747  0.82999182  1
  Pr  Pr37  1  0.67516736  0.87856416  0.32858977  1
  Pr  Pr38  1  0.66728566  0.87492809  0.66383688  1
  Pr  Pr39  1  0.32542894  0.12551550  0.33257884  1
  Pr  Pr40  1  0.51057180  0.37700420  0.49347288  1
  Pr  Pr41  1  0.83648322  0.37568522  0.16421705  1
  Pr  Pr42  1  0.32826430  0.12277025  1.00602205  1
  Pr  Pr43  1  0.66940872  0.37584467  0.66376453  1
  Pr  Pr44  1  0.50864742  0.37557178  0.83104046  1
  Pr  Pr45  1  0.48945721  0.12595675  0.83380963  1
  Pr  Pr46  1  0.83116094  0.12446991  0.83811245  1
  Pr  Pr47  1  0.00359517  0.37464118  0.00512224  1
  Pr  Pr48  1  0.16390758  0.62276787  0.50384480  1
  Pr  Pr49  1  0.83298992  0.37443540  0.83038744  1
  Pr  Pr50  1  0.67291395  0.37897948  -0.00084401  1
  Pr  Pr51  1  0.66370152  0.62520030  0.32663889  1
  Pr  Pr52  1  0.16908120  0.37692407  0.17037984  1
  Pr  Pr53  1  0.83372222  0.87450642  0.16152131  1
  Pr  Pr54  1  0.32355426  0.12417853  0.66677198  1
  Pr  Pr55  1  0.00335849  0.62454693  0.66500517  1
  Pr  Pr56  1  0.32583413  0.62577077  0.33442499  1
  Pr  Pr57  1  0.66475527  0.12606730  0.65674093  1
  Pr  Pr58  1  0.32694044  0.62672569  0.66793871  1
  Pr  Pr59  1  -0.00146714  0.12451388  0.66599583  1
  Pr  Pr60  1  0.50603514  0.87335510  0.49055065  1
  Pr  Pr61  1  0.49014038  0.62383896  0.50605883  1
  Pr  Pr62  1  0.00290022  0.62717869  0.99938086  1
  Pr  Pr63  1  0.83337135  0.62569169  0.83637781  1
  Pr  Pr64  1  0.49319434  0.62352288  0.16541817  1
  Pr  Pr65  1  0.83337267  0.12446969  0.49771499  1
  Pr  Pr66  1  0.49493237  0.12632505  0.17003728  1
  Pr  Pr67  1  0.16984833  0.12451888  0.83808975  1
  Pr  Pr68  1  0.00090090  0.37339939  0.66980876  1
  Pr  Pr69  1  0.83362052  0.37715432  0.49612547  1
  Pr  Pr70  1  0.00040261  0.87617480  0.67337460  1
  Pr  Pr71  1  0.83077423  0.62669237  0.16529862  1
  Mn  Mn72  1  -0.00237033  0.00118463  0.16675519  1
  Mn  Mn73  1  -0.00341400  0.00148520  0.50194695  1
  Mn  Mn74  1  -0.00164981  0.00196020  0.83318678  1
  Mn  Mn75  1  -0.00200180  0.49737458  0.16736613  1
  Mn  Mn76  1  -0.00088648  0.49774442  0.50257931  1
  Mn  Mn77  1  -0.00261925  0.49746777  0.83531808  1
  Mn  Mn78  1  0.33442561  0.00167553  0.16921018  1
  Mn  Mn79  1  0.33625068  0.00182061  0.50189835  1
  Mn  Mn80  1  0.33394044  0.00100289  0.83552146  1
  Mn  Mn81  1  0.33549732  0.49875796  0.17013474  1
  Mn  Mn82  1  0.33397249  0.49896761  0.50363172  1
  Mn  Mn83  1  0.33605754  0.49802902  0.83780156  1
  Mn  Mn84  1  0.66577880  0.00004904  0.16252254  1
  Mn  Mn85  1  0.66754874  0.00175742  0.49523628  1
  Mn  Mn86  1  0.66585529  0.00276162  0.82805705  1
  Mn  Mn87  1  0.66579679  0.50204067  0.16208670  1
  Mn  Mn88  1  0.66881443  0.50051789  0.49442064  1
  Mn  Mn89  1  0.66906237  0.49831456  0.83077605  1
  Mn  Mn90  1  -0.00094852  0.25234243  0.16969538  1
  Mn  Mn91  1  -0.00356391  0.25106160  0.50167216  1
  Mn  Mn92  1  -0.00177179  0.25050087  0.83493953  1
  Mn  Mn93  1  -0.00266111  0.74877447  0.16622246  1
  Mn  Mn94  1  -0.00028732  0.74898432  0.50394583  1
  Mn  Mn95  1  -0.00204247  0.74911123  0.83341741  1
  Mn  Mn96  1  0.33559795  0.25291980  0.17030507  1
  Mn  Mn97  1  0.33488618  0.25033080  0.50328155  1
  Mn  Mn98  1  0.33483385  0.25016989  0.83886561  1
  Mn  Mn99  1  0.33361640  0.74791219  0.16869384  1
  Mn  Mn100  1  0.33547844  0.75011170  0.50091059  1
  Mn  Mn101  1  0.33489766  0.75021255  0.83393474  1
  Mn  Mn102  1  0.66607076  0.25220594  0.16216581  1
  Mn  Mn103  1  0.66839951  0.24789125  0.49534678  1
  Mn  Mn104  1  0.66663517  0.24818731  0.82783796  1
  Mn  Mn105  1  0.66529006  0.74710017  0.16163723  1
  Mn  Mn106  1  0.66753128  0.75063103  0.49333475  1
  Mn  Mn107  1  0.66794078  0.75189870  0.82968975  1
  Mn  Mn108  1  0.16701629  0.25116653  0.00176258  1
  Mn  Mn109  1  0.16526357  0.25262393  0.33653543  1
  Mn  Mn110  1  0.16362623  0.25137950  0.67059627  1
  Mn  Mn111  1  0.16635369  0.74965281  -0.00049284  1
  Mn  Mn112  1  0.16653625  0.75017842  0.33610446  1
  Mn  Mn113  1  0.16536296  0.74927046  0.66824086  1
  Mn  Mn114  1  0.50082334  0.24995557  -0.00056752  1
  Mn  Mn115  1  0.50313624  0.25031052  0.33310300  1
  Mn  Mn116  1  0.50187197  0.24894068  0.66605050  1
  Mn  Mn117  1  0.50233762  0.74912126  -0.00150893  1
  Mn  Mn118  1  0.50113151  0.74739259  0.33349516  1
  Mn  Mn119  1  0.49940867  0.75108222  0.66338357  1
  Mn  Mn120  1  0.83306635  0.24964611  -0.00167216  1
  Mn  Mn121  1  0.83341590  0.25089151  0.33312169  1
  Mn  Mn122  1  0.83277178  0.24911120  0.66597970  1
  Mn  Mn123  1  0.83234725  0.74896274  -0.00166692  1
  Mn  Mn124  1  0.83142440  0.74862894  0.33180677  1
  Mn  Mn125  1  0.83357792  0.74965682  0.66623735  1
  Mn  Mn126  1  0.16599734  0.00090950  0.00065227  1
  Mn  Mn127  1  0.16594550  -0.00009979  0.33529570  1
  Mn  Mn128  1  0.16318823  0.00034655  0.67102816  1
  Mn  Mn129  1  0.16665741  0.49731122  0.00134862  1
  Mn  Mn130  1  0.16584693  0.49808287  0.33640328  1
  Mn  Mn131  1  0.16610984  0.49723150  0.66869956  1
  Mn  Mn132  1  0.50149605  0.00416541  -0.00127909  1
  Mn  Mn133  1  0.50137783  0.00143800  0.33313611  1
  Mn  Mn134  1  0.50178733  0.00215035  0.66531243  1
  Mn  Mn135  1  0.50212736  0.49808876  0.00035233  1
  Mn  Mn136  1  0.50289509  0.50215103  0.33376595  1
  Mn  Mn137  1  0.49991789  0.49868803  0.66482662  1
  Mn  Mn138  1  0.83066761  0.00165663  -0.00124274  1
  Mn  Mn139  1  0.83276909  0.00054840  0.33314673  1
  Mn  Mn140  1  0.83210386  0.00218317  0.66634985  1
  Mn  Mn141  1  0.83498086  0.49938786  -0.00191532  1
  Mn  Mn142  1  0.83123008  0.49996964  0.33122750  1
  Mn  Mn143  1  0.83467848  0.49817575  0.66643108  1
  O  O144  1  0.16509222  0.12993283  0.01254023  1
  O  O145  1  0.16569326  0.12753076  0.34412567  1
  O  O146  1  0.15881082  0.12890006  0.69236187  1
  O  O147  1  0.16324850  0.61827160  0.00981571  1
  O  O148  1  0.17211702  0.62230836  0.35709079  1
  O  O149  1  0.16417093  0.62173184  0.67872777  1
  O  O150  1  0.51248143  0.12833373  0.02456898  1
  O  O151  1  0.51044618  0.12582913  0.35511788  1
  O  O152  1  0.51572134  0.12447464  0.69188368  1
  O  O153  1  0.50600641  0.61881821  0.01976795  1
  O  O154  1  0.51471499  0.62437696  0.36215299  1
  O  O155  1  0.49944261  0.62497025  0.67477034  1
  O  O156  1  0.82457452  0.12605451  0.01184063  1
  O  O157  1  0.83357424  0.12616648  0.35464685  1
  O  O158  1  0.82818440  0.12609444  0.69528566  1
  O  O159  1  0.83122021  0.61972023  0.02055103  1
  O  O160  1  0.82252100  0.62301288  0.35707825  1
  O  O161  1  0.83607396  0.61940952  0.69287788  1
  O  O162  1  0.16622142  0.37523515  0.31683236  1
  O  O163  1  0.16012932  0.37363818  0.64337882  1
  O  O164  1  0.16344762  0.37162589  0.97596609  1
  O  O165  1  0.17369702  0.87603564  0.32800765  1
  O  O166  1  0.15716840  0.87403057  0.66012743  1
  O  O167  1  0.16620434  0.87965032  0.98502079  1
  O  O168  1  0.50514793  0.37763700  0.31584074  1
  O  O169  1  0.50550485  0.37315067  0.63740294  1
  O  O170  1  0.49133940  0.37128442  0.97368080  1
  O  O171  1  0.48584696  0.87386253  0.32307334  1
  O  O172  1  0.50438888  0.87903451  0.63750628  1
  O  O173  1  0.50499640  0.88317746  0.97411772  1
  O  O174  1  0.83160057  0.37716634  0.30869105  1
  O  O175  1  0.83577617  0.37222240  0.63928657  1
  O  O176  1  0.83468446  0.37345779  0.97291079  1
  O  O177  1  0.82925527  0.87354878  0.30715710  1
  O  O178  1  0.83722297  0.88099881  0.64105559  1
  O  O179  1  0.82781226  0.87933708  0.97346240  1
  O  O180  1  -0.01181274  0.37488060  0.18572298  1
  O  O181  1  -0.01057476  0.37426269  0.52792856  1
  O  O182  1  -0.00990291  0.37252950  0.86262422  1
  O  O183  1  -0.01280142  0.87297940  0.17483920  1
  O  O184  1  -0.01063138  0.87328945  0.52694087  1
  O  O185  1  -0.00907597  0.87659205  0.84364715  1
  O  O186  1  0.33353019  0.37642783  0.18142284  1
  O  O187  1  0.33253168  0.37406292  0.51433476  1
  O  O188  1  0.33309941  0.37091204  0.86183931  1
  O  O189  1  0.33665638  0.87401757  0.18785702  1
  O  O190  1  0.34643094  0.87575245  0.50888569  1
  O  O191  1  0.33946165  0.87923514  0.84468692  1
  O  O192  1  0.66842893  0.37834624  0.18477699  1
  O  O193  1  0.66523340  0.37307309  0.52100593  1
  O  O194  1  0.66606688  0.36925183  0.85438899  1
  O  O195  1  0.66993502  0.87010040  0.18573220  1
  O  O196  1  0.66607307  0.88001167  0.52139230  1
  O  O197  1  0.66639128  0.88202548  0.85416554  1
  O  O198  1  -0.00086552  0.13139182  0.14710269  1
  O  O199  1  -0.00830323  0.13058175  0.47452652  1
  O  O200  1  -0.00446935  0.12856360  0.80781634  1
  O  O201  1  -0.00977072  0.61913189  0.14375486  1
  O  O202  1  -0.00014477  0.62098862  0.49160922  1
  O  O203  1  -0.00841413  0.62065136  0.80823259  1
  O  O204  1  0.33802415  0.13006810  0.15193157  1
  O  O205  1  0.33871101  0.12839375  0.47908910  1
  O  O206  1  0.33546483  0.12716271  0.81044580  1
  O  O207  1  0.33892732  0.61979816  0.14731014  1
  O  O208  1  0.33545572  0.62315753  0.47996855  1
  O  O209  1  0.33550966  0.62123458  0.81270641  1
  O  O210  1  0.66207398  0.12865012  0.14008587  1
  O  O211  1  0.67583215  0.12397555  0.47343206  1
  O  O212  1  0.67548954  0.12561757  0.79887531  1
  O  O213  1  0.67238665  0.62367155  0.13852116  1
  O  O214  1  0.67713975  0.62294146  0.47200625  1
  O  O215  1  0.67618871  0.62410909  0.81873840  1
  O  O216  1  0.07929228  0.01122156  0.25406709  1
  O  O217  1  0.07278531  0.01335071  0.59210757  1
  O  O218  1  0.08256997  0.02336781  0.91283725  1
  O  O219  1  0.08144600  0.50131101  0.25037494  1
  O  O220  1  0.08233673  0.51440691  0.58516656  1
  O  O221  1  0.07416895  0.50816936  0.92471026  1
  O  O222  1  0.41384530  0.02478214  0.25957558  1
  O  O223  1  0.41396052  0.02786054  0.59309780  1
  O  O224  1  0.41379843  0.02822758  0.92373068  1
  O  O225  1  0.41764172  0.52633576  0.25956062  1
  O  O226  1  0.40997661  0.52042640  0.59083611  1
  O  O227  1  0.41156699  0.51518320  0.92859611  1
  O  O228  1  0.74448598  0.00770134  0.25234280  1
  O  O229  1  0.74858993  0.02157747  0.58396650  1
  O  O230  1  0.74555868  0.02253094  0.91264791  1
  O  O231  1  0.74276281  0.52067569  0.24896770  1
  O  O232  1  0.75641644  0.51001534  0.57494659  1
  O  O233  1  0.75610692  0.50950917  0.91136404  1
  O  O234  1  0.25395450  0.24040453  0.25472854  1
  O  O235  1  0.24915093  0.23445485  0.59383643  1
  O  O236  1  0.25009359  0.22823059  0.91761121  1
  O  O237  1  0.25502024  0.73654615  0.25511159  1
  O  O238  1  0.24694106  0.72990273  0.57913508  1
  O  O239  1  0.25438096  0.73766956  0.91936512  1
  O  O240  1  0.57723142  0.23724345  0.23785416  1
  O  O241  1  0.58317176  0.22802212  0.57210539  1
  O  O242  1  0.57916159  0.22775309  0.90253847  1
  O  O243  1  0.57891576  0.72548843  0.24132513  1
  O  O244  1  0.57569833  0.73842209  0.56705117  1
  O  O245  1  0.58695955  0.74721923  0.91150932  1
  O  O246  1  0.91851362  0.23501548  0.25673506  1
  O  O247  1  0.91136725  0.22294465  0.58402209  1
  O  O248  1  0.91353648  0.22636647  0.91363357  1
  O  O249  1  0.90698976  0.73146014  0.24637392  1
  O  O250  1  0.92018676  0.72756805  0.59250475  1
  O  O251  1  0.91765283  0.72553679  0.91877151  1
  O  O252  1  0.08528903  0.47437119  0.08679347  1
  O  O253  1  0.08488150  0.48008360  0.42551789  1
  O  O254  1  0.07918054  0.47591827  0.75356735  1
  O  O255  1  0.07829423  0.99907227  0.07877602  1
  O  O256  1  0.07978551  0.99634594  0.41776520  1
  O  O257  1  0.07635072  0.98578264  0.75017106  1
  O  O258  1  0.42273253  0.48470878  0.08772024  1
  O  O259  1  0.42897554  0.49007450  0.43031170  1
  O  O260  1  0.42393070  0.47897929  0.76257849  1
  O  O261  1  0.42262066  1.00222917  0.08844123  1
  O  O262  1  0.43047076  0.99323570  0.42641653  1
  O  O263  1  0.42780428  0.99227670  0.76135201  1
  O  O264  1  0.75647629  0.47616785  0.08258227  1
  O  O265  1  0.75087605  0.47359680  0.41389901  1
  O  O266  1  0.75146170  0.47332991  0.74570555  1
  O  O267  1  0.75015404  0.97656639  0.08148026  1
  O  O268  1  0.75261525  0.97616457  0.41768444  1
  O  O269  1  0.75086527  0.97435966  0.74785428  1
  O  O270  1  0.25409593  0.27037616  0.08359055  1
  O  O271  1  0.24599352  0.26325665  0.42251217  1
  O  O272  1  0.24512287  0.26192278  0.76033686  1
  O  O273  1  0.25346326  0.75193769  0.08386424  1
  O  O274  1  0.26557143  0.76063673  0.41201093  1
  O  O275  1  0.25060902  0.75489147  0.74736401  1
  O  O276  1  0.59426466  0.27138879  0.06670739  1
  O  O277  1  0.59082068  0.27160082  0.40930870  1
  O  O278  1  0.59074060  0.27462546  0.74023647  1
  O  O279  1  0.59039750  0.76552756  0.07376375  1
  O  O280  1  0.59165960  0.77421892  0.40325367  1
  O  O281  1  0.58649312  0.77322513  0.74211164  1
  O  O282  1  0.91971500  0.26900862  0.08045586  1
  O  O283  1  0.91313551  0.27039515  0.42205769  1
  O  O284  1  0.91894163  0.27192237  0.74920977  1
  O  O285  1  0.90650133  0.75804198  0.08725908  1
  O  O286  1  0.90989492  0.75830677  0.42913804  1
  O  O287  1  0.90937907  0.76847662  0.75564319  1
  O  O288  1  0.24814603  0.47778202  0.08505416  1
  O  O289  1  0.24620051  0.48804102  0.42696658  1
  O  O290  1  0.24734218  0.48225047  0.75643340  1
  O  O291  1  0.25392035  0.99920572  0.08266503  1
  O  O292  1  0.26079253  0.99350921  0.41326376  1
  O  O293  1  0.24548220  0.99872736  0.75616411  1
  O  O294  1  0.58968281  0.47670181  0.07568852  1
  O  O295  1  0.59258297  0.47842473  0.40699017  1
  O  O296  1  0.58776685  0.47737420  0.74306939  1
  O  O297  1  0.59481858  0.98645390  0.06631871  1
  O  O298  1  0.58977459  0.97584088  0.40694939  1
  O  O299  1  0.58867258  0.97534763  0.74169974  1
  O  O300  1  0.91943309  0.47666449  0.07639394  1
  O  O301  1  0.91261682  0.48651323  0.42300863  1
  O  O302  1  0.91499587  0.47241671  0.75197759  1
  O  O303  1  0.90935832  0.99083398  0.08560765  1
  O  O304  1  0.90810200  0.98690978  0.42651967  1
  O  O305  1  0.91314845  0.98351058  0.74897284  1
  O  O306  1  0.08617457  0.27563439  0.08894802  1
  O  O307  1  0.08336154  0.27199267  0.42738371  1
  O  O308  1  0.08235670  0.27652996  0.75635047  1
  O  O309  1  0.07604981  0.74961042  0.08036942  1
  O  O310  1  0.08626966  0.75274239  0.42465613  1
  O  O311  1  0.07257404  0.76063368  0.74505581  1
  O  O312  1  0.42189729  0.26247840  0.09034862  1
  O  O313  1  0.43158158  0.26176619  0.42820380  1
  O  O314  1  0.42731402  0.26260403  0.76612008  1
  O  O315  1  0.42145181  0.74963318  0.08860376  1
  O  O316  1  0.43042755  0.75538257  0.42981640  1
  O  O317  1  0.42527193  0.76586544  0.75601340  1
  O  O318  1  0.75330675  0.27480685  0.08281959  1
  O  O319  1  0.75390691  0.27294605  0.41881404  1
  O  O320  1  0.75260797  0.27610160  0.74843347  1
  O  O321  1  0.75007665  0.77118865  0.08057799  1
  O  O322  1  0.75037426  0.77589003  0.41266221  1
  O  O323  1  0.74859829  0.77507040  0.74458941  1
  O  O324  1  0.25491782  0.01087508  0.25670943  1
  O  O325  1  0.24964065  0.01432580  0.59143633  1
  O  O326  1  0.25017411  0.02319061  0.91773383  1
  O  O327  1  0.25347171  0.51274616  0.25775806  1
  O  O328  1  0.24976804  0.51911243  0.58486699  1
  O  O329  1  0.25425015  0.50698738  0.92371553  1
  O  O330  1  0.57670689  0.01564663  0.24019077  1
  O  O331  1  0.58236056  0.02319942  0.57412048  1
  O  O332  1  0.58012905  0.02768999  0.90405279  1
  O  O333  1  0.58023269  0.52334351  0.24260407  1
  O  O334  1  0.57883607  0.51292532  0.56650324  1
  O  O335  1  0.58542734  0.50053754  0.91448850  1
  O  O336  1  0.91962343  0.01709841  0.25870080  1
  O  O337  1  0.91240819  0.02894772  0.58647864  1
  O  O338  1  0.91508178  0.02300260  0.91534158  1
  O  O339  1  0.90331276  0.51545295  0.24046065  1
  O  O340  1  0.91911525  0.51960665  0.58990275  1
  O  O341  1  0.91508636  0.52461091  0.91561843  1
  O  O342  1  0.07756253  0.24157190  0.25866259  1
  O  O343  1  0.07014429  0.23722057  0.59433071  1
  O  O344  1  0.07812165  0.23022838  0.91726337  1
  O  O345  1  0.07893650  0.74333622  0.24950404  1
  O  O346  1  0.08239574  0.72956628  0.58507315  1
  O  O347  1  0.07789753  0.73650451  0.91601808  1
  O  O348  1  0.41621205  0.22756688  0.25937172  1
  O  O349  1  0.41444519  0.22418822  0.59501437  1
  O  O350  1  0.41218401  0.22305039  0.92672635  1
  O  O351  1  0.41473177  0.72306618  0.25883551  1
  O  O352  1  0.40845947  0.72824602  0.59036460  1
  O  O353  1  0.41584640  0.73473622  0.92354574  1
  O  O354  1  0.74400834  0.24462257  0.25225582  1
  O  O355  1  0.74647589  0.23028316  0.58299902  1
  O  O356  1  0.74483131  0.23063111  0.91261750  1
  O  O357  1  0.74334370  0.72779438  0.24688941  1
  O  O358  1  0.75711822  0.74005235  0.57466434  1
  O  O359  1  0.75720731  0.73910075  0.90855273  1
