# generated using pymatgen
data_Ba17Sr5La8Pr42Mn72O216
_symmetry_space_group_name_H-M   'P 1'
_cell_length_a   16.67907145
_cell_length_b   15.70385310
_cell_length_c   16.82490265
_cell_angle_alpha   90.00209659
_cell_angle_beta   89.99413235
_cell_angle_gamma   90.01025422
_symmetry_Int_Tables_number   1
_chemical_formula_structural   Ba17Sr5La8Pr42Mn72O216
_chemical_formula_sum   'Ba17 Sr5 La8 Pr42 Mn72 O216'
_cell_volume   4406.87410470
_cell_formula_units_Z   1
loop_
 _symmetry_equiv_pos_site_id
 _symmetry_equiv_pos_as_xyz
  1  'x, y, z'
loop_
 _atom_site_type_symbol
 _atom_site_label
 _atom_site_symmetry_multiplicity
 _atom_site_fract_x
 _atom_site_fract_y
 _atom_site_fract_z
 _atom_site_occupancy
  Ba  Ba0  1  -0.00195135  0.62420611  0.66223134  1
  Ba  Ba1  1  0.49896708  0.12451619  0.17366376  1
  Ba  Ba2  1  0.16248094  0.12440015  0.49710828  1
  Ba  Ba3  1  0.50088553  0.12386960  0.50506544  1
  Ba  Ba4  1  0.66613488  0.62476977  0.99823853  1
  Ba  Ba5  1  0.66944101  0.37714386  0.00140837  1
  Ba  Ba6  1  0.83629942  0.37426930  0.16370044  1
  Ba  Ba7  1  0.82887602  0.87359460  0.49733664  1
  Ba  Ba8  1  0.16713402  0.87528128  0.49792650  1
  Ba  Ba9  1  0.83714613  0.12637112  0.16383388  1
  Ba  Ba10  1  0.33516484  0.37466295  0.67139162  1
  Ba  Ba11  1  0.00136275  0.62506540  0.32902179  1
  Ba  Ba12  1  0.16896327  0.37473481  0.49706397  1
  Ba  Ba13  1  0.50016746  0.62519243  0.17109037  1
  Ba  Ba14  1  0.16543243  0.62587629  0.50027730  1
  Ba  Ba15  1  -0.00338115  0.12611204  0.66270620  1
  Ba  Ba16  1  0.00060293  0.12421842  0.99624436  1
  Sr  Sr17  1  0.16737687  0.37554935  0.16610385  1
  Sr  Sr18  1  0.00169520  0.12653509  0.32945179  1
  Sr  Sr19  1  0.33247211  0.87363153  0.00425831  1
  Sr  Sr20  1  0.49619022  0.62320821  0.84144194  1
  Sr  Sr21  1  0.00128481  0.37269915  0.32894571  1
  La  La22  1  0.16610079  0.37295541  0.82931003  1
  La  La23  1  0.66500904  0.62485333  0.66712355  1
  La  La24  1  0.49820929  0.87400969  0.16776249  1
  La  La25  1  0.16457040  0.87387775  0.16377219  1
  La  La26  1  0.33736201  0.87525655  0.33736409  1
  La  La27  1  0.33799721  0.37472296  0.33928370  1
  La  La28  1  -0.00141748  0.87660207  -0.00348711  1
  La  La29  1  0.66458754  0.87357063  0.00137759  1
  Pr  Pr30  1  0.83771891  0.37623209  0.49295837  1
  Pr  Pr31  1  0.49872506  0.62350313  0.50475289  1
  Pr  Pr32  1  0.66205871  0.87749779  0.67129434  1
  Pr  Pr33  1  0.50637779  0.37470891  0.16973167  1
  Pr  Pr34  1  0.67099128  0.37309064  0.33251265  1
  Pr  Pr35  1  0.32790118  0.12294812  1.00359687  1
  Pr  Pr36  1  0.32953242  0.87816247  0.67032476  1
  Pr  Pr37  1  0.16960476  0.62474383  0.16781132  1
  Pr  Pr38  1  0.83464225  0.37504169  0.82914368  1
  Pr  Pr39  1  0.32567409  0.12473443  0.66596867  1
  Pr  Pr40  1  0.00297795  0.62139544  0.99333825  1
  Pr  Pr41  1  0.16420855  0.87776298  0.82843391  1
  Pr  Pr42  1  0.16374967  0.12631239  0.83400914  1
  Pr  Pr43  1  0.32431121  0.12467468  0.33402589  1
  Pr  Pr44  1  0.00165848  0.37257762  0.00266731  1
  Pr  Pr45  1  -0.00514306  0.87866976  0.33312915  1
  Pr  Pr46  1  0.33183372  0.62668468  0.66782704  1
  Pr  Pr47  1  0.83486473  0.87511087  0.16377086  1
  Pr  Pr48  1  0.66885066  0.12257724  0.33025483  1
  Pr  Pr49  1  0.83347295  0.12673805  0.49806213  1
  Pr  Pr50  1  0.66654398  0.12574225  0.66516406  1
  Pr  Pr51  1  0.33489828  0.62617741  1.00096217  1
  Pr  Pr52  1  0.50831919  0.37964866  0.83457926  1
  Pr  Pr53  1  0.00636218  0.37567632  0.66069195  1
  Pr  Pr54  1  0.00021062  0.87443055  0.66131378  1
  Pr  Pr55  1  0.33734325  0.37654105  0.00618878  1
  Pr  Pr56  1  0.82975365  0.12377935  0.83621521  1
  Pr  Pr57  1  0.83284568  0.62141723  0.16423503  1
  Pr  Pr58  1  0.50448599  0.37485568  0.50246311  1
  Pr  Pr59  1  0.66686730  0.12900607  1.00010796  1
  Pr  Pr60  1  0.49563696  0.12711024  0.84367513  1
  Pr  Pr61  1  0.66355091  0.87669908  0.33467624  1
  Pr  Pr62  1  0.83053958  0.87651473  0.82423766  1
  Pr  Pr63  1  0.66604917  0.37232979  0.66977239  1
  Pr  Pr64  1  0.49355562  0.86771430  0.83606593  1
  Pr  Pr65  1  0.32683542  0.62558134  0.33493872  1
  Pr  Pr66  1  0.16888988  0.62484645  0.83312510  1
  Pr  Pr67  1  0.66901063  0.62695510  0.32934143  1
  Pr  Pr68  1  0.83494622  0.62230914  0.50019096  1
  Pr  Pr69  1  0.50114866  0.87529646  0.50346414  1
  Pr  Pr70  1  0.83536459  0.62656171  0.83409965  1
  Pr  Pr71  1  0.16425930  0.12502164  0.17050004  1
  Mn  Mn72  1  0.00119277  -0.00222137  0.16484331  1
  Mn  Mn73  1  -0.00392565  -0.00045965  0.49618604  1
  Mn  Mn74  1  -0.00194688  -0.00138984  0.82885412  1
  Mn  Mn75  1  0.00327240  0.49964080  0.16110722  1
  Mn  Mn76  1  -0.00064931  0.49920848  0.49587585  1
  Mn  Mn77  1  -0.00009789  0.49926465  0.83045934  1
  Mn  Mn78  1  0.33240924  -0.00092297  0.16881736  1
  Mn  Mn79  1  0.33488247  0.00009085  0.50326124  1
  Mn  Mn80  1  0.33248316  -0.00004466  0.83689768  1
  Mn  Mn81  1  0.33449781  0.49886913  0.17006881  1
  Mn  Mn82  1  0.33722644  0.50111587  0.50317794  1
  Mn  Mn83  1  0.33235870  0.50033838  0.83864413  1
  Mn  Mn84  1  0.66836220  -0.00253906  0.16701786  1
  Mn  Mn85  1  0.66592828  0.00019584  0.50165998  1
  Mn  Mn86  1  0.66323350  0.00052086  0.83518372  1
  Mn  Mn87  1  0.66764440  0.50139202  0.16799438  1
  Mn  Mn88  1  0.66600419  0.50045231  0.49975944  1
  Mn  Mn89  1  0.66799907  0.50020480  0.83144184  1
  Mn  Mn90  1  0.00352396  0.25121452  0.16433868  1
  Mn  Mn91  1  -0.00173112  0.25074962  0.49526977  1
  Mn  Mn92  1  -0.00231551  0.25200546  0.82950905  1
  Mn  Mn93  1  -0.00009914  0.75047177  0.16063348  1
  Mn  Mn94  1  -0.00240393  0.75163565  0.49617203  1
  Mn  Mn95  1  0.00003186  0.75023285  0.83120647  1
  Mn  Mn96  1  0.33347187  0.25107548  0.16996341  1
  Mn  Mn97  1  0.33628749  0.24892600  0.50265645  1
  Mn  Mn98  1  0.33354289  0.24801218  0.83888990  1
  Mn  Mn99  1  0.33293604  0.75027773  0.16910163  1
  Mn  Mn100  1  0.33650160  0.75039695  0.50320799  1
  Mn  Mn101  1  0.33032843  0.75069617  0.83644518  1
  Mn  Mn102  1  0.66702588  0.24891751  0.16718339  1
  Mn  Mn103  1  0.66799695  0.25060066  0.50114529  1
  Mn  Mn104  1  0.66564462  0.24952931  0.83226073  1
  Mn  Mn105  1  0.66889330  0.75100909  0.16759268  1
  Mn  Mn106  1  0.66426794  0.74777163  0.49953502  1
  Mn  Mn107  1  0.66606128  0.75077605  0.83319916  1
  Mn  Mn108  1  0.16977933  0.25049097  -0.00139521  1
  Mn  Mn109  1  0.16714351  0.25166756  0.33019800  1
  Mn  Mn110  1  0.16580274  0.25034323  0.66641766  1
  Mn  Mn111  1  0.16617317  0.75000866  -0.00178073  1
  Mn  Mn112  1  0.16783959  0.75095557  0.32932431  1
  Mn  Mn113  1  0.16590518  0.75147113  0.66752556  1
  Mn  Mn114  1  0.49854111  0.24937433  0.00476255  1
  Mn  Mn115  1  0.50145359  0.25020967  0.33801000  1
  Mn  Mn116  1  0.49963197  0.24884368  0.67336110  1
  Mn  Mn117  1  0.49853994  0.75178532  0.00166516  1
  Mn  Mn118  1  0.50115011  0.75021620  0.33860770  1
  Mn  Mn119  1  0.49838988  0.74898319  0.67032136  1
  Mn  Mn120  1  0.83371208  0.24881062  -0.00425670  1
  Mn  Mn121  1  0.83477740  0.25056059  0.33242184  1
  Mn  Mn122  1  0.83167027  0.25226421  0.66308794  1
  Mn  Mn123  1  0.83535766  0.75217685  -0.00389185  1
  Mn  Mn124  1  0.83239090  0.74898191  0.32903815  1
  Mn  Mn125  1  0.82908645  0.74905393  0.66408474  1
  Mn  Mn126  1  0.16764658  -0.00170203  -0.00198903  1
  Mn  Mn127  1  0.16724871  -0.00178716  0.32954991  1
  Mn  Mn128  1  0.16441872  -0.00079782  0.66611692  1
  Mn  Mn129  1  0.16929951  0.49983936  -0.00166509  1
  Mn  Mn130  1  0.16805906  0.49952311  0.33026266  1
  Mn  Mn131  1  0.16723873  0.49969052  0.66766174  1
  Mn  Mn132  1  0.49921480  0.00012114  0.00371235  1
  Mn  Mn133  1  0.50040454  0.00008113  0.33788439  1
  Mn  Mn134  1  0.49861728  -0.00101111  0.67557335  1
  Mn  Mn135  1  0.49881089  0.49918965  0.00277012  1
  Mn  Mn136  1  0.50241150  0.50006601  0.33861828  1
  Mn  Mn137  1  0.50002541  0.50202091  0.67061719  1
  Mn  Mn138  1  0.83158232  -0.00216094  -0.00476403  1
  Mn  Mn139  1  0.83233888  0.00028617  0.33043333  1
  Mn  Mn140  1  0.83018218  0.00094886  0.66418822  1
  Mn  Mn141  1  0.83677475  0.50210721  -0.00348969  1
  Mn  Mn142  1  0.83401518  0.50059390  0.33160960  1
  Mn  Mn143  1  0.83010544  0.49771899  0.66372534  1
  O  O144  1  0.17105241  0.12292954  0.02553550  1
  O  O145  1  0.16801458  0.12297545  0.33910141  1
  O  O146  1  0.16729967  0.12390994  0.68801090  1
  O  O147  1  0.15914665  0.62644797  0.02534483  1
  O  O148  1  0.17227274  0.62662692  0.34312824  1
  O  O149  1  0.16986119  0.62719054  0.68752489  1
  O  O150  1  0.50270920  0.12356047  0.01782711  1
  O  O151  1  0.51310735  0.12429087  0.34890082  1
  O  O152  1  0.50865566  0.11939609  0.70123386  1
  O  O153  1  0.49175452  0.62670250  0.01230030  1
  O  O154  1  0.51132724  0.62612755  0.36096100  1
  O  O155  1  0.50140400  0.62661916  0.69351448  1
  O  O156  1  0.83020826  0.12173105  0.00522702  1
  O  O157  1  0.82813187  0.12669674  0.35394037  1
  O  O158  1  0.82798443  0.12580652  0.69260620  1
  O  O159  1  0.84355741  0.63144877  0.02014083  1
  O  O160  1  0.82723471  0.62502804  0.35594527  1
  O  O161  1  0.82815545  0.62055621  0.69167728  1
  O  O162  1  0.17926676  0.37586214  0.31725349  1
  O  O163  1  0.16601037  0.37416088  0.65972336  1
  O  O164  1  0.17810702  0.37701355  0.97171476  1
  O  O165  1  0.17866245  0.87347590  0.30828534  1
  O  O166  1  0.17729877  0.87492351  0.65762278  1
  O  O167  1  0.16791664  0.87256982  0.97099692  1
  O  O168  1  0.49157968  0.37629110  0.31421355  1
  O  O169  1  0.50401556  0.37948314  0.64681743  1
  O  O170  1  0.49106970  0.37152741  0.97790412  1
  O  O171  1  0.49804682  0.87503736  0.31343341  1
  O  O172  1  0.49862431  0.87289913  0.64567706  1
  O  O173  1  0.50139836  0.87838482  0.97942305  1
  O  O174  1  0.82372533  0.37734656  0.32069539  1
  O  O175  1  0.81740921  0.37552226  0.63632582  1
  O  O176  1  0.84113414  0.37460677  0.97603601  1
  O  O177  1  0.82819375  0.87269500  0.30838158  1
  O  O178  1  0.81997061  0.87753046  0.65386389  1
  O  O179  1  0.83170745  0.87409976  0.96839249  1
  O  O180  1  0.00227152  0.37750555  0.17620873  1
  O  O181  1  -0.01010077  0.37511198  0.51511877  1
  O  O182  1  -0.00255438  0.37828130  0.85853445  1
  O  O183  1  -0.00004773  0.87191188  0.18777274  1
  O  O184  1  -0.00486439  0.87560842  0.51498830  1
  O  O185  1  -0.00005731  0.87303130  0.85406502  1
  O  O186  1  0.33332756  0.37536323  0.19481683  1
  O  O187  1  0.34292012  0.37618281  0.51272781  1
  O  O188  1  0.32252601  0.37284374  0.86151997  1
  O  O189  1  0.32999073  0.87550926  0.19272263  1
  O  O190  1  0.34214929  0.87476702  0.52688332  1
  O  O191  1  0.32377421  0.87679527  0.85578365  1
  O  O192  1  0.66490921  0.37784033  0.18560419  1
  O  O193  1  0.66964727  0.37737434  0.52814789  1
  O  O194  1  0.66787303  0.37442413  0.84583719  1
  O  O195  1  0.67825865  0.87372753  0.19046174  1
  O  O196  1  0.66249827  0.87097928  0.52883311  1
  O  O197  1  0.67737203  0.87931097  0.85715368  1
  O  O198  1  0.01124604  0.12226525  0.15468535  1
  O  O199  1  -0.00942890  0.12525994  0.48237910  1
  O  O200  1  -0.00003623  0.12308005  0.81880682  1
  O  O201  1  0.00208822  0.62813403  0.13689680  1
  O  O202  1  -0.00952341  0.62556973  0.48831936  1
  O  O203  1  0.00069889  0.62540354  0.81622103  1
  O  O204  1  0.33067312  0.12421248  0.14596895  1
  O  O205  1  0.33541019  0.12230067  0.48137003  1
  O  O206  1  0.34400146  0.12148083  0.80898300  1
  O  O207  1  0.33035747  0.62399475  0.14384719  1
  O  O208  1  0.34387928  0.62739051  0.47995793  1
  O  O209  1  0.33494726  0.62749546  0.81173046  1
  O  O210  1  0.66385913  0.11913442  0.14546357  1
  O  O211  1  0.66863096  0.12910049  0.47380121  1
  O  O212  1  0.66123250  0.12433965  0.80782938  1
  O  O213  1  0.66853829  0.62778415  0.15550392  1
  O  O214  1  0.65527593  0.62327787  0.47137721  1
  O  O215  1  0.67021937  0.62247151  0.81162650  1
  O  O216  1  0.09132952  0.00414206  0.23926740  1
  O  O217  1  0.07793722  0.00015840  0.58451265  1
  O  O218  1  0.08954466  0.01017352  0.90749605  1
  O  O219  1  0.08899508  0.51403099  0.23640747  1
  O  O220  1  0.07800916  0.50077157  0.58271058  1
  O  O221  1  0.08692513  0.51885145  0.91326529  1
  O  O222  1  0.41025440  0.01230844  0.26435231  1
  O  O223  1  0.41194598  0.01557169  0.60117378  1
  O  O224  1  0.41352007  0.01975326  0.92045545  1
  O  O225  1  0.41063113  0.51699552  0.26730257  1
  O  O226  1  0.41572459  0.52472469  0.59297265  1
  O  O227  1  0.40567288  0.51225391  0.92935073  1
  O  O228  1  0.74904338  0.01722669  0.24942573  1
  O  O229  1  0.74774309  0.02637086  0.58170260  1
  O  O230  1  0.74373691  0.02484393  0.91356267  1
  O  O231  1  0.74899736  0.52102936  0.25231502  1
  O  O232  1  0.74382448  0.52868836  0.58291356  1
  O  O233  1  0.75840714  0.51403516  0.90746834  1
  O  O234  1  0.24816814  0.22794760  0.24357588  1
  O  O235  1  0.25092804  0.23463824  0.58781085  1
  O  O236  1  0.24967673  0.21832636  0.91582051  1
  O  O237  1  0.25213928  0.72764632  0.24842286  1
  O  O238  1  0.25917479  0.73796130  0.59338764  1
  O  O239  1  0.25030189  0.72210739  0.92106477  1
  O  O240  1  0.58405454  0.24639056  0.25660962  1
  O  O241  1  0.58942340  0.23790214  0.58955525  1
  O  O242  1  0.57890121  0.23198443  0.91631179  1
  O  O243  1  0.58971475  0.74317255  0.26210664  1
  O  O244  1  0.58261075  0.72838239  0.58703467  1
  O  O245  1  0.58531182  0.74720341  0.91501838  1
  O  O246  1  0.91888469  0.24211813  0.25267443  1
  O  O247  1  0.90506690  0.23963647  0.57401087  1
  O  O248  1  0.90542705  0.23821212  0.90010890  1
  O  O249  1  0.91213469  0.73601173  0.23693533  1
  O  O250  1  0.90719976  0.73908729  0.58126647  1
  O  O251  1  0.92329929  0.73027831  0.91834889  1
  O  O252  1  0.08582449  0.47887631  0.07337180  1
  O  O253  1  0.08473650  0.48942570  0.40969928  1
  O  O254  1  0.08035168  0.47928118  0.75094628  1
  O  O255  1  0.08275563  0.97564932  0.07672199  1
  O  O256  1  0.07904753  0.98447742  0.40372214  1
  O  O257  1  0.08007172  0.97573306  0.74664689  1
  O  O258  1  0.41949712  0.47589740  0.09427268  1
  O  O259  1  0.43141671  0.48787828  0.43228499  1
  O  O260  1  0.42306932  0.48346856  0.76621905  1
  O  O261  1  0.41808644  0.98035571  0.09208339  1
  O  O262  1  0.42173054  0.97875793  0.42441871  1
  O  O263  1  0.41542647  0.97192298  0.75794581  1
  O  O264  1  0.75799809  0.49954510  0.08383524  1
  O  O265  1  0.75107236  0.48475949  0.42186498  1
  O  O266  1  0.74991431  0.47725865  0.74678855  1
  O  O267  1  0.74978908  0.97716949  0.07889500  1
  O  O268  1  0.74224985  0.98848975  0.40763813  1
  O  O269  1  0.74442233  0.98514321  0.74953943  1
  O  O270  1  0.25877163  0.26570717  0.07518321  1
  O  O271  1  0.26014135  0.25647242  0.40578904  1
  O  O272  1  0.24728588  0.25453858  0.75836882  1
  O  O273  1  0.24289356  0.76518079  0.08483231  1
  O  O274  1  0.26117062  0.76102934  0.41349900  1
  O  O275  1  0.24344484  0.76396667  0.75916926  1
  O  O276  1  0.57996796  0.26528345  0.08626123  1
  O  O277  1  0.58817217  0.27758785  0.41897425  1
  O  O278  1  0.58538319  0.27227917  0.75084636  1
  O  O279  1  0.58392325  0.77289714  0.08880427  1
  O  O280  1  0.58110100  0.77757866  0.42237327  1
  O  O281  1  0.57872727  0.77444288  0.75226143  1
  O  O282  1  0.92386731  0.26099943  0.07183358  1
  O  O283  1  0.91352499  0.26685740  0.41563302  1
  O  O284  1  0.91594653  0.27898468  0.73858190  1
  O  O285  1  0.91500862  0.77855649  0.07903412  1
  O  O286  1  0.91725181  0.76640887  0.40473682  1
  O  O287  1  0.91235253  0.76940852  0.75401473  1
  O  O288  1  0.25641555  0.48571642  0.07675730  1
  O  O289  1  0.26579047  0.49323271  0.41054624  1
  O  O290  1  0.24591126  0.49165746  0.76099543  1
  O  O291  1  0.24797928  0.98127820  0.08335174  1
  O  O292  1  0.25673914  0.98860634  0.40743958  1
  O  O293  1  0.24843720  0.98768829  0.75522220  1
  O  O294  1  0.58073134  0.48559589  0.09027365  1
  O  O295  1  0.58839689  0.46985462  0.41731292  1
  O  O296  1  0.58829469  0.48127232  0.74494942  1
  O  O297  1  0.58471127  0.97373233  0.08842446  1
  O  O298  1  0.58205328  0.97576859  0.42366525  1
  O  O299  1  0.57857541  0.96881322  0.75976997  1
  O  O300  1  0.92798796  0.48930444  0.06846528  1
  O  O301  1  0.91536044  0.48475545  0.41305471  1
  O  O302  1  0.91494430  0.47385960  0.74434482  1
  O  O303  1  0.91696737  0.97815703  0.08013113  1
  O  O304  1  0.91583320  0.98549747  0.40874696  1
  O  O305  1  0.91521229  0.97661887  0.74322956  1
  O  O306  1  0.08828143  0.26998405  0.07585597  1
  O  O307  1  0.08215131  0.25911379  0.40915928  1
  O  O308  1  0.08102821  0.26945136  0.74945643  1
  O  O309  1  0.07854988  0.77496590  0.07235105  1
  O  O310  1  0.08113680  0.76816731  0.40258151  1
  O  O311  1  0.07933980  0.77509089  0.74773334  1
  O  O312  1  0.41997497  0.27402011  0.09416857  1
  O  O313  1  0.42716911  0.26717074  0.42691592  1
  O  O314  1  0.42608712  0.26671572  0.77181989  1
  O  O315  1  0.41665800  0.76937620  0.09128334  1
  O  O316  1  0.42282842  0.77162568  0.42498334  1
  O  O317  1  0.40957306  0.77300907  0.74978490  1
  O  O318  1  0.75000278  0.25213772  0.07758994  1
  O  O319  1  0.75159720  0.27039662  0.42177727  1
  O  O320  1  0.75231407  0.26872904  0.74925175  1
  O  O321  1  0.75216498  0.77119675  0.07727180  1
  O  O322  1  0.73943603  0.76079046  0.40593124  1
  O  O323  1  0.74158362  0.76531190  0.74345258  1
  O  O324  1  0.24971833  0.02167265  0.24609086  1
  O  O325  1  0.25228033  0.01304480  0.59017916  1
  O  O326  1  0.24989262  0.02683058  0.91604644  1
  O  O327  1  0.25019360  0.52224590  0.24588259  1
  O  O328  1  0.25643880  0.51716428  0.58808534  1
  O  O329  1  0.24927422  0.53104586  0.91817571  1
  O  O330  1  0.58943285  0.00490188  0.25972871  1
  O  O331  1  0.58833290  0.01165116  0.59870586  1
  O  O332  1  0.58455395  0.02098568  0.91979768  1
  O  O333  1  0.58676542  0.50867587  0.25956866  1
  O  O334  1  0.57984746  0.52047958  0.57939535  1
  O  O335  1  0.57836956  0.50587949  0.91030573  1
  O  O336  1  0.91979398  0.00339141  0.24871679  1
  O  O337  1  0.90676547  0.01423185  0.57708352  1
  O  O338  1  0.90793121  0.00809838  0.90303419  1
  O  O339  1  0.91245768  0.51684831  0.23765160  1
  O  O340  1  0.90465348  0.50882836  0.57482164  1
  O  O341  1  0.91707830  0.52307229  0.90979607  1
  O  O342  1  0.08931313  0.23996204  0.24319622  1
  O  O343  1  0.07710814  0.24921098  0.58267672  1
  O  O344  1  0.09086171  0.24021070  0.91065811  1
  O  O345  1  0.09156847  0.73875387  0.23223642  1
  O  O346  1  0.08212800  0.75003348  0.58538391  1
  O  O347  1  0.08755664  0.72974160  0.91042381  1
  O  O348  1  0.40807194  0.23504322  0.26643462  1
  O  O349  1  0.41312943  0.23012801  0.60140648  1
  O  O350  1  0.40904786  0.22703853  0.92996660  1
  O  O351  1  0.41376129  0.73606244  0.26462798  1
  O  O352  1  0.41912114  0.72636853  0.58754087  1
  O  O353  1  0.41333007  0.73986760  0.91742335  1
  O  O354  1  0.74392012  0.23599806  0.25870768  1
  O  O355  1  0.74787040  0.22355856  0.58420377  1
  O  O356  1  0.74509417  0.22803775  0.91305056  1
  O  O357  1  0.75469169  0.72623859  0.24434720  1
  O  O358  1  0.74602090  0.72025230  0.57594040  1
  O  O359  1  0.76120388  0.73376139  0.90670543  1
