# generated using pymatgen
data_Ba17Sr5La8Pr42Mn72O216
_symmetry_space_group_name_H-M   'P 1'
_cell_length_a   16.69288767
_cell_length_b   15.71807155
_cell_length_c   16.83274112
_cell_angle_alpha   89.99776497
_cell_angle_beta   90.03262224
_cell_angle_gamma   89.98710091
_symmetry_Int_Tables_number   1
_chemical_formula_structural   Ba17Sr5La8Pr42Mn72O216
_chemical_formula_sum   'Ba17 Sr5 La8 Pr42 Mn72 O216'
_cell_volume   4416.57383075
_cell_formula_units_Z   1
loop_
 _symmetry_equiv_pos_site_id
 _symmetry_equiv_pos_as_xyz
  1  'x, y, z'
loop_
 _atom_site_type_symbol
 _atom_site_label
 _atom_site_symmetry_multiplicity
 _atom_site_fract_x
 _atom_site_fract_y
 _atom_site_fract_z
 _atom_site_occupancy
  Ba  Ba0  1  0.00295781  0.37491000  0.66875680  1
  Ba  Ba1  1  0.16999266  0.87451415  0.16808742  1
  Ba  Ba2  1  0.83489781  0.37572456  0.83012797  1
  Ba  Ba3  1  0.17014147  0.37481920  0.83532324  1
  Ba  Ba4  1  0.16354958  0.12478101  0.16864895  1
  Ba  Ba5  1  0.66202579  0.12382629  0.32937469  1
  Ba  Ba6  1  0.83762438  0.87506999  0.49606565  1
  Ba  Ba7  1  -0.00117408  0.12255310  1.00099370  1
  Ba  Ba8  1  0.16310072  0.62504950  0.16885254  1
  Ba  Ba9  1  0.33595653  0.37550846  0.00089796  1
  Ba  Ba10  1  0.83275621  0.37653275  0.16330523  1
  Ba  Ba11  1  0.50521303  0.87261938  0.83351744  1
  Ba  Ba12  1  0.83233131  0.87323134  0.16412454  1
  Ba  Ba13  1  0.66396949  0.12569262  0.99703472  1
  Ba  Ba14  1  0.00171543  0.87421651  -0.00148999  1
  Ba  Ba15  1  0.67133887  0.37523455  -0.00482859  1
  Ba  Ba16  1  0.66159240  0.62548532  0.33103442  1
  Sr  Sr17  1  0.49602839  0.62689426  0.83340707  1
  Sr  Sr18  1  0.67508471  0.37641044  0.66769141  1
  Sr  Sr19  1  -0.00392749  0.62880218  1.00036428  1
  Sr  Sr20  1  0.33600487  0.87487868  0.33237418  1
  Sr  Sr21  1  0.17494443  0.87618634  0.83746228  1
  La  La22  1  0.66471468  0.62351839  0.99742155  1
  La  La23  1  0.33846848  0.37521687  0.67748283  1
  La  La24  1  0.67908411  0.87398154  0.66648354  1
  La  La25  1  0.17012724  0.37497836  0.16504803  1
  La  La26  1  0.00960735  0.37520905  0.33795216  1
  La  La27  1  0.84094145  0.37521930  0.49538721  1
  La  La28  1  -0.00879850  0.12300225  0.32880284  1
  La  La29  1  0.32724546  0.62666849  0.99991202  1
  Pr  Pr30  1  0.83194201  0.62801126  0.16111305  1
  Pr  Pr31  1  0.32658497  0.62588519  0.33412135  1
  Pr  Pr32  1  -0.01046564  0.62244766  0.66661929  1
  Pr  Pr33  1  0.82673866  0.62374632  0.83015973  1
  Pr  Pr34  1  0.83883270  0.88023200  0.83205935  1
  Pr  Pr35  1  0.32579157  0.12309626  0.33377743  1
  Pr  Pr36  1  0.15590550  0.62546775  0.50500151  1
  Pr  Pr37  1  0.49275577  0.62177331  0.16854071  1
  Pr  Pr38  1  0.00333768  0.37714456  0.00259405  1
  Pr  Pr39  1  0.82650513  0.12876854  0.83265522  1
  Pr  Pr40  1  0.33910692  0.87297823  0.00712804  1
  Pr  Pr41  1  0.49276391  0.12756186  0.16784584  1
  Pr  Pr42  1  0.15662262  0.12405837  0.50350847  1
  Pr  Pr43  1  0.17649450  0.87495486  0.49748125  1
  Pr  Pr44  1  0.17824413  0.37390801  0.50409764  1
  Pr  Pr45  1  0.32718366  0.12319661  1.00029612  1
  Pr  Pr46  1  0.15971899  0.12663235  0.84123026  1
  Pr  Pr47  1  0.65816792  0.62214687  0.66167558  1
  Pr  Pr48  1  0.51202170  0.37415897  0.49949927  1
  Pr  Pr49  1  0.67876850  0.37492110  0.33144295  1
  Pr  Pr50  1  0.34334903  0.87500925  0.67176711  1
  Pr  Pr51  1  0.15986821  0.62445894  0.84161248  1
  Pr  Pr52  1  0.81949775  0.62459355  0.50192041  1
  Pr  Pr53  1  0.48661985  0.62435782  0.50517578  1
  Pr  Pr54  1  0.65994710  0.12667208  0.66247251  1
  Pr  Pr55  1  0.67156215  0.87306353  -0.00224982  1
  Pr  Pr56  1  0.01197554  0.87440763  0.33596517  1
  Pr  Pr57  1  0.50805345  0.87516780  0.49552429  1
  Pr  Pr58  1  0.48734576  0.12508621  0.50318581  1
  Pr  Pr59  1  0.49367944  0.12469392  0.83646139  1
  Pr  Pr60  1  0.51023039  0.37635399  0.82956945  1
  Pr  Pr61  1  0.82116662  0.12552051  0.50012222  1
  Pr  Pr62  1  -0.00942437  0.12726701  0.66843496  1
  Pr  Pr63  1  0.00896343  0.87477068  0.67198085  1
  Pr  Pr64  1  0.32188062  0.12140612  0.66893422  1
  Pr  Pr65  1  -0.01008795  0.62700054  0.33034992  1
  Pr  Pr66  1  0.67378866  0.87496675  0.33334290  1
  Pr  Pr67  1  0.33966354  0.37434659  0.33570277  1
  Pr  Pr68  1  0.82937310  0.12163194  0.16162835  1
  Pr  Pr69  1  0.50500417  0.87447936  0.16477603  1
  Pr  Pr70  1  0.32121998  0.62931324  0.67086525  1
  Pr  Pr71  1  0.50872367  0.37528301  0.16467108  1
  Mn  Mn72  1  -0.00181718  -0.00045796  0.16792340  1
  Mn  Mn73  1  0.00049543  0.00090548  0.50117565  1
  Mn  Mn74  1  0.00268159  -0.00114885  0.83006854  1
  Mn  Mn75  1  -0.00167537  0.50073233  0.16940767  1
  Mn  Mn76  1  0.00076545  0.50104730  0.49905517  1
  Mn  Mn77  1  0.00031422  0.50283246  0.83442181  1
  Mn  Mn78  1  0.33558900  0.00003893  0.16915273  1
  Mn  Mn79  1  0.33261254  0.00026954  0.50212779  1
  Mn  Mn80  1  0.33497688  -0.00113879  0.83417384  1
  Mn  Mn81  1  0.33356537  0.49939000  0.17065150  1
  Mn  Mn82  1  0.33287409  0.49842059  0.50489996  1
  Mn  Mn83  1  0.33647749  0.50239484  0.83454946  1
  Mn  Mn84  1  0.66331632  -0.00097210  0.16348065  1
  Mn  Mn85  1  0.66369051  0.00102093  0.49781417  1
  Mn  Mn86  1  0.66782558  -0.00100107  0.82856016  1
  Mn  Mn87  1  0.66381900  0.50184544  0.16456590  1
  Mn  Mn88  1  0.66444158  0.49805573  0.49825511  1
  Mn  Mn89  1  0.66546700  0.50315538  0.82779835  1
  Mn  Mn90  1  -0.00249510  0.25108665  0.16939712  1
  Mn  Mn91  1  0.00065836  0.24828572  0.49930881  1
  Mn  Mn92  1  0.00044133  0.24938205  0.83355495  1
  Mn  Mn93  1  -0.00139223  0.74917718  0.16659876  1
  Mn  Mn94  1  0.00050814  0.74969407  0.50168744  1
  Mn  Mn95  1  0.00187227  0.75038314  0.83002464  1
  Mn  Mn96  1  0.33372284  0.25071587  0.17065027  1
  Mn  Mn97  1  0.33351827  0.25054702  0.50486257  1
  Mn  Mn98  1  0.33731859  0.24852501  0.83407753  1
  Mn  Mn99  1  0.33520661  0.74907919  0.16997384  1
  Mn  Mn100  1  0.33220465  0.74994700  0.50203217  1
  Mn  Mn101  1  0.33361373  0.75105815  0.83478402  1
  Mn  Mn102  1  0.66455919  0.24855002  0.16535336  1
  Mn  Mn103  1  0.66526809  0.25070967  0.49806578  1
  Mn  Mn104  1  0.66554093  0.24981530  0.82636287  1
  Mn  Mn105  1  0.66262931  0.74905322  0.16406331  1
  Mn  Mn106  1  0.66323039  0.74984834  0.49842386  1
  Mn  Mn107  1  0.66925627  0.75005891  0.82957016  1
  Mn  Mn108  1  0.16648420  0.25096411  0.00287701  1
  Mn  Mn109  1  0.16759795  0.25131093  0.33764710  1
  Mn  Mn110  1  0.16717636  0.24680618  0.66882031  1
  Mn  Mn111  1  0.16732561  0.75051885  0.00032466  1
  Mn  Mn112  1  0.16848097  0.74880894  0.33952565  1
  Mn  Mn113  1  0.16583472  0.75214525  0.66885089  1
  Mn  Mn114  1  0.49928965  0.25032382  -0.00005210  1
  Mn  Mn115  1  0.49870124  0.25086778  0.33484078  1
  Mn  Mn116  1  0.49919989  0.24891692  0.66644046  1
  Mn  Mn117  1  0.50081619  0.74872308  0.00177289  1
  Mn  Mn118  1  0.49736159  0.75093368  0.33390152  1
  Mn  Mn119  1  0.49987331  0.74957485  0.66439934  1
  Mn  Mn120  1  0.83506678  0.24977060  -0.00175443  1
  Mn  Mn121  1  0.83428704  0.24998589  0.33167222  1
  Mn  Mn122  1  0.83162665  0.24825044  0.66346548  1
  Mn  Mn123  1  0.83195099  0.74762649  -0.00548160  1
  Mn  Mn124  1  0.83334253  0.74896696  0.33300121  1
  Mn  Mn125  1  0.83603355  0.75038861  0.66417554  1
  Mn  Mn126  1  0.16913602  -0.00165901  -0.00005768  1
  Mn  Mn127  1  0.16787197  -0.00013343  0.33812208  1
  Mn  Mn128  1  0.16588837  -0.00092535  0.66802844  1
  Mn  Mn129  1  0.16552137  0.50068024  0.00299442  1
  Mn  Mn130  1  0.16807754  0.49889769  0.33836164  1
  Mn  Mn131  1  0.16647731  0.50244514  0.66950438  1
  Mn  Mn132  1  0.49984492  -0.00017120  0.00066227  1
  Mn  Mn133  1  0.49731211  -0.00086878  0.33299105  1
  Mn  Mn134  1  0.50096366  0.00048476  0.66557964  1
  Mn  Mn135  1  0.50016474  0.50111432  -0.00097376  1
  Mn  Mn136  1  0.49852037  0.49886606  0.33558425  1
  Mn  Mn137  1  0.49786996  0.50096073  0.66589041  1
  Mn  Mn138  1  0.83185745  0.00046121  -0.00347087  1
  Mn  Mn139  1  0.83335778  -0.00057454  0.33225747  1
  Mn  Mn140  1  0.83566534  0.00052317  0.66309953  1
  Mn  Mn141  1  0.83555771  0.50260701  -0.00284903  1
  Mn  Mn142  1  0.83437472  0.50136506  0.33191578  1
  Mn  Mn143  1  0.83169944  0.50133752  0.66376489  1
  O  O144  1  0.17345237  0.12550266  0.00820626  1
  O  O145  1  0.17383555  0.12773627  0.35979074  1
  O  O146  1  0.17392239  0.12112455  0.69525770  1
  O  O147  1  0.17137856  0.62471336  0.00897437  1
  O  O148  1  0.17572732  0.62294697  0.36255302  1
  O  O149  1  0.17342869  0.63260276  0.69532950  1
  O  O150  1  0.49718632  0.12321172  0.02361881  1
  O  O151  1  0.49631833  0.12667051  0.36068311  1
  O  O152  1  0.51070133  0.12472949  0.69036106  1
  O  O153  1  0.50851056  0.62544100  0.02493215  1
  O  O154  1  0.49598219  0.62320838  0.36262546  1
  O  O155  1  0.51072208  0.62714884  0.68035261  1
  O  O156  1  0.83290503  0.12365768  0.01624978  1
  O  O157  1  0.83816401  0.12557270  0.35683962  1
  O  O158  1  0.83325503  0.12175075  0.68574941  1
  O  O159  1  0.83318286  0.62545469  0.01603266  1
  O  O160  1  0.83941806  0.62494864  0.35909966  1
  O  O161  1  0.83377773  0.62906694  0.68349917  1
  O  O162  1  0.16248488  0.37476089  0.31333695  1
  O  O163  1  0.17381921  0.37014830  0.64774167  1
  O  O164  1  0.16105344  0.37597187  0.99436329  1
  O  O165  1  0.16036803  0.87350219  0.32868715  1
  O  O166  1  0.15926223  0.87580942  0.63860180  1
  O  O167  1  0.18008388  0.87484089  0.98842646  1
  O  O168  1  0.48643180  0.37486079  0.30988376  1
  O  O169  1  0.48772757  0.37388129  0.64357614  1
  O  O170  1  0.49861993  0.37714646  0.97339101  1
  O  O171  1  0.49029308  0.87410804  0.30907240  1
  O  O172  1  0.49181939  0.87423653  0.64084140  1
  O  O173  1  0.48833314  0.87476401  0.98867175  1
  O  O174  1  0.83288022  0.37614707  0.32341819  1
  O  O175  1  0.83286464  0.37330109  0.64175936  1
  O  O176  1  0.84188639  0.37839360  0.98756940  1
  O  O177  1  0.82455662  0.87256470  0.32277534  1
  O  O178  1  0.84104412  0.87510129  0.65189199  1
  O  O179  1  0.82392955  0.87281921  0.97484091  1
  O  O180  1  -0.00032845  0.37583039  0.19439218  1
  O  O181  1  -0.00806945  0.37520938  0.51233524  1
  O  O182  1  -0.00172529  0.37813904  0.85396595  1
  O  O183  1  -0.00083886  0.87284474  0.19142429  1
  O  O184  1  0.00520228  0.87734449  0.52744424  1
  O  O185  1  -0.01355926  0.87427002  0.83788966  1
  O  O186  1  0.33107386  0.37517490  0.19231187  1
  O  O187  1  0.32767378  0.37586624  0.53445208  1
  O  O188  1  0.34212041  0.37529823  0.84203887  1
  O  O189  1  0.34225430  0.87462264  0.18135965  1
  O  O190  1  0.32701768  0.87873780  0.53010590  1
  O  O191  1  0.33424147  0.87563415  0.85949104  1
  O  O192  1  0.65906963  0.37554574  0.18678548  1
  O  O193  1  0.66455622  0.37458176  0.51799261  1
  O  O194  1  0.65916620  0.37764183  0.83692928  1
  O  O195  1  0.65900203  0.87301050  0.19039080  1
  O  O196  1  0.65997578  0.87584009  0.52144497  1
  O  O197  1  0.67421405  0.87333508  0.85219669  1
  O  O198  1  -0.00515382  0.12597708  0.16112748  1
  O  O199  1  0.00782921  0.12427171  0.47333778  1
  O  O200  1  0.01129329  0.12042485  0.81332034  1
  O  O201  1  -0.00546989  0.62453828  0.15324410  1
  O  O202  1  0.00882046  0.62354990  0.47364192  1
  O  O203  1  0.01058461  0.62902543  0.81096204  1
  O  O204  1  0.34052693  0.12600039  0.14765727  1
  O  O205  1  0.33748715  0.12503663  0.47616131  1
  O  O206  1  0.34314294  0.12276720  0.81070374  1
  O  O207  1  0.34062738  0.62327544  0.14862618  1
  O  O208  1  0.33699648  0.61935236  0.47640968  1
  O  O209  1  0.33028035  0.62741255  0.81359113  1
  O  O210  1  0.66002099  0.12388596  0.15520158  1
  O  O211  1  0.66666870  0.12667744  0.48689906  1
  O  O212  1  0.66869801  0.12171225  0.80615619  1
  O  O213  1  0.65467982  0.62667934  0.14454863  1
  O  O214  1  0.66493683  0.62283830  0.48942222  1
  O  O215  1  0.67028162  0.62903043  0.80468814  1
  O  O216  1  0.07563007  0.01070771  0.26837575  1
  O  O217  1  0.07440900  0.02614088  0.59311469  1
  O  O218  1  0.08684596  0.00648287  0.91322152  1
  O  O219  1  0.06985685  0.51341640  0.26613165  1
  O  O220  1  0.07502365  0.52256310  0.58998585  1
  O  O221  1  0.07756802  0.51549006  0.92202054  1
  O  O222  1  0.41015755  0.02504966  0.25941119  1
  O  O223  1  0.40739195  0.02388898  0.59124636  1
  O  O224  1  0.41073046  0.02085966  0.92560855  1
  O  O225  1  0.40789050  0.51996719  0.26424494  1
  O  O226  1  0.40454486  0.52530531  0.59590187  1
  O  O227  1  0.41125239  0.52408586  0.92547767  1
  O  O228  1  0.74810817  0.01243074  0.24200825  1
  O  O229  1  0.74291940  0.01611482  0.58999395  1
  O  O230  1  0.75083483  0.01407089  0.90825208  1
  O  O231  1  0.74293913  0.51016934  0.25037422  1
  O  O232  1  0.74212094  0.51894597  0.58586081  1
  O  O233  1  0.74702932  0.52125641  0.91389095  1
  O  O234  1  0.24906259  0.23821438  0.25595581  1
  O  O235  1  0.24030548  0.22639888  0.57695158  1
  O  O236  1  0.25160326  0.23030658  0.90928012  1
  O  O237  1  0.25057302  0.73668656  0.25373376  1
  O  O238  1  0.23796873  0.72969091  0.57681705  1
  O  O239  1  0.24375837  0.73245590  0.91057839  1
  O  O240  1  0.56766988  0.23957211  0.23971347  1
  O  O241  1  0.56856489  0.23415476  0.57305203  1
  O  O242  1  0.57402020  0.23742213  0.89775134  1
  O  O243  1  0.56798345  0.73649589  0.23955547  1
  O  O244  1  0.56896676  0.73512372  0.56942960  1
  O  O245  1  0.58278556  0.73566982  0.91697433  1
  O  O246  1  0.90473979  0.22847647  0.24192486  1
  O  O247  1  0.90786583  0.22757349  0.57251578  1
  O  O248  1  0.91095716  0.23108791  0.90626982  1
  O  O249  1  0.91023299  0.72845949  0.24656053  1
  O  O250  1  0.90725210  0.72362469  0.57041408  1
  O  O251  1  0.90661050  0.73621554  0.89804383  1
  O  O252  1  0.08527153  0.47982084  0.09539430  1
  O  O253  1  0.09613543  0.47967484  0.43170076  1
  O  O254  1  0.09158950  0.49543606  0.75594223  1
  O  O255  1  0.08599737  0.99236564  0.08779272  1
  O  O256  1  0.09499670  0.98415696  0.43357457  1
  O  O257  1  0.09145247  0.97858744  0.75269043  1
  O  O258  1  0.42475580  0.48678342  0.09857097  1
  O  O259  1  0.42421367  0.47606428  0.43270000  1
  O  O260  1  0.42821355  0.48696653  0.75938438  1
  O  O261  1  0.42584645  0.98588562  0.09449717  1
  O  O262  1  0.42541368  0.98366699  0.42955873  1
  O  O263  1  0.42216636  0.98696685  0.75299605  1
  O  O264  1  0.75237262  0.50325928  0.08345051  1
  O  O265  1  0.75897303  0.48436266  0.42264517  1
  O  O266  1  0.75216363  0.49661703  0.74777621  1
  O  O267  1  0.74479111  0.98531820  0.07530141  1
  O  O268  1  0.75090393  0.99111348  0.41595982  1
  O  O269  1  0.76140798  0.98014868  0.75079422  1
  O  O270  1  0.25193732  0.26108971  0.08786961  1
  O  O271  1  0.25977074  0.27420165  0.41599048  1
  O  O272  1  0.26585298  0.25731029  0.73930276  1
  O  O273  1  0.26428375  0.75828131  0.07555265  1
  O  O274  1  0.25853712  0.76710240  0.41534721  1
  O  O275  1  0.25888708  0.77219279  0.73605179  1
  O  O276  1  0.58239198  0.26642843  0.07977311  1
  O  O277  1  0.58970445  0.27583844  0.40493989  1
  O  O278  1  0.58966586  0.26641050  0.73488927  1
  O  O279  1  0.58675479  0.77570525  0.07692398  1
  O  O280  1  0.58730421  0.77633744  0.40460698  1
  O  O281  1  0.59925301  0.76592842  0.73360148  1
  O  O282  1  0.92708649  0.26521233  0.07582490  1
  O  O283  1  0.92730281  0.26385169  0.40573756  1
  O  O284  1  0.92097581  0.24939240  0.74231842  1
  O  O285  1  0.91153535  0.75414104  0.07606228  1
  O  O286  1  0.93532852  0.76483245  0.40732418  1
  O  O287  1  0.93283104  0.75675168  0.72983835  1
  O  O288  1  0.25176451  0.48909544  0.08933201  1
  O  O289  1  0.26017942  0.47261875  0.41763593  1
  O  O290  1  0.26521635  0.49081041  0.74034298  1
  O  O291  1  0.26556847  0.99097231  0.07406402  1
  O  O292  1  0.25720498  0.98398094  0.41560865  1
  O  O293  1  0.26153332  0.98132168  0.73914891  1
  O  O294  1  0.58397776  0.48310790  0.07989227  1
  O  O295  1  0.58980691  0.47357043  0.40602880  1
  O  O296  1  0.58765038  0.48699288  0.73655434  1
  O  O297  1  0.58752646  0.97423579  0.07490635  1
  O  O298  1  0.58664658  0.97491911  0.40478671  1
  O  O299  1  0.59872004  0.98261881  0.73266687  1
  O  O300  1  0.92766533  0.48906038  0.07508737  1
  O  O301  1  0.92938688  0.48586742  0.40729379  1
  O  O302  1  0.92148706  0.50062528  0.74359006  1
  O  O303  1  0.91209951  0.99394842  0.08191815  1
  O  O304  1  0.93326018  0.98455331  0.40730408  1
  O  O305  1  0.92961513  0.99125370  0.73337346  1
  O  O306  1  0.08500333  0.27038722  0.09556294  1
  O  O307  1  0.09710367  0.26951074  0.43057094  1
  O  O308  1  0.09114023  0.25432422  0.75424597  1
  O  O309  1  0.08615303  0.75701579  0.08614318  1
  O  O310  1  0.09656726  0.76534836  0.43567527  1
  O  O311  1  0.09258879  0.77307610  0.75549752  1
  O  O312  1  0.42371387  0.26476206  0.09993180  1
  O  O313  1  0.42568732  0.27109195  0.43175593  1
  O  O314  1  0.43134224  0.26409575  0.76130240  1
  O  O315  1  0.42632755  0.76159985  0.09496645  1
  O  O316  1  0.42706685  0.76638870  0.42947696  1
  O  O317  1  0.42052038  0.75992007  0.74942466  1
  O  O318  1  0.75497784  0.25086204  0.08767208  1
  O  O319  1  0.76063334  0.26662863  0.42234768  1
  O  O320  1  0.75223262  0.25372744  0.74656367  1
  O  O321  1  0.74293967  0.75803054  0.07361142  1
  O  O322  1  0.75111469  0.75699162  0.41821131  1
  O  O323  1  0.76688235  0.76955850  0.75559737  1
  O  O324  1  0.25066486  0.01226540  0.25300924  1
  O  O325  1  0.24039193  0.02291939  0.57785805  1
  O  O326  1  0.24890950  0.02143981  0.90825152  1
  O  O327  1  0.24966550  0.51167739  0.25649119  1
  O  O328  1  0.23971203  0.52199230  0.57725672  1
  O  O329  1  0.24864794  0.51685561  0.91117961  1
  O  O330  1  0.56784402  0.01054910  0.23781790  1
  O  O331  1  0.57093437  0.01819409  0.57130730  1
  O  O332  1  0.57519990  0.01392439  0.90582491  1
  O  O333  1  0.56906846  0.51111480  0.23995118  1
  O  O334  1  0.56828159  0.51183968  0.57109568  1
  O  O335  1  0.58141515  0.51782521  0.90726852  1
  O  O336  1  0.90976655  0.01829498  0.24773786  1
  O  O337  1  0.90883789  0.02729175  0.57207056  1
  O  O338  1  0.90880697  0.01233721  0.89944396  1
  O  O339  1  0.90691921  0.52415153  0.24290731  1
  O  O340  1  0.90760796  0.52084353  0.57044939  1
  O  O341  1  0.91155571  0.52407668  0.90798579  1
  O  O342  1  0.07124030  0.23901888  0.26703140  1
  O  O343  1  0.07729612  0.22579733  0.59078609  1
  O  O344  1  0.08232402  0.24083529  0.91860896  1
  O  O345  1  0.07636902  0.73597659  0.27183483  1
  O  O346  1  0.07238003  0.72699107  0.59536826  1
  O  O347  1  0.08016235  0.73828025  0.91648280  1
  O  O348  1  0.40688847  0.23005519  0.26486575  1
  O  O349  1  0.40654782  0.22418052  0.59621974  1
  O  O350  1  0.41253706  0.22536141  0.92408381  1
  O  O351  1  0.41017673  0.72492480  0.26044981  1
  O  O352  1  0.40462810  0.72811192  0.59096424  1
  O  O353  1  0.41032195  0.73185242  0.93131036  1
  O  O354  1  0.74304214  0.24420919  0.25464430  1
  O  O355  1  0.74444291  0.22871620  0.58612057  1
  O  O356  1  0.74907210  0.23746780  0.90923659  1
  O  O357  1  0.74685251  0.73260970  0.24085563  1
  O  O358  1  0.74104998  0.73525279  0.59333581  1
  O  O359  1  0.74564178  0.72461090  0.91544009  1
