# generated using pymatgen
data_Ba17Sr5La8Pr42Mn72O216
_symmetry_space_group_name_H-M   'P 1'
_cell_length_a   16.67397431
_cell_length_b   15.70115718
_cell_length_c   16.82410270
_cell_angle_alpha   89.98848488
_cell_angle_beta   90.03477269
_cell_angle_gamma   89.99540686
_symmetry_Int_Tables_number   1
_chemical_formula_structural   Ba17Sr5La8Pr42Mn72O216
_chemical_formula_sum   'Ba17 Sr5 La8 Pr42 Mn72 O216'
_cell_volume   4404.56080761
_cell_formula_units_Z   1
loop_
 _symmetry_equiv_pos_site_id
 _symmetry_equiv_pos_as_xyz
  1  'x, y, z'
loop_
 _atom_site_type_symbol
 _atom_site_label
 _atom_site_symmetry_multiplicity
 _atom_site_fract_x
 _atom_site_fract_y
 _atom_site_fract_z
 _atom_site_occupancy
  Ba  Ba0  1  0.50296026  0.62463527  0.83483206  1
  Ba  Ba1  1  0.16631906  0.87812909  0.83287603  1
  Ba  Ba2  1  0.83759172  0.62292014  0.16442642  1
  Ba  Ba3  1  -0.00343408  0.37492974  0.66603421  1
  Ba  Ba4  1  0.16966805  0.62500891  0.83190840  1
  Ba  Ba5  1  0.33100130  0.12521600  0.32865853  1
  Ba  Ba6  1  0.50183951  0.62315480  0.16676368  1
  Ba  Ba7  1  0.66733190  0.87341800  0.33596234  1
  Ba  Ba8  1  0.83342689  0.12696450  0.16792417  1
  Ba  Ba9  1  0.33775357  0.62417412  0.99716143  1
  Ba  Ba10  1  0.00227708  0.87671242  0.00199969  1
  Ba  Ba11  1  0.66696990  0.62513754  0.67120739  1
  Ba  Ba12  1  0.33254349  0.37191213  0.66534610  1
  Ba  Ba13  1  0.33359431  0.62442941  0.66484513  1
  Ba  Ba14  1  0.66449434  0.12507779  0.66673002  1
  Ba  Ba15  1  -0.00100478  0.12479955  1.00440402  1
  Ba  Ba16  1  0.00050040  0.62306855  0.66872177  1
  Sr  Sr17  1  0.32692847  0.12425139  0.66034035  1
  Sr  Sr18  1  0.16807256  0.87882513  0.16141743  1
  Sr  Sr19  1  0.83032322  0.87477077  0.49924289  1
  Sr  Sr20  1  0.16131937  0.12209432  0.17024708  1
  Sr  Sr21  1  0.83030263  0.37661397  0.50104010  1
  La  La22  1  0.16584325  0.87300701  0.49804992  1
  La  La23  1  0.33241127  0.87580129  0.32936310  1
  La  La24  1  -0.00320560  0.12412122  0.32747255  1
  La  La25  1  0.33301499  0.62367147  0.32887560  1
  La  La26  1  0.33599769  0.37703301  -0.00340049  1
  La  La27  1  0.49820275  0.87626843  0.16539004  1
  La  La28  1  0.83993880  0.62350506  0.83908757  1
  La  La29  1  -0.00421142  0.87264276  0.67104216  1
  Pr  Pr30  1  0.83152100  0.87746152  0.83169302  1
  Pr  Pr31  1  0.49921105  0.37728542  0.82957956  1
  Pr  Pr32  1  0.49906323  0.37251082  0.16560816  1
  Pr  Pr33  1  0.67287728  0.62519467  0.99468057  1
  Pr  Pr34  1  0.49750308  0.87455156  0.83277161  1
  Pr  Pr35  1  -0.00345638  0.12350907  0.66551252  1
  Pr  Pr36  1  0.49329714  0.12796049  0.83369689  1
  Pr  Pr37  1  0.66666083  0.12369945  0.33341722  1
  Pr  Pr38  1  0.83033279  0.12783699  0.83790896  1
  Pr  Pr39  1  0.49692617  0.87587335  0.49983808  1
  Pr  Pr40  1  0.83152951  0.37310058  0.83024410  1
  Pr  Pr41  1  0.66615507  0.12532829  0.99560042  1
  Pr  Pr42  1  0.66462504  0.37468528  0.67072856  1
  Pr  Pr43  1  0.32875323  0.12374222  0.99823223  1
  Pr  Pr44  1  0.83806814  0.62763835  0.50416776  1
  Pr  Pr45  1  0.17103563  0.37086432  0.16492815  1
  Pr  Pr46  1  0.33186065  0.87719625  0.66893022  1
  Pr  Pr47  1  0.49643646  0.12228577  0.50431448  1
  Pr  Pr48  1  0.16912984  0.37819042  0.49704306  1
  Pr  Pr49  1  0.66222020  0.87530859  0.66689804  1
  Pr  Pr50  1  0.00296274  0.37362672  0.33739009  1
  Pr  Pr51  1  0.33877832  0.37315723  0.33498941  1
  Pr  Pr52  1  0.01138661  0.62815609  0.99531965  1
  Pr  Pr53  1  0.16674552  0.37488128  0.82935445  1
  Pr  Pr54  1  0.66727487  0.37903655  0.33652749  1
  Pr  Pr55  1  0.16132665  0.12938557  0.83325737  1
  Pr  Pr56  1  0.50052427  0.37335869  0.50240463  1
  Pr  Pr57  1  0.66566168  0.37498234  0.00277837  1
  Pr  Pr58  1  0.83069388  0.12441071  0.50039378  1
  Pr  Pr59  1  0.00124774  0.62362322  0.33386248  1
  Pr  Pr60  1  0.50061197  0.12464159  0.17133695  1
  Pr  Pr61  1  0.33155638  0.87049340  0.00141778  1
  Pr  Pr62  1  0.83271918  0.87630770  0.16437495  1
  Pr  Pr63  1  -0.00254242  0.87567223  0.33229786  1
  Pr  Pr64  1  0.66506851  0.87456805  0.00583080  1
  Pr  Pr65  1  0.16072351  0.12714062  0.49876323  1
  Pr  Pr66  1  0.50359054  0.62650333  0.50727183  1
  Pr  Pr67  1  0.16633318  0.62360880  0.50577609  1
  Pr  Pr68  1  0.00269323  0.37740338  0.00375754  1
  Pr  Pr69  1  0.67518151  0.62506142  0.33417552  1
  Pr  Pr70  1  0.83319506  0.37402193  0.16857055  1
  Pr  Pr71  1  0.16783873  0.62940172  0.16504671  1
  Mn  Mn72  1  0.00018504  -0.00077948  0.16883079  1
  Mn  Mn73  1  -0.00136113  0.00009377  0.49933831  1
  Mn  Mn74  1  -0.00275169  0.00078457  0.83105210  1
  Mn  Mn75  1  0.00423134  0.49892835  0.16860024  1
  Mn  Mn76  1  -0.00063193  0.49738354  0.49861300  1
  Mn  Mn77  1  -0.00034684  0.49774931  0.83818468  1
  Mn  Mn78  1  0.33402356  0.00057047  0.16337824  1
  Mn  Mn79  1  0.33050932  0.00011686  0.49869069  1
  Mn  Mn80  1  0.33310068  0.00362568  0.83121886  1
  Mn  Mn81  1  0.33343744  0.49858407  0.16732376  1
  Mn  Mn82  1  0.33465512  0.49829644  0.49458219  1
  Mn  Mn83  1  0.33433443  0.49816204  0.83282768  1
  Mn  Mn84  1  0.66687758  0.00121444  0.16688945  1
  Mn  Mn85  1  0.66527857  0.00072763  0.50001229  1
  Mn  Mn86  1  0.66462539  0.00035505  0.83445469  1
  Mn  Mn87  1  0.66743608  0.49996986  0.16857366  1
  Mn  Mn88  1  0.66577969  0.49984300  0.50148034  1
  Mn  Mn89  1  0.66960130  0.49767908  0.83556628  1
  Mn  Mn90  1  0.00160416  0.25401767  0.17007289  1
  Mn  Mn91  1  -0.00089490  0.24913073  0.49870663  1
  Mn  Mn92  1  -0.00245432  0.24981520  0.83436955  1
  Mn  Mn93  1  0.00160854  0.74816759  0.16783734  1
  Mn  Mn94  1  -0.00085982  0.75266690  0.49958511  1
  Mn  Mn95  1  -0.00073164  0.75127953  0.83465788  1
  Mn  Mn96  1  0.33417462  0.25092014  0.16418691  1
  Mn  Mn97  1  0.33203454  0.24868717  0.49775491  1
  Mn  Mn98  1  0.33288522  0.24680411  0.83182775  1
  Mn  Mn99  1  0.33367648  0.74869795  0.16708018  1
  Mn  Mn100  1  0.33290900  0.75201021  0.49581563  1
  Mn  Mn101  1  0.33504837  0.75292395  0.83353286  1
  Mn  Mn102  1  0.66672497  0.25073513  0.16863431  1
  Mn  Mn103  1  0.66600933  0.25126922  0.49962530  1
  Mn  Mn104  1  0.66431207  0.24933423  0.83461448  1
  Mn  Mn105  1  0.66725357  0.74855521  0.16807481  1
  Mn  Mn106  1  0.66613970  0.74962951  0.50123172  1
  Mn  Mn107  1  0.66939396  0.75411433  0.83563090  1
  Mn  Mn108  1  0.16769291  0.24904603  -0.00096112  1
  Mn  Mn109  1  0.16636902  0.25040277  0.33189930  1
  Mn  Mn110  1  0.16343542  0.24855805  0.66545092  1
  Mn  Mn111  1  0.16953467  0.75227231  0.00116065  1
  Mn  Mn112  1  0.16543515  0.74997183  0.33267075  1
  Mn  Mn113  1  0.16638224  0.75113335  0.66311260  1
  Mn  Mn114  1  0.50025744  0.24885779  0.00072468  1
  Mn  Mn115  1  0.50271222  0.25055825  0.33391103  1
  Mn  Mn116  1  0.49824750  0.24830025  0.66642655  1
  Mn  Mn117  1  0.50411071  0.75206703  0.00007819  1
  Mn  Mn118  1  0.49915316  0.74930119  0.33586507  1
  Mn  Mn119  1  0.49929467  0.75238975  0.66599097  1
  Mn  Mn120  1  0.83341120  0.25216553  0.00051359  1
  Mn  Mn121  1  0.83214217  0.25328172  0.33556666  1
  Mn  Mn122  1  0.83107335  0.24919695  0.66625487  1
  Mn  Mn123  1  0.83464356  0.75182150  0.00018151  1
  Mn  Mn124  1  0.83572783  0.74868765  0.33425854  1
  Mn  Mn125  1  0.83107216  0.75112217  0.66677739  1
  Mn  Mn126  1  0.16812488  0.00373382  -0.00009334  1
  Mn  Mn127  1  0.16501469  -0.00369949  0.33216496  1
  Mn  Mn128  1  0.16404512  0.00211435  0.66285061  1
  Mn  Mn129  1  0.16914145  0.49567209  0.00015448  1
  Mn  Mn130  1  0.16664201  0.50154909  0.33076107  1
  Mn  Mn131  1  0.16606624  0.49800492  0.66487026  1
  Mn  Mn132  1  0.50018496  0.00273126  0.00010780  1
  Mn  Mn133  1  0.49998161  0.00004633  0.33408677  1
  Mn  Mn134  1  0.49715767  0.00064238  0.66701535  1
  Mn  Mn135  1  0.50450344  0.49657394  0.00039077  1
  Mn  Mn136  1  0.50080517  0.49999055  0.33668690  1
  Mn  Mn137  1  0.49996997  0.49975476  0.66591028  1
  Mn  Mn138  1  0.83104225  0.00092402  -0.00040807  1
  Mn  Mn139  1  0.83333641  -0.00048210  0.33482282  1
  Mn  Mn140  1  0.83127307  0.00028353  0.66555344  1
  Mn  Mn141  1  0.83613897  0.49641791  0.00079692  1
  Mn  Mn142  1  0.83475317  0.49889430  0.33526465  1
  Mn  Mn143  1  0.83085798  0.49960191  0.66678708  1
  O  O144  1  0.17496272  0.12799059  0.02090853  1
  O  O145  1  0.16126255  0.12142907  0.35503466  1
  O  O146  1  0.16167523  0.12546899  0.68878273  1
  O  O147  1  0.16474890  0.62017642  0.01955108  1
  O  O148  1  0.16935612  0.62616111  0.36231640  1
  O  O149  1  0.16738797  0.62384282  0.67079891  1
  O  O150  1  0.49965242  0.12650881  0.02963856  1
  O  O151  1  0.50730599  0.12882125  0.36001139  1
  O  O152  1  0.49667727  0.12283054  0.68959634  1
  O  O153  1  0.50936597  0.62332043  0.00926952  1
  O  O154  1  0.48969521  0.62396698  0.36339120  1
  O  O155  1  0.49946164  0.62716610  0.67381728  1
  O  O156  1  0.82282627  0.12704022  0.01214135  1
  O  O157  1  0.84055593  0.13014638  0.35451941  1
  O  O158  1  0.83675514  0.12356658  0.69303717  1
  O  O159  1  0.82323406  0.62241606  0.00779380  1
  O  O160  1  0.84216141  0.62200420  0.35793250  1
  O  O161  1  0.83149712  0.62543944  0.69166806  1
  O  O162  1  0.15851055  0.37972059  0.30810469  1
  O  O163  1  0.16402106  0.37105687  0.64305902  1
  O  O164  1  0.16263325  0.36994712  0.97405050  1
  O  O165  1  0.16139866  0.87081029  0.30988459  1
  O  O166  1  0.16555371  0.87884962  0.64244823  1
  O  O167  1  0.17476199  0.88117256  0.99237140  1
  O  O168  1  0.50337798  0.37393687  0.30802532  1
  O  O169  1  0.50641762  0.37283916  0.64800017  1
  O  O170  1  0.50934001  0.36862424  0.97360472  1
  O  O171  1  0.49720919  0.87266178  0.30946799  1
  O  O172  1  0.49798723  0.87786846  0.64424847  1
  O  O173  1  0.50886631  0.88188102  0.97631680  1
  O  O174  1  0.82078740  0.37714967  0.31327925  1
  O  O175  1  0.82433206  0.37390274  0.65016657  1
  O  O176  1  0.83998835  0.37356142  0.97453056  1
  O  O177  1  0.83665503  0.87020474  0.30998323  1
  O  O178  1  0.83313729  0.87668344  0.64722123  1
  O  O179  1  0.82781115  0.87804077  0.97787476  1
  O  O180  1  0.01589841  0.37810959  0.19355082  1
  O  O181  1  0.00930654  0.37252776  0.51084775  1
  O  O182  1  -0.00423480  0.37307052  0.85917896  1
  O  O183  1  -0.00178077  0.87301228  0.18755047  1
  O  O184  1  0.00344910  0.88088190  0.52849181  1
  O  O185  1  -0.00959061  0.87778820  0.84354497  1
  O  O186  1  0.33471750  0.37533880  0.19079966  1
  O  O187  1  0.33107303  0.37183596  0.50950434  1
  O  O188  1  0.33184825  0.36813592  0.85139001  1
  O  O189  1  0.33730342  0.87473847  0.18416394  1
  O  O190  1  0.33181737  0.87836486  0.52517632  1
  O  O191  1  0.33859492  0.88352082  0.85630758  1
  O  O192  1  0.66679354  0.37536520  0.19354679  1
  O  O193  1  0.66627460  0.37429112  0.52662835  1
  O  O194  1  0.66210024  0.37129470  0.85790044  1
  O  O195  1  0.67001036  0.87579611  0.17982310  1
  O  O196  1  0.66816000  0.87778279  0.52058986  1
  O  O197  1  0.66401451  0.88031748  0.86149710  1
  O  O198  1  -0.00053472  0.12853678  0.16448818  1
  O  O199  1  -0.00113926  0.12437994  0.47045618  1
  O  O200  1  -0.00239204  0.12518538  0.81050173  1
  O  O201  1  0.00373283  0.61955531  0.13959867  1
  O  O202  1  -0.00296852  0.62283252  0.47720472  1
  O  O203  1  -0.00465639  0.62346124  0.82838902  1
  O  O204  1  0.34329191  0.12700176  0.14231701  1
  O  O205  1  0.33527753  0.12433300  0.48342476  1
  O  O206  1  0.34371573  0.12500213  0.80866643  1
  O  O207  1  0.32807347  0.62169095  0.15392954  1
  O  O208  1  0.33275189  0.62479709  0.47233961  1
  O  O209  1  0.33650369  0.62385022  0.82597690  1
  O  O210  1  0.66045171  0.12714950  0.14005336  1
  O  O211  1  0.66121199  0.12772276  0.47750907  1
  O  O212  1  0.67333434  0.12480501  0.82052636  1
  O  O213  1  0.66670007  0.62152482  0.14019786  1
  O  O214  1  0.65169984  0.62146761  0.47855207  1
  O  O215  1  0.67637191  0.62471636  0.83001174  1
  O  O216  1  0.07597136  0.01166751  0.25981430  1
  O  O217  1  0.07952618  0.02832028  0.57993507  1
  O  O218  1  0.08524053  0.01720447  0.90970004  1
  O  O219  1  0.08635528  0.53079828  0.24938345  1
  O  O220  1  0.08759645  0.51148440  0.57346160  1
  O  O221  1  0.08192637  0.50962579  0.92504597  1
  O  O222  1  0.42198154  0.01342648  0.24299754  1
  O  O223  1  0.41385934  0.01531092  0.58335119  1
  O  O224  1  0.41645196  0.02549531  0.91989462  1
  O  O225  1  0.41331788  0.51003049  0.25750881  1
  O  O226  1  0.42197529  0.50972767  0.57099711  1
  O  O227  1  0.42414433  0.49539624  0.91566554  1
  O  O228  1  0.74562618  0.01730056  0.25414498  1
  O  O229  1  0.75267161  0.01752021  0.57984478  1
  O  O230  1  0.74484061  0.01873463  0.91865029  1
  O  O231  1  0.75131350  0.51691110  0.25311047  1
  O  O232  1  0.75337550  0.52004448  0.57277193  1
  O  O233  1  0.76214519  0.50550228  0.90739028  1
  O  O234  1  0.24158353  0.24262597  0.24186170  1
  O  O235  1  0.23951643  0.23369286  0.57351343  1
  O  O236  1  0.25039203  0.22626539  0.91288968  1
  O  O237  1  0.24819015  0.72967164  0.25275193  1
  O  O238  1  0.24770897  0.73837170  0.57226190  1
  O  O239  1  0.25563914  0.74951817  0.92030553  1
  O  O240  1  0.58256931  0.22699106  0.24959729  1
  O  O241  1  0.57410059  0.23528449  0.57373772  1
  O  O242  1  0.57913036  0.22341276  0.91613082  1
  O  O243  1  0.58751033  0.72906186  0.26391801  1
  O  O244  1  0.58636836  0.74597180  0.58854911  1
  O  O245  1  0.60059936  0.74102766  0.93107131  1
  O  O246  1  0.91272369  0.25483508  0.25013950  1
  O  O247  1  0.91511480  0.22756150  0.57950469  1
  O  O248  1  0.90933664  0.23315165  0.91155479  1
  O  O249  1  0.92681421  0.73364591  0.26037758  1
  O  O250  1  0.91572416  0.73682654  0.58355386  1
  O  O251  1  0.92190878  0.73169225  0.92645523  1
  O  O252  1  0.08650373  0.47634174  0.08483123  1
  O  O253  1  0.08428826  0.48305602  0.41208449  1
  O  O254  1  0.08205005  0.48262106  0.75934159  1
  O  O255  1  0.08550753  0.99475727  0.09168861  1
  O  O256  1  0.08383021  0.97710195  0.42093208  1
  O  O257  1  0.07486294  0.98915077  0.73935017  1
  O  O258  1  0.41990651  0.47654534  0.08241783  1
  O  O259  1  0.41718215  0.47271406  0.41414641  1
  O  O260  1  0.41932109  0.48381060  0.75179511  1
  O  O261  1  0.42063298  0.97612850  0.08126451  1
  O  O262  1  0.41470589  0.97942097  0.41792177  1
  O  O263  1  0.41928586  0.97730422  0.75255917  1
  O  O264  1  0.75071884  0.47507257  0.07787392  1
  O  O265  1  0.74067725  0.48972801  0.41257937  1
  O  O266  1  0.74344822  0.47577858  0.74804545  1
  O  O267  1  0.74933727  0.98056672  0.08341998  1
  O  O268  1  0.75257166  0.99893829  0.41812172  1
  O  O269  1  0.74778674  0.97771956  0.75173093  1
  O  O270  1  0.25555154  0.27280152  0.07563614  1
  O  O271  1  0.25238751  0.27081424  0.40819943  1
  O  O272  1  0.24403764  0.25968699  0.75351362  1
  O  O273  1  0.25223325  0.76367247  0.08417098  1
  O  O274  1  0.24905289  0.77445826  0.41296840  1
  O  O275  1  0.25311093  0.76746729  0.74054064  1
  O  O276  1  0.58521297  0.27257420  0.08333526  1
  O  O277  1  0.58707324  0.27649362  0.41377900  1
  O  O278  1  0.58506397  0.26839149  0.75031927  1
  O  O279  1  0.57952439  0.77194716  0.08898409  1
  O  O280  1  0.57130025  0.76445937  0.42884190  1
  O  O281  1  0.58080085  0.77295766  0.75745190  1
  O  O282  1  0.92177747  0.27532834  0.08569532  1
  O  O283  1  0.92099549  0.27012016  0.41189120  1
  O  O284  1  0.91019482  0.26356789  0.75387489  1
  O  O285  1  0.90868260  0.76629948  0.09140085  1
  O  O286  1  0.91666375  0.77047466  0.41879801  1
  O  O287  1  0.90609841  0.76595811  0.75604383  1
  O  O288  1  0.24962185  0.47284115  0.08247091  1
  O  O289  1  0.25250209  0.47685053  0.40717643  1
  O  O290  1  0.24516002  0.48305298  0.75236900  1
  O  O291  1  0.26348295  0.98973029  0.07279072  1
  O  O292  1  0.24975554  0.97633270  0.41136158  1
  O  O293  1  0.25551626  0.98796492  0.73870890  1
  O  O294  1  0.58153793  0.47307179  0.08846228  1
  O  O295  1  0.57896947  0.47421016  0.42314659  1
  O  O296  1  0.58322599  0.48021641  0.75639704  1
  O  O297  1  0.58400537  0.98237326  0.08286954  1
  O  O298  1  0.57817657  0.98553517  0.42218967  1
  O  O299  1  0.58312160  0.97790015  0.75060074  1
  O  O300  1  0.91712689  0.47174904  0.09102869  1
  O  O301  1  0.91781909  0.47710538  0.41563070  1
  O  O302  1  0.90735683  0.48697618  0.76548325  1
  O  O303  1  0.91146014  0.98561382  0.08846689  1
  O  O304  1  0.92045687  0.97955486  0.41582455  1
  O  O305  1  0.91376486  0.98164048  0.74565829  1
  O  O306  1  0.08765617  0.27011796  0.08705328  1
  O  O307  1  0.09132822  0.26642526  0.42230800  1
  O  O308  1  0.08483200  0.26389240  0.75596253  1
  O  O309  1  0.08694651  0.75423905  0.08694091  1
  O  O310  1  0.07941841  0.76992575  0.41144720  1
  O  O311  1  0.07662287  0.76447749  0.74218868  1
  O  O312  1  0.42100216  0.27634411  0.08156705  1
  O  O313  1  0.42193760  0.27045795  0.41545434  1
  O  O314  1  0.42532443  0.26415590  0.76025029  1
  O  O315  1  0.41885525  0.77035933  0.07941819  1
  O  O316  1  0.41153127  0.77748144  0.41276316  1
  O  O317  1  0.41524986  0.77437720  0.74534504  1
  O  O318  1  0.75257781  0.27565060  0.08775737  1
  O  O319  1  0.74891751  0.26535112  0.41767377  1
  O  O320  1  0.74681836  0.26985822  0.75417674  1
  O  O321  1  0.74692117  0.76800102  0.07569488  1
  O  O322  1  0.74839365  0.74797386  0.41636198  1
  O  O323  1  0.74240582  0.77778927  0.74565978  1
  O  O324  1  0.24758261  0.00792629  0.24199944  1
  O  O325  1  0.24022763  0.01825504  0.57249775  1
  O  O326  1  0.24949319  0.02828603  0.90758670  1
  O  O327  1  0.24488800  0.51948750  0.24822566  1
  O  O328  1  0.24772459  0.50983127  0.56742443  1
  O  O329  1  0.25260533  0.49829883  0.91841126  1
  O  O330  1  0.58408033  0.02249019  0.24949227  1
  O  O331  1  0.57598991  0.01268330  0.57985220  1
  O  O332  1  0.57912875  0.02787805  0.91646652  1
  O  O333  1  0.58966854  0.51691733  0.26551608  1
  O  O334  1  0.58307538  0.50955704  0.58271761  1
  O  O335  1  0.60072004  0.50848205  0.93052013  1
  O  O336  1  0.91723832  0.00696523  0.25481145  1
  O  O337  1  0.91599316  0.02562366  0.58086550  1
  O  O338  1  0.90572319  0.01513088  0.90800586  1
  O  O339  1  0.92746353  0.50639433  0.25753003  1
  O  O340  1  0.91360445  0.51226606  0.57898907  1
  O  O341  1  0.92594017  0.51681590  0.93090763  1
  O  O342  1  0.07559759  0.23549086  0.26049731  1
  O  O343  1  0.07672817  0.22306432  0.58475699  1
  O  O344  1  0.08542992  0.23361808  0.91453255  1
  O  O345  1  0.08574095  0.72239939  0.25139220  1
  O  O346  1  0.08883652  0.73838257  0.57214647  1
  O  O347  1  0.08568031  0.73995475  0.92159842  1
  O  O348  1  0.42352924  0.23803975  0.24501549  1
  O  O349  1  0.41494404  0.23365419  0.58142246  1
  O  O350  1  0.41429411  0.22921276  0.92223802  1
  O  O351  1  0.41278956  0.73607761  0.25450290  1
  O  O352  1  0.42272044  0.73995107  0.57102502  1
  O  O353  1  0.42716705  0.75227063  0.91370295  1
  O  O354  1  0.74250514  0.23411109  0.25901940  1
  O  O355  1  0.75182638  0.23127188  0.57839092  1
  O  O356  1  0.74264437  0.23732415  0.92008402  1
  O  O357  1  0.75217830  0.73201615  0.25165168  1
  O  O358  1  0.75553659  0.73275570  0.57753979  1
  O  O359  1  0.76307851  0.74187705  0.90600939  1
