# generated using pymatgen
data_Ba17Sr5La8Pr42Mn72O216
_symmetry_space_group_name_H-M   'P 1'
_cell_length_a   16.67448523
_cell_length_b   15.70069570
_cell_length_c   16.81926884
_cell_angle_alpha   89.98991869
_cell_angle_beta   90.00244388
_cell_angle_gamma   90.02386646
_symmetry_Int_Tables_number   1
_chemical_formula_structural   Ba17Sr5La8Pr42Mn72O216
_chemical_formula_sum   'Ba17 Sr5 La8 Pr42 Mn72 O216'
_cell_volume   4403.30125992
_cell_formula_units_Z   1
loop_
 _symmetry_equiv_pos_site_id
 _symmetry_equiv_pos_as_xyz
  1  'x, y, z'
loop_
 _atom_site_type_symbol
 _atom_site_label
 _atom_site_symmetry_multiplicity
 _atom_site_fract_x
 _atom_site_fract_y
 _atom_site_fract_z
 _atom_site_occupancy
  Ba  Ba0  1  0.83313708  0.12621493  0.50128302  1
  Ba  Ba1  1  0.33393401  0.37275814  0.66530283  1
  Ba  Ba2  1  -0.00105977  0.87503271  0.67029915  1
  Ba  Ba3  1  0.33175694  0.12596464  0.66517745  1
  Ba  Ba4  1  0.16865655  0.62391141  0.83248508  1
  Ba  Ba5  1  0.00021724  0.12530689  0.33434961  1
  Ba  Ba6  1  -0.00232470  0.87316267  0.00232593  1
  Ba  Ba7  1  0.50141740  0.37651544  0.16357253  1
  Ba  Ba8  1  0.66675128  0.37502982  -0.00076697  1
  Ba  Ba9  1  0.33480819  0.87511484  0.00012220  1
  Ba  Ba10  1  0.16735120  0.12408356  0.16875234  1
  Ba  Ba11  1  -0.00053062  0.87401862  0.33783825  1
  Ba  Ba12  1  0.66587138  0.62465952  0.66128298  1
  Ba  Ba13  1  0.33511336  0.62500762  0.33626908  1
  Ba  Ba14  1  0.16510448  0.37586571  0.83320802  1
  Ba  Ba15  1  0.66579134  0.12281773  0.33115990  1
  Ba  Ba16  1  0.16643442  0.37589618  0.16844828  1
  Sr  Sr17  1  0.66707623  0.12506332  0.66028339  1
  Sr  Sr18  1  0.49474691  0.62554824  0.50197600  1
  Sr  Sr19  1  0.16578139  0.87592355  0.50162330  1
  Sr  Sr20  1  0.33367914  0.37574619  0.33384055  1
  Sr  Sr21  1  -0.00075056  0.37370166  0.33546513  1
  La  La22  1  0.50020509  0.87556180  0.49932591  1
  La  La23  1  0.66650406  0.87600023  0.33304063  1
  La  La24  1  0.16760848  0.37336582  0.49463365  1
  La  La25  1  0.66731054  0.12751475  0.99726338  1
  La  La26  1  0.33212938  0.12695175  0.33193121  1
  La  La27  1  0.33092553  0.87467447  0.33556625  1
  La  La28  1  0.16903851  0.62679904  0.50199194  1
  La  La29  1  -0.00065560  0.37889935  0.00634006  1
  Pr  Pr30  1  0.00644804  0.62348972  0.99998314  1
  Pr  Pr31  1  0.16171143  0.12405700  0.49921529  1
  Pr  Pr32  1  0.66742690  0.87278750  -0.00199117  1
  Pr  Pr33  1  -0.00510692  0.37397375  0.67047948  1
  Pr  Pr34  1  0.49728112  0.62422965  0.83153004  1
  Pr  Pr35  1  0.49982431  0.12692179  0.50174008  1
  Pr  Pr36  1  0.50283760  0.37431167  0.82947123  1
  Pr  Pr37  1  0.82844626  0.37580046  0.83358656  1
  Pr  Pr38  1  0.50283965  0.87338832  0.16368612  1
  Pr  Pr39  1  0.33223967  0.12928956  0.99734632  1
  Pr  Pr40  1  0.16782708  0.87454008  0.82762911  1
  Pr  Pr41  1  0.66502775  0.62129894  0.99208498  1
  Pr  Pr42  1  0.00310436  0.12636024  0.66387459  1
  Pr  Pr43  1  0.49944165  0.62607038  0.16638616  1
  Pr  Pr44  1  0.83850564  0.62462637  0.50559639  1
  Pr  Pr45  1  0.66374379  0.37308326  0.66547278  1
  Pr  Pr46  1  0.82928888  0.87498178  0.49985035  1
  Pr  Pr47  1  0.83445578  0.12392046  0.17414423  1
  Pr  Pr48  1  0.16058574  0.87505522  0.16749125  1
  Pr  Pr49  1  0.17075603  0.12388343  0.83561760  1
  Pr  Pr50  1  0.66626640  0.62577405  0.33069884  1
  Pr  Pr51  1  0.66539094  0.37173149  0.33211845  1
  Pr  Pr52  1  0.33354322  0.62184438  0.99919562  1
  Pr  Pr53  1  0.00720871  0.62406199  0.33509540  1
  Pr  Pr54  1  0.00634914  0.62312695  0.66756354  1
  Pr  Pr55  1  0.49645499  0.12389659  0.16632109  1
  Pr  Pr56  1  0.50329647  0.87742302  0.82621953  1
  Pr  Pr57  1  0.00753233  0.12527565  1.00234072  1
  Pr  Pr58  1  0.49982652  0.37659620  0.49300376  1
  Pr  Pr59  1  0.83742736  0.12397562  0.83519760  1
  Pr  Pr60  1  0.49798333  0.12651686  0.83245518  1
  Pr  Pr61  1  0.33468639  0.87274828  0.67220149  1
  Pr  Pr62  1  0.17125723  0.62967657  0.16818486  1
  Pr  Pr63  1  0.83600696  0.62532538  0.17021213  1
  Pr  Pr64  1  0.32875887  0.62167563  0.66142232  1
  Pr  Pr65  1  0.33316388  0.37703643  0.00409194  1
  Pr  Pr66  1  0.83663358  0.62786448  0.83893544  1
  Pr  Pr67  1  0.82580969  0.37485199  0.49866452  1
  Pr  Pr68  1  0.66871477  0.87713404  0.66524064  1
  Pr  Pr69  1  0.82960030  0.87475899  0.83056459  1
  Pr  Pr70  1  0.83281272  0.37104006  0.16655406  1
  Pr  Pr71  1  0.83166624  0.87862111  0.16767721  1
  Mn  Mn72  1  -0.00155133  -0.00146058  0.16777945  1
  Mn  Mn73  1  -0.00127594  -0.00050500  0.50356676  1
  Mn  Mn74  1  -0.00053169  0.00160498  0.83581349  1
  Mn  Mn75  1  -0.00116143  0.50236459  0.16928243  1
  Mn  Mn76  1  -0.00075943  0.49960581  0.50115969  1
  Mn  Mn77  1  -0.00267218  0.49907148  0.83621971  1
  Mn  Mn78  1  0.33478795  -0.00193151  0.16777749  1
  Mn  Mn79  1  0.33222546  -0.00118418  0.49980066  1
  Mn  Mn80  1  0.33485735  -0.00007999  0.83377899  1
  Mn  Mn81  1  0.33404545  0.50069602  0.16649566  1
  Mn  Mn82  1  0.33364027  0.49948785  0.50003974  1
  Mn  Mn83  1  0.33649837  0.50011169  0.83265252  1
  Mn  Mn84  1  0.66635367  -0.00267619  0.16215787  1
  Mn  Mn85  1  0.66552056  -0.00050316  0.49966950  1
  Mn  Mn86  1  0.66725407  0.00260270  0.83071218  1
  Mn  Mn87  1  0.66955463  0.50384394  0.16455531  1
  Mn  Mn88  1  0.66554697  0.50046228  0.49654630  1
  Mn  Mn89  1  0.66700688  0.50008224  0.82902794  1
  Mn  Mn90  1  -0.00146626  0.25201656  0.16748057  1
  Mn  Mn91  1  0.00002966  0.25212912  0.50324219  1
  Mn  Mn92  1  -0.00259397  0.24877541  0.83543962  1
  Mn  Mn93  1  -0.00183090  0.74776801  0.16923899  1
  Mn  Mn94  1  -0.00180914  0.74927868  0.50280459  1
  Mn  Mn95  1  -0.00072231  0.74974871  0.83689257  1
  Mn  Mn96  1  0.33447973  0.25004020  0.16540799  1
  Mn  Mn97  1  0.33333857  0.24969432  0.49681589  1
  Mn  Mn98  1  0.33511222  0.25045396  0.83424445  1
  Mn  Mn99  1  0.33517987  0.75172301  0.16691836  1
  Mn  Mn100  1  0.33259632  0.75298428  0.50312818  1
  Mn  Mn101  1  0.33604999  0.74938246  0.83360830  1
  Mn  Mn102  1  0.66709935  0.24888693  0.16460879  1
  Mn  Mn103  1  0.66532030  0.25040268  0.49978648  1
  Mn  Mn104  1  0.66755733  0.24858613  0.82902048  1
  Mn  Mn105  1  0.66881251  0.74870752  0.16327642  1
  Mn  Mn106  1  0.66560333  0.74964287  0.49737028  1
  Mn  Mn107  1  0.66636661  0.74968398  0.83098286  1
  Mn  Mn108  1  0.16700107  0.24982996  -0.00075757  1
  Mn  Mn109  1  0.16737449  0.25201290  0.33368772  1
  Mn  Mn110  1  0.16413876  0.25012606  0.66665447  1
  Mn  Mn111  1  0.16796748  0.75104091  0.00060305  1
  Mn  Mn112  1  0.16717149  0.74948785  0.33549941  1
  Mn  Mn113  1  0.16725373  0.75082503  0.66675404  1
  Mn  Mn114  1  0.50059216  0.24721705  -0.00186163  1
  Mn  Mn115  1  0.49959444  0.24944055  0.33148303  1
  Mn  Mn116  1  0.50121607  0.24962144  0.66387778  1
  Mn  Mn117  1  0.50171144  0.75013762  -0.00251481  1
  Mn  Mn118  1  0.50112041  0.74985997  0.33197715  1
  Mn  Mn119  1  0.49903120  0.75079550  0.66535734  1
  Mn  Mn120  1  0.83506417  0.24818117  0.00134033  1
  Mn  Mn121  1  0.83288057  0.25261511  0.33286265  1
  Mn  Mn122  1  0.83264700  0.25173996  0.66891360  1
  Mn  Mn123  1  0.83143629  0.74970768  0.00323208  1
  Mn  Mn124  1  0.83187667  0.74690836  0.33645035  1
  Mn  Mn125  1  0.83338943  0.74829089  0.66850100  1
  Mn  Mn126  1  0.16725540  -0.00142223  -0.00010427  1
  Mn  Mn127  1  0.16787811  -0.00184425  0.33562819  1
  Mn  Mn128  1  0.16710866  0.00032682  0.66697903  1
  Mn  Mn129  1  0.16758145  0.50021958  0.00142173  1
  Mn  Mn130  1  0.16668208  0.50061576  0.33386750  1
  Mn  Mn131  1  0.16512933  0.49843030  0.66423794  1
  Mn  Mn132  1  0.50213029  -0.00129565  -0.00186343  1
  Mn  Mn133  1  0.49803113  -0.00151897  0.33167819  1
  Mn  Mn134  1  0.50049676  0.00098767  0.66403898  1
  Mn  Mn135  1  0.50014797  0.50231285  -0.00269216  1
  Mn  Mn136  1  0.50195067  0.50207386  0.33183843  1
  Mn  Mn137  1  0.49983240  0.49984116  0.66405252  1
  Mn  Mn138  1  0.83235690  0.00106362  0.00119685  1
  Mn  Mn139  1  0.83248380  -0.00158682  0.33375087  1
  Mn  Mn140  1  0.83237811  0.00062991  0.66873930  1
  Mn  Mn141  1  0.83291921  0.50188821  0.00294428  1
  Mn  Mn142  1  0.83216079  0.50118559  0.33592925  1
  Mn  Mn143  1  0.83431981  0.49988586  0.66794020  1
  O  O144  1  0.17147249  0.12393682  0.01091523  1
  O  O145  1  0.17490003  0.12337312  0.35318748  1
  O  O146  1  0.15888449  0.12531344  0.69089425  1
  O  O147  1  0.17123691  0.62639152  0.02135603  1
  O  O148  1  0.16314561  0.62534253  0.35575449  1
  O  O149  1  0.16837478  0.62391990  0.67587133  1
  O  O150  1  0.50376702  0.11931723  0.02240035  1
  O  O151  1  0.49570845  0.12077802  0.35825894  1
  O  O152  1  0.50547674  0.12476393  0.68805087  1
  O  O153  1  0.50303997  0.62898065  0.02139915  1
  O  O154  1  0.51110346  0.62680110  0.35322761  1
  O  O155  1  0.49575552  0.62809676  0.68827242  1
  O  O156  1  0.82372311  0.12194224  0.02849946  1
  O  O157  1  0.83192681  0.12538318  0.33977434  1
  O  O158  1  0.83187900  0.12772933  0.69078845  1
  O  O159  1  0.81954224  0.62595799  0.02621991  1
  O  O160  1  0.82288550  0.62357458  0.36411968  1
  O  O161  1  0.83417530  0.62237976  0.69418681  1
  O  O162  1  0.16577954  0.37910567  0.32697747  1
  O  O163  1  0.15616097  0.37520578  0.64336146  1
  O  O164  1  0.16445551  0.37457643  0.99068861  1
  O  O165  1  0.17064447  0.87135302  0.31268234  1
  O  O166  1  0.17445225  0.87582923  0.65225656  1
  O  O167  1  0.16523809  0.87483594  0.97269752  1
  O  O168  1  0.50413339  0.37706365  0.31973847  1
  O  O169  1  0.50544518  0.37234829  0.64073724  1
  O  O170  1  0.49263033  0.37609384  0.97480812  1
  O  O171  1  0.49857904  0.87459853  0.30630227  1
  O  O172  1  0.49514715  0.87573164  0.64469189  1
  O  O173  1  0.50775075  0.87450845  0.96888221  1
  O  O174  1  0.83096738  0.38021562  0.30976431  1
  O  O175  1  0.84307911  0.37797087  0.64296183  1
  O  O176  1  0.84261779  0.37669203  0.97623912  1
  O  O177  1  0.82846483  0.86944188  0.31160879  1
  O  O178  1  0.83036275  0.87220634  0.64591737  1
  O  O179  1  0.82916126  0.87635380  0.97248938  1
  O  O180  1  -0.00655796  0.38044969  0.18346360  1
  O  O181  1  0.00672931  0.37739116  0.52733922  1
  O  O182  1  -0.00864499  0.37213207  0.86309261  1
  O  O183  1  0.00062469  0.86964596  0.17934958  1
  O  O184  1  -0.00683978  0.87212514  0.51405216  1
  O  O185  1  0.00100450  0.87601112  0.84695179  1
  O  O186  1  0.33636605  0.37684772  0.17944940  1
  O  O187  1  0.33842615  0.37516153  0.50838870  1
  O  O188  1  0.34539582  0.37365598  0.85885539  1
  O  O189  1  0.34422209  0.87433203  0.19056115  1
  O  O190  1  0.33568874  0.87675253  0.52903750  1
  O  O191  1  0.33477291  0.87566518  0.84477474  1
  O  O192  1  0.67119143  0.38194898  0.18836575  1
  O  O193  1  0.66309150  0.37607420  0.52040655  1
  O  O194  1  0.66375006  0.37471292  0.84522996  1
  O  O195  1  0.66322603  0.87108486  0.18980734  1
  O  O196  1  0.66775014  0.87385834  0.52071718  1
  O  O197  1  0.66517663  0.87694270  0.85582106  1
  O  O198  1  -0.01145023  0.12583000  0.14808316  1
  O  O199  1  0.00290654  0.12711805  0.49250035  1
  O  O200  1  -0.00789159  0.12589078  0.80723013  1
  O  O201  1  -0.00914615  0.62559480  0.14342451  1
  O  O202  1  -0.00991688  0.62331842  0.47847965  1
  O  O203  1  -0.00880964  0.62504427  0.81212022  1
  O  O204  1  0.34020846  0.12099430  0.14148414  1
  O  O205  1  0.33522944  0.12199905  0.47557225  1
  O  O206  1  0.33316981  0.12363246  0.82181876  1
  O  O207  1  0.33258033  0.62846080  0.14355004  1
  O  O208  1  0.32875121  0.62708362  0.49405079  1
  O  O209  1  0.34372605  0.62711800  0.80653350  1
  O  O210  1  0.67333501  0.11771957  0.14145539  1
  O  O211  1  0.66034623  0.12431824  0.48802700  1
  O  O212  1  0.67203770  0.12525118  0.80833070  1
  O  O213  1  0.67646642  0.62887111  0.13518137  1
  O  O214  1  0.67219832  0.62487102  0.47552668  1
  O  O215  1  0.67115712  0.62409764  0.81697728  1
  O  O216  1  0.08726606  0.00219579  0.24960488  1
  O  O217  1  0.08226384  0.01799563  0.58838353  1
  O  O218  1  0.08195111  0.02494487  0.91476945  1
  O  O219  1  0.08394871  0.52606134  0.24736002  1
  O  O220  1  0.08448915  0.52490782  0.57638082  1
  O  O221  1  0.07878964  0.51314236  0.92065611  1
  O  O222  1  0.41576512  0.02376482  0.25164980  1
  O  O223  1  0.42061187  0.01722113  0.57585598  1
  O  O224  1  0.41892337  0.02092308  0.91785247  1
  O  O225  1  0.42346876  0.51888507  0.24254341  1
  O  O226  1  0.41132752  0.51685560  0.59085675  1
  O  O227  1  0.41829624  0.52767790  0.91565790  1
  O  O228  1  0.75247291  0.00627420  0.24082626  1
  O  O229  1  0.74789897  0.00526657  0.58695878  1
  O  O230  1  0.75263415  0.02158361  0.91431841  1
  O  O231  1  0.75142409  0.52630265  0.25092202  1
  O  O232  1  0.75864941  0.50984914  0.57337364  1
  O  O233  1  0.75140947  0.51667494  0.91509451  1
  O  O234  1  0.25801213  0.23778071  0.25209849  1
  O  O235  1  0.24458783  0.23877858  0.57334001  1
  O  O236  1  0.25292908  0.23452269  0.91772049  1
  O  O237  1  0.24644708  0.73782695  0.24731859  1
  O  O238  1  0.24776949  0.73371225  0.58410806  1
  O  O239  1  0.25764693  0.73340631  0.91999937  1
  O  O240  1  0.57913375  0.23351515  0.24431422  1
  O  O241  1  0.58048864  0.23357974  0.57921744  1
  O  O242  1  0.58160326  0.22833304  0.90970780  1
  O  O243  1  0.58785493  0.72663953  0.24192464  1
  O  O244  1  0.57770324  0.74273028  0.57671523  1
  O  O245  1  0.58414807  0.72748272  0.91405583  1
  O  O246  1  0.91025297  0.24126304  0.24343724  1
  O  O247  1  0.92492857  0.23918798  0.59828268  1
  O  O248  1  0.91988875  0.22023140  0.92316298  1
  O  O249  1  0.91822315  0.72353278  0.26111322  1
  O  O250  1  0.92020341  0.72503482  0.59340815  1
  O  O251  1  0.91534942  0.72553219  0.92798885  1
  O  O252  1  0.07670300  0.49493521  0.08026276  1
  O  O253  1  0.07629152  0.48918119  0.41539588  1
  O  O254  1  0.07410583  0.48885977  0.73916676  1
  O  O255  1  0.08217707  0.99016676  0.08364797  1
  O  O256  1  0.08921146  0.99368414  0.42381054  1
  O  O257  1  0.09122486  0.98804327  0.75838901  1
  O  O258  1  0.41204700  0.49175798  0.07329124  1
  O  O259  1  0.42173932  0.48900764  0.42170610  1
  O  O260  1  0.42701207  0.48372560  0.75906385  1
  O  O261  1  0.42698420  0.98336828  0.09147559  1
  O  O262  1  0.41440072  0.97465436  0.41625839  1
  O  O263  1  0.41994202  0.98274596  0.75110685  1
  O  O264  1  0.75678619  0.48118113  0.08913945  1
  O  O265  1  0.74543195  0.47331206  0.41142381  1
  O  O266  1  0.74929392  0.47465421  0.74398740  1
  O  O267  1  0.74692225  0.97163643  0.07859071  1
  O  O268  1  0.74733430  0.97853136  0.41497799  1
  O  O269  1  0.74813315  0.97541268  0.74982509  1
  O  O270  1  0.25627159  0.26111563  0.07799499  1
  O  O271  1  0.25134662  0.26418876  0.41619560  1
  O  O272  1  0.24416798  0.25661476  0.75141857  1
  O  O273  1  0.24576445  0.76774512  0.09036294  1
  O  O274  1  0.25234056  0.76800127  0.41829951  1
  O  O275  1  0.25492347  0.76738153  0.74901597  1
  O  O276  1  0.58650799  0.25226371  0.07783945  1
  O  O277  1  0.58338061  0.26920528  0.41587709  1
  O  O278  1  0.58424736  0.27048139  0.74503896  1
  O  O279  1  0.58561274  0.77123672  0.07796985  1
  O  O280  1  0.58427437  0.77327038  0.41083858  1
  O  O281  1  0.58258865  0.77355578  0.74645067  1
  O  O282  1  0.91677108  0.27182436  0.08334401  1
  O  O283  1  0.91417189  0.27149896  0.42529003  1
  O  O284  1  0.90696314  0.27079299  0.76194506  1
  O  O285  1  0.90449198  0.76156891  0.09655940  1
  O  O286  1  0.90334625  0.76045717  0.43071689  1
  O  O287  1  0.90545307  0.76288708  0.76387965  1
  O  O288  1  0.25424775  0.49015971  0.07999757  1
  O  O289  1  0.24587347  0.48889939  0.42158880  1
  O  O290  1  0.25475533  0.49281094  0.74845059  1
  O  O291  1  0.24698554  0.97901945  0.09328976  1
  O  O292  1  0.25352757  0.97844147  0.41581659  1
  O  O293  1  0.25251180  0.98225563  0.74950027  1
  O  O294  1  0.58613314  0.49899058  0.07781196  1
  O  O295  1  0.58736610  0.47941916  0.41048095  1
  O  O296  1  0.58462013  0.48025473  0.74378974  1
  O  O297  1  0.58799183  0.97429609  0.07530799  1
  O  O298  1  0.58156702  0.97719530  0.41192743  1
  O  O299  1  0.58476112  0.97759700  0.74620294  1
  O  O300  1  0.91409075  0.48410251  0.08821866  1
  O  O301  1  0.90695586  0.48259014  0.42930313  1
  O  O302  1  0.91119408  0.47717497  0.75893549  1
  O  O303  1  0.90601246  0.98569562  0.09054665  1
  O  O304  1  0.90864750  0.98584300  0.42508655  1
  O  O305  1  0.90586183  0.98716980  0.76428950  1
  O  O306  1  0.07466572  0.25722220  0.07437148  1
  O  O307  1  0.08619333  0.26335882  0.42509224  1
  O  O308  1  0.06788746  0.26553195  0.74415462  1
  O  O309  1  0.08732643  0.75799424  0.09009200  1
  O  O310  1  0.08206753  0.75301898  0.41987030  1
  O  O311  1  0.09048570  0.76206680  0.75365333  1
  O  O312  1  0.41331293  0.25996345  0.07596344  1
  O  O313  1  0.42018040  0.26264639  0.41591912  1
  O  O314  1  0.42545137  0.26192620  0.75703183  1
  O  O315  1  0.42550776  0.76361696  0.08549973  1
  O  O316  1  0.41631863  0.77061278  0.42312544  1
  O  O317  1  0.42185244  0.77310027  0.75394126  1
  O  O318  1  0.75623830  0.26576896  0.08584601  1
  O  O319  1  0.74756524  0.27239713  0.41573895  1
  O  O320  1  0.74898246  0.27596021  0.74698357  1
  O  O321  1  0.74832454  0.77906084  0.08188873  1
  O  O322  1  0.74473753  0.77274252  0.41179825  1
  O  O323  1  0.74639944  0.77335853  0.74655832  1
  O  O324  1  0.25815355  0.00877854  0.25779150  1
  O  O325  1  0.24313926  0.01862828  0.57638848  1
  O  O326  1  0.25079327  0.01699136  0.91529932  1
  O  O327  1  0.24752747  0.51724737  0.24486275  1
  O  O328  1  0.24788573  0.51203031  0.58230015  1
  O  O329  1  0.25938985  0.51078171  0.92169221  1
  O  O330  1  0.57660072  0.01216455  0.23570757  1
  O  O331  1  0.57889624  0.01117459  0.57723593  1
  O  O332  1  0.58435396  0.02447025  0.90984251  1
  O  O333  1  0.58834208  0.52680152  0.24473882  1
  O  O334  1  0.57822367  0.51073009  0.57360069  1
  O  O335  1  0.58002887  0.51984728  0.91050022  1
  O  O336  1  0.91220609  0.00762550  0.24823160  1
  O  O337  1  0.91941217  0.01555177  0.59610897  1
  O  O338  1  0.91818778  0.02591095  0.92496230  1
  O  O339  1  0.91783387  0.52580025  0.25862352  1
  O  O340  1  0.92332909  0.52221682  0.59396831  1
  O  O341  1  0.91492397  0.52800832  0.92561785  1
  O  O342  1  0.08037062  0.24484451  0.24986611  1
  O  O343  1  0.08537757  0.22815620  0.58395982  1
  O  O344  1  0.08525257  0.22562276  0.90981477  1
  O  O345  1  0.08373668  0.72708851  0.24961113  1
  O  O346  1  0.08159891  0.73013538  0.58384077  1
  O  O347  1  0.07966175  0.73169584  0.92317708  1
  O  O348  1  0.41788532  0.22724484  0.24704404  1
  O  O349  1  0.42097415  0.23441700  0.57703269  1
  O  O350  1  0.41921011  0.22378603  0.91787476  1
  O  O351  1  0.42341528  0.73299649  0.24525101  1
  O  O352  1  0.40787680  0.73619487  0.59417702  1
  O  O353  1  0.41984086  0.72678091  0.91620927  1
  O  O354  1  0.74947650  0.24198410  0.24552022  1
  O  O355  1  0.74903365  0.24885264  0.58473568  1
  O  O356  1  0.75418985  0.23214576  0.91384005  1
  O  O357  1  0.75290120  0.72747705  0.24787048  1
  O  O358  1  0.75866039  0.73691178  0.57486380  1
  O  O359  1  0.75136881  0.73269518  0.91574897  1
