# generated using pymatgen
data_Ba17Sr5La8Pr42Mn72O216
_symmetry_space_group_name_H-M   'P 1'
_cell_length_a   16.67130600
_cell_length_b   15.70358379
_cell_length_c   16.81667604
_cell_angle_alpha   90.00757896
_cell_angle_beta   90.01701710
_cell_angle_gamma   89.98520507
_symmetry_Int_Tables_number   1
_chemical_formula_structural   Ba17Sr5La8Pr42Mn72O216
_chemical_formula_sum   'Ba17 Sr5 La8 Pr42 Mn72 O216'
_cell_volume   4402.59280503
_cell_formula_units_Z   1
loop_
 _symmetry_equiv_pos_site_id
 _symmetry_equiv_pos_as_xyz
  1  'x, y, z'
loop_
 _atom_site_type_symbol
 _atom_site_label
 _atom_site_symmetry_multiplicity
 _atom_site_fract_x
 _atom_site_fract_y
 _atom_site_fract_z
 _atom_site_occupancy
  Ba  Ba0  1  0.33162363  0.62574090  0.66622374  1
  Ba  Ba1  1  0.16629676  0.37149678  0.16538534  1
  Ba  Ba2  1  0.16593207  0.62604605  0.49852931  1
  Ba  Ba3  1  0.00225766  0.62648055  0.33282709  1
  Ba  Ba4  1  0.83411629  0.62373861  0.17050849  1
  Ba  Ba5  1  0.83094350  0.12686817  0.83490987  1
  Ba  Ba6  1  0.49999365  0.87586338  0.49687086  1
  Ba  Ba7  1  0.33371342  0.37522773  0.00075700  1
  Ba  Ba8  1  0.33190104  0.62507229  1.00125584  1
  Ba  Ba9  1  0.16796265  0.37508586  0.50018220  1
  Ba  Ba10  1  0.00158101  0.37579874  0.67015433  1
  Ba  Ba11  1  0.33495314  0.87519648  0.00223844  1
  Ba  Ba12  1  0.33565377  0.37605935  0.66585762  1
  Ba  Ba13  1  0.66672454  0.87397314  0.00005725  1
  Ba  Ba14  1  -0.00202182  0.87708282  0.00174448  1
  Ba  Ba15  1  0.50314386  0.37396970  0.16344096  1
  Ba  Ba16  1  0.66474728  0.12617270  0.66530480  1
  Sr  Sr17  1  0.83988535  0.37698100  0.16577677  1
  Sr  Sr18  1  0.16397037  0.12510354  0.83371010  1
  Sr  Sr19  1  0.83970920  0.37302057  0.83385762  1
  Sr  Sr20  1  0.50171663  0.87545936  0.16166869  1
  Sr  Sr21  1  -0.00035664  0.37240595  0.00059808  1
  La  La22  1  0.16447199  0.87413158  0.16377080  1
  La  La23  1  0.49693470  0.12192275  0.16088265  1
  La  La24  1  0.16914461  0.87549227  0.83429654  1
  La  La25  1  -0.00147176  0.87242288  0.67375605  1
  La  La26  1  -0.00097403  0.12815887  0.99891502  1
  La  La27  1  0.32782494  0.12498095  0.66649979  1
  La  La28  1  0.33370350  0.87628034  0.33281754  1
  La  La29  1  0.49501522  0.62587051  0.49868354  1
  Pr  Pr30  1  0.32739889  0.12653199  0.99805994  1
  Pr  Pr31  1  0.50634175  0.37867966  0.83091455  1
  Pr  Pr32  1  0.67919801  0.37669303  0.33263234  1
  Pr  Pr33  1  -0.00450125  0.87423435  0.33686079  1
  Pr  Pr34  1  0.49430396  0.62421159  0.83404091  1
  Pr  Pr35  1  0.66524676  0.62122278  0.99826126  1
  Pr  Pr36  1  0.49540698  0.12645435  0.83464301  1
  Pr  Pr37  1  0.82984201  0.12586914  0.50877015  1
  Pr  Pr38  1  0.00018757  0.62229635  0.66316555  1
  Pr  Pr39  1  0.32860220  0.12447734  0.33339120  1
  Pr  Pr40  1  0.83365587  0.87021102  0.16548253  1
  Pr  Pr41  1  0.00094133  0.62141119  1.00464690  1
  Pr  Pr42  1  0.83257058  0.62275493  0.50363332  1
  Pr  Pr43  1  0.84000979  0.37107458  0.50049762  1
  Pr  Pr44  1  0.83229085  0.12214313  0.16738666  1
  Pr  Pr45  1  0.16380445  0.62155430  0.83510456  1
  Pr  Pr46  1  0.16484789  0.87367272  0.49922926  1
  Pr  Pr47  1  0.16226082  0.12569700  0.50660502  1
  Pr  Pr48  1  0.49074172  0.12444148  0.50320176  1
  Pr  Pr49  1  0.00190455  0.37957348  0.33687243  1
  Pr  Pr50  1  0.67555527  0.37375627  0.00190899  1
  Pr  Pr51  1  0.66057864  0.12513538  0.33144905  1
  Pr  Pr52  1  0.83187290  0.87511738  0.83204601  1
  Pr  Pr53  1  0.16848460  0.62195366  0.16831977  1
  Pr  Pr54  1  0.82882883  0.87719069  0.50152688  1
  Pr  Pr55  1  0.66451775  0.62375151  0.66227419  1
  Pr  Pr56  1  0.16762446  0.12377060  0.16348848  1
  Pr  Pr57  1  0.16994543  0.37522235  0.82858392  1
  Pr  Pr58  1  0.67287557  0.37426691  0.66716138  1
  Pr  Pr59  1  0.49961696  0.62751972  0.16211686  1
  Pr  Pr60  1  0.33787583  0.37801668  0.33559792  1
  Pr  Pr61  1  0.33202308  0.87302863  0.66972064  1
  Pr  Pr62  1  0.83494560  0.62065854  0.83949763  1
  Pr  Pr63  1  0.33094897  0.62625618  0.32889797  1
  Pr  Pr64  1  0.66253486  0.62638091  0.32773363  1
  Pr  Pr65  1  -0.00405752  0.12820767  0.66677610  1
  Pr  Pr66  1  -0.00078820  0.12903851  0.33322095  1
  Pr  Pr67  1  0.50557613  0.37409223  0.49178840  1
  Pr  Pr68  1  0.66271166  0.12694756  0.99311500  1
  Pr  Pr69  1  0.66908294  0.87367551  0.33223128  1
  Pr  Pr70  1  0.66348533  0.87635147  0.67174263  1
  Pr  Pr71  1  0.49945693  0.87130478  0.82874609  1
  Mn  Mn72  1  -0.00090504  0.00236785  0.17061957  1
  Mn  Mn73  1  -0.00224312  -0.00132277  0.50160233  1
  Mn  Mn74  1  -0.00079563  -0.00038937  0.83498266  1
  Mn  Mn75  1  0.00131085  0.49771274  0.16723214  1
  Mn  Mn76  1  -0.00102108  0.50098303  0.50123390  1
  Mn  Mn77  1  0.00066679  0.50084124  0.83536675  1
  Mn  Mn78  1  0.33377037  0.00145996  0.16733083  1
  Mn  Mn79  1  0.32968659  -0.00032910  0.49978607  1
  Mn  Mn80  1  0.33372373  -0.00024288  0.83287971  1
  Mn  Mn81  1  0.33427046  0.50023915  0.16755792  1
  Mn  Mn82  1  0.33567822  0.50023232  0.49836342  1
  Mn  Mn83  1  0.33325182  0.49975001  0.83318917  1
  Mn  Mn84  1  0.66752309  0.00255561  0.16513902  1
  Mn  Mn85  1  0.66563334  -0.00063101  0.49773765  1
  Mn  Mn86  1  0.66421197  -0.00030992  0.83339676  1
  Mn  Mn87  1  0.66739141  0.49865307  0.16566065  1
  Mn  Mn88  1  0.66788390  0.50028168  0.49803276  1
  Mn  Mn89  1  0.66881029  0.50065810  0.83044508  1
  Mn  Mn90  1  -0.00122623  0.24702677  0.16712815  1
  Mn  Mn91  1  -0.00040411  0.24865248  0.49841649  1
  Mn  Mn92  1  0.00162429  0.24901118  0.83526019  1
  Mn  Mn93  1  0.00175876  0.75130628  0.16836743  1
  Mn  Mn94  1  -0.00346884  0.75193015  0.50370095  1
  Mn  Mn95  1  -0.00104348  0.74885982  0.83511574  1
  Mn  Mn96  1  0.33358716  0.24709205  0.16749804  1
  Mn  Mn97  1  0.33489299  0.24954030  0.49894407  1
  Mn  Mn98  1  0.33415476  0.24894019  0.83279767  1
  Mn  Mn99  1  0.33477234  0.75135040  0.16830939  1
  Mn  Mn100  1  0.33189645  0.75289618  0.49881870  1
  Mn  Mn101  1  0.33243888  0.75074935  0.83303050  1
  Mn  Mn102  1  0.66914795  0.24858498  0.16452421  1
  Mn  Mn103  1  0.66663634  0.25120278  0.49657962  1
  Mn  Mn104  1  0.66519886  0.25271996  0.83255422  1
  Mn  Mn105  1  0.66588328  0.75000966  0.16646221  1
  Mn  Mn106  1  0.66761681  0.74890011  0.49883278  1
  Mn  Mn107  1  0.66744286  0.74724703  0.83103732  1
  Mn  Mn108  1  0.16559333  0.24845494  -0.00221177  1
  Mn  Mn109  1  0.16714718  0.24689272  0.33335902  1
  Mn  Mn110  1  0.16631415  0.24790655  0.66917499  1
  Mn  Mn111  1  0.16436365  0.74972722  0.00088309  1
  Mn  Mn112  1  0.16769194  0.75491245  0.33202353  1
  Mn  Mn113  1  0.16427678  0.75245856  0.66736535  1
  Mn  Mn114  1  0.50111961  0.24981904  -0.00247980  1
  Mn  Mn115  1  0.50156665  0.24744428  0.33194567  1
  Mn  Mn116  1  0.50018443  0.25151121  0.66509701  1
  Mn  Mn117  1  0.50201564  0.74952798  -0.00199605  1
  Mn  Mn118  1  0.50028382  0.75100164  0.33004690  1
  Mn  Mn119  1  0.50073800  0.74922331  0.66400617  1
  Mn  Mn120  1  0.83350885  0.25142180  0.00366984  1
  Mn  Mn121  1  0.83352075  0.24787663  0.33433938  1
  Mn  Mn122  1  0.83336719  0.25119060  0.66797238  1
  Mn  Mn123  1  0.83317752  0.74793522  0.00034662  1
  Mn  Mn124  1  0.83218964  0.75224139  0.33634489  1
  Mn  Mn125  1  0.83071154  0.74795294  0.66895535  1
  Mn  Mn126  1  0.16583961  -0.00002719  -0.00018661  1
  Mn  Mn127  1  0.16405320  0.00085521  0.33474801  1
  Mn  Mn128  1  0.16382811  -0.00013452  0.66681576  1
  Mn  Mn129  1  0.16407559  0.49958380  0.00026592  1
  Mn  Mn130  1  0.16875878  0.49860240  0.33174824  1
  Mn  Mn131  1  0.16726238  0.50054263  0.66789776  1
  Mn  Mn132  1  0.50037996  0.00056231  -0.00181133  1
  Mn  Mn133  1  0.50063719  0.00149453  0.33048618  1
  Mn  Mn134  1  0.49850853  0.00052338  0.66617778  1
  Mn  Mn135  1  0.50254987  0.49988560  -0.00298103  1
  Mn  Mn136  1  0.50182885  0.50047835  0.33126511  1
  Mn  Mn137  1  0.50285535  0.49982401  0.66300790  1
  Mn  Mn138  1  0.83179800  -0.00018064  0.00274194  1
  Mn  Mn139  1  0.83193944  0.00265763  0.33626141  1
  Mn  Mn140  1  0.83295557  -0.00150633  0.66654421  1
  Mn  Mn141  1  0.83460670  0.49960021  0.00204411  1
  Mn  Mn142  1  0.83397513  0.49878873  0.33611069  1
  Mn  Mn143  1  0.83202025  0.50131166  0.67058178  1
  O  O144  1  0.17135517  0.12144610  0.01821356  1
  O  O145  1  0.16999112  0.12116371  0.36426208  1
  O  O146  1  0.16237353  0.12108655  0.68331931  1
  O  O147  1  0.15890931  0.62728901  0.02336033  1
  O  O148  1  0.17940145  0.62945621  0.33965205  1
  O  O149  1  0.15727702  0.63065662  0.68863321  1
  O  O150  1  0.51155213  0.12618853  0.01488125  1
  O  O151  1  0.51046110  0.12450655  0.36002925  1
  O  O152  1  0.49469107  0.12331778  0.68963947  1
  O  O153  1  0.50821528  0.62387836  0.01586844  1
  O  O154  1  0.50913136  0.62418092  0.35677184  1
  O  O155  1  0.50848624  0.62409459  0.68945913  1
  O  O156  1  0.82824370  0.12746563  0.02253439  1
  O  O157  1  0.83706374  0.12396167  0.36676751  1
  O  O158  1  0.83677950  0.12428366  0.67588824  1
  O  O159  1  0.82741933  0.62494935  0.01326156  1
  O  O160  1  0.82752989  0.62426946  0.35898993  1
  O  O161  1  0.82414945  0.62646913  0.69580012  1
  O  O162  1  0.16224426  0.36932876  0.32349034  1
  O  O163  1  0.16806534  0.37135318  0.66268094  1
  O  O164  1  0.16105732  0.37329441  0.97589372  1
  O  O165  1  0.15856295  0.88172121  0.30707994  1
  O  O166  1  0.16457278  0.87873435  0.64277845  1
  O  O167  1  0.16581130  0.87566677  0.97979677  1
  O  O168  1  0.48800587  0.37222426  0.32061077  1
  O  O169  1  0.50788355  0.37815394  0.63660505  1
  O  O170  1  0.50497160  0.37520739  0.97654387  1
  O  O171  1  0.49726387  0.87848682  0.31109952  1
  O  O172  1  0.50486203  0.87472736  0.65294903  1
  O  O173  1  0.50085583  0.87592126  0.97568242  1
  O  O174  1  0.83084962  0.37052339  0.31432458  1
  O  O175  1  0.82951071  0.37817638  0.64469524  1
  O  O176  1  0.82989642  0.37704473  0.98211569  1
  O  O177  1  0.82924069  0.88243209  0.30831014  1
  O  O178  1  0.83515799  0.87135519  0.64372431  1
  O  O179  1  0.83355408  0.86980742  0.97655280  1
  O  O180  1  -0.00035289  0.36699584  0.19278905  1
  O  O181  1  -0.00470449  0.37428815  0.51143222  1
  O  O182  1  0.00615308  0.37580180  0.85057129  1
  O  O183  1  0.00445767  0.88108153  0.19334550  1
  O  O184  1  -0.00157760  0.87728295  0.52905399  1
  O  O185  1  -0.00643176  0.87327785  0.84674713  1
  O  O186  1  0.33689635  0.37041669  0.18972509  1
  O  O187  1  0.34573460  0.37282529  0.50573858  1
  O  O188  1  0.32391529  0.37381830  0.84272496  1
  O  O189  1  0.33824821  0.87937744  0.18835138  1
  O  O190  1  0.32893196  0.87980149  0.52489256  1
  O  O191  1  0.33160740  0.87588266  0.84548684  1
  O  O192  1  0.66758991  0.37267431  0.18974432  1
  O  O193  1  0.65806518  0.37775316  0.52363280  1
  O  O194  1  0.65641759  0.37868813  0.85749146  1
  O  O195  1  0.66909832  0.87861624  0.19014489  1
  O  O196  1  0.67077172  0.86917406  0.52806568  1
  O  O197  1  0.65919991  0.87187512  0.84427305  1
  O  O198  1  -0.01026149  0.12302599  0.14441645  1
  O  O199  1  -0.00280416  0.12085078  0.47641489  1
  O  O200  1  0.00163633  0.12073462  0.81026987  1
  O  O201  1  0.00674620  0.62696719  0.15096043  1
  O  O202  1  -0.00930123  0.62725409  0.48952912  1
  O  O203  1  0.00121204  0.62901398  0.80631692  1
  O  O204  1  0.32782548  0.12281198  0.14513372  1
  O  O205  1  0.33019498  0.12283040  0.47829484  1
  O  O206  1  0.34303672  0.12150722  0.80851269  1
  O  O207  1  0.32136346  0.62782437  0.16330401  1
  O  O208  1  0.33751769  0.62602518  0.47675930  1
  O  O209  1  0.33758211  0.62737505  0.82339966  1
  O  O210  1  0.67663706  0.12579507  0.13800104  1
  O  O211  1  0.67806231  0.12906889  0.47509342  1
  O  O212  1  0.66006325  0.12691133  0.82191147  1
  O  O213  1  0.66292324  0.62289291  0.14617997  1
  O  O214  1  0.67531740  0.62385992  0.47024963  1
  O  O215  1  0.67772600  0.62378367  0.80337024  1
  O  O216  1  0.08269461  0.03002251  0.25331140  1
  O  O217  1  0.07986824  0.02212477  0.58252653  1
  O  O218  1  0.08246478  0.01545658  0.91841116  1
  O  O219  1  0.09100281  0.51224231  0.24429270  1
  O  O220  1  0.07682747  0.51439338  0.59048394  1
  O  O221  1  0.07916064  0.52700299  0.91887013  1
  O  O222  1  0.41610302  0.02646723  0.25089001  1
  O  O223  1  0.41101155  0.01987390  0.58564637  1
  O  O224  1  0.41630361  0.02270136  0.91761825  1
  O  O225  1  0.41531266  0.52283475  0.25612896  1
  O  O226  1  0.42200641  0.51680354  0.57899956  1
  O  O227  1  0.42159523  0.50884998  0.91217033  1
  O  O228  1  0.74946638  0.02716571  0.25525667  1
  O  O229  1  0.75579816  0.00977191  0.57818286  1
  O  O230  1  0.74216740  0.01161478  0.91967918  1
  O  O231  1  0.74184588  0.51174699  0.26410615  1
  O  O232  1  0.74545418  0.52103446  0.58714132  1
  O  O233  1  0.74652037  0.51846990  0.91764407  1
  O  O234  1  0.24488510  0.22363192  0.24904602  1
  O  O235  1  0.24462876  0.23021773  0.57759636  1
  O  O236  1  0.24943503  0.23083338  0.91303480  1
  O  O237  1  0.26060227  0.75001269  0.26106646  1
  O  O238  1  0.24595854  0.74725055  0.58430927  1
  O  O239  1  0.24182524  0.73825254  0.91041561  1
  O  O240  1  0.58009390  0.22451791  0.24033128  1
  O  O241  1  0.57282148  0.23285964  0.56445597  1
  O  O242  1  0.57201927  0.23612526  0.90360940  1
  O  O243  1  0.58152357  0.73019156  0.24677146  1
  O  O244  1  0.58595629  0.72534183  0.57900632  1
  O  O245  1  0.58811757  0.72286536  0.91073250  1
  O  O246  1  0.91294007  0.22327375  0.25173421  1
  O  O247  1  0.91399452  0.23261608  0.57660334  1
  O  O248  1  0.91871440  0.23712910  0.92250132  1
  O  O249  1  0.91873988  0.75052476  0.25549024  1
  O  O250  1  0.91133539  0.72604906  0.59085447  1
  O  O251  1  0.91841946  0.72362031  0.91634239  1
  O  O252  1  0.07921838  0.48908239  0.07816633  1
  O  O253  1  0.08194414  0.49012835  0.41004656  1
  O  O254  1  0.09100321  0.49074770  0.76233706  1
  O  O255  1  0.08531140  0.99284081  0.09252317  1
  O  O256  1  0.07932061  0.97671548  0.41874671  1
  O  O257  1  0.08411613  0.97709228  0.74873361  1
  O  O258  1  0.42180117  0.50027205  0.08998091  1
  O  O259  1  0.42577906  0.48762037  0.41925116  1
  O  O260  1  0.42877101  0.48789973  0.75411573  1
  O  O261  1  0.42037632  0.99788529  0.08385760  1
  O  O262  1  0.40915697  0.99176816  0.41183040  1
  O  O263  1  0.41741510  0.97620225  0.75160949  1
  O  O264  1  0.75147772  0.48305212  0.08368444  1
  O  O265  1  0.75615950  0.47368332  0.42640818  1
  O  O266  1  0.75127572  0.47535377  0.75194062  1
  O  O267  1  0.75679874  0.98236566  0.09355650  1
  O  O268  1  0.74931348  0.97560276  0.41663462  1
  O  O269  1  0.74894743  0.97755500  0.74988319  1
  O  O270  1  0.25090254  0.25293225  0.07848437  1
  O  O271  1  0.26582826  0.26178925  0.40545982  1
  O  O272  1  0.25612401  0.25081740  0.74684754  1
  O  O273  1  0.24461858  0.76361694  0.09461411  1
  O  O274  1  0.24471871  0.77789501  0.41743249  1
  O  O275  1  0.24837975  0.77241129  0.74784423  1
  O  O276  1  0.59548346  0.26174615  0.06644012  1
  O  O277  1  0.59476930  0.27090954  0.40240398  1
  O  O278  1  0.58847280  0.27454917  0.74024677  1
  O  O279  1  0.58244307  0.75717041  0.08476258  1
  O  O280  1  0.59013159  0.76499591  0.40655443  1
  O  O281  1  0.58312515  0.76538638  0.74786598  1
  O  O282  1  0.91783819  0.26229186  0.08512307  1
  O  O283  1  0.91970074  0.27030577  0.41137045  1
  O  O284  1  0.92099514  0.25630117  0.74938860  1
  O  O285  1  0.91573770  0.76340259  0.09115548  1
  O  O286  1  0.91337299  0.77548396  0.42180053  1
  O  O287  1  0.91155117  0.76864686  0.75344961  1
  O  O288  1  0.24757009  0.49467186  0.08469486  1
  O  O289  1  0.26133848  0.48755125  0.40770347  1
  O  O290  1  0.24907497  0.49536846  0.75305030  1
  O  O291  1  0.24506564  0.98674722  0.09120548  1
  O  O292  1  0.24477191  0.97468903  0.41736801  1
  O  O293  1  0.25171913  0.98085579  0.74479510  1
  O  O294  1  0.59399768  0.48702840  0.06797277  1
  O  O295  1  0.59136474  0.47787512  0.40689977  1
  O  O296  1  0.59137216  0.48033982  0.74019580  1
  O  O297  1  0.58325957  0.99355644  0.08282766  1
  O  O298  1  0.59062648  0.98451310  0.40445973  1
  O  O299  1  0.58362442  0.98192350  0.74783376  1
  O  O300  1  0.91945448  0.49145186  0.08224907  1
  O  O301  1  0.91484737  0.47984396  0.41844926  1
  O  O302  1  0.91606384  0.49521096  0.75441499  1
  O  O303  1  0.91099767  0.98446074  0.09874989  1
  O  O304  1  0.91402537  0.97412532  0.42087318  1
  O  O305  1  0.91349703  0.97899495  0.75035594  1
  O  O306  1  0.08234870  0.24881623  0.08314526  1
  O  O307  1  0.08093976  0.25579676  0.41393428  1
  O  O308  1  0.09112624  0.26048479  0.75944166  1
  O  O309  1  0.08413696  0.76614255  0.08598163  1
  O  O310  1  0.08159760  0.77297869  0.41413410  1
  O  O311  1  0.08460212  0.77392149  0.75432263  1
  O  O312  1  0.42469499  0.24877208  0.08598507  1
  O  O313  1  0.43085397  0.25595202  0.42822859  1
  O  O314  1  0.42885258  0.26654446  0.76395401  1
  O  O315  1  0.41792042  0.75402530  0.08791237  1
  O  O316  1  0.41059047  0.76271414  0.40549896  1
  O  O317  1  0.41581651  0.76877087  0.74641767  1
  O  O318  1  0.75483193  0.27111789  0.08919174  1
  O  O319  1  0.75544451  0.27483656  0.42139585  1
  O  O320  1  0.74891224  0.26997602  0.75342350  1
  O  O321  1  0.75273773  0.76428382  0.09150311  1
  O  O322  1  0.75158914  0.77617401  0.42096669  1
  O  O323  1  0.74796070  0.77701070  0.74718172  1
  O  O324  1  0.25005233  0.01954936  0.25522803  1
  O  O325  1  0.24443121  0.02135160  0.58070478  1
  O  O326  1  0.25302367  0.01696779  0.91524735  1
  O  O327  1  0.25357535  0.50820401  0.25224516  1
  O  O328  1  0.25032704  0.50656850  0.57935803  1
  O  O329  1  0.23969924  0.51306890  0.91177001  1
  O  O330  1  0.58442007  0.02509681  0.24417239  1
  O  O331  1  0.57767626  0.01784185  0.57293470  1
  O  O332  1  0.57793181  0.01832247  0.91100029  1
  O  O333  1  0.57834410  0.52076795  0.24410992  1
  O  O334  1  0.58291972  0.52703449  0.57429805  1
  O  O335  1  0.58281817  0.52587775  0.90398930  1
  O  O336  1  0.91785995  0.02297297  0.25911128  1
  O  O337  1  0.91856101  0.02051843  0.58431851  1
  O  O338  1  0.91682706  0.01648579  0.92549152  1
  O  O339  1  0.91975160  0.50233395  0.25589042  1
  O  O340  1  0.90945239  0.52131465  0.58644210  1
  O  O341  1  0.91725019  0.52107176  0.91804323  1
  O  O342  1  0.08150176  0.22189930  0.24984560  1
  O  O343  1  0.07836488  0.22760058  0.58577835  1
  O  O344  1  0.07969991  0.22763336  0.92077116  1
  O  O345  1  0.09531212  0.73860487  0.24251391  1
  O  O346  1  0.07468457  0.73998684  0.59240085  1
  O  O347  1  0.07995870  0.72685496  0.91554319  1
  O  O348  1  0.41283522  0.22420091  0.25994662  1
  O  O349  1  0.40951015  0.22642570  0.58982796  1
  O  O350  1  0.41128478  0.22713443  0.92242213  1
  O  O351  1  0.42049548  0.72604709  0.24821369  1
  O  O352  1  0.42214891  0.73759811  0.57849327  1
  O  O353  1  0.42563142  0.74088465  0.90695879  1
  O  O354  1  0.74716346  0.22602631  0.25904704  1
  O  O355  1  0.74937671  0.24363701  0.58000520  1
  O  O356  1  0.73821117  0.24152741  0.92780048  1
  O  O357  1  0.74170205  0.73892393  0.25966947  1
  O  O358  1  0.75053836  0.72463000  0.58404232  1
  O  O359  1  0.75089610  0.73027186  0.90992316  1
