# generated using pymatgen
data_Ba17Sr5La8Pr42Mn72O216
_symmetry_space_group_name_H-M   'P 1'
_cell_length_a   16.69441811
_cell_length_b   15.71715258
_cell_length_c   16.82504401
_cell_angle_alpha   90.00028045
_cell_angle_beta   89.94833621
_cell_angle_gamma   89.99643655
_symmetry_Int_Tables_number   1
_chemical_formula_structural   Ba17Sr5La8Pr42Mn72O216
_chemical_formula_sum   'Ba17 Sr5 La8 Pr42 Mn72 O216'
_cell_volume   4414.69990475
_cell_formula_units_Z   1
loop_
 _symmetry_equiv_pos_site_id
 _symmetry_equiv_pos_as_xyz
  1  'x, y, z'
loop_
 _atom_site_type_symbol
 _atom_site_label
 _atom_site_symmetry_multiplicity
 _atom_site_fract_x
 _atom_site_fract_y
 _atom_site_fract_z
 _atom_site_occupancy
  Ba  Ba0  1  0.66414023  0.87542032  0.66912800  1
  Ba  Ba1  1  -0.00122254  0.37765310  0.66724732  1
  Ba  Ba2  1  0.82995210  0.87533069  0.83289618  1
  Ba  Ba3  1  0.49504230  0.37505488  0.83433070  1
  Ba  Ba4  1  -0.00195725  0.87325141  0.66605673  1
  Ba  Ba5  1  0.50445841  0.62436564  0.17076010  1
  Ba  Ba6  1  0.17068889  0.62372037  0.49791307  1
  Ba  Ba7  1  0.33002835  0.37598223  -0.00490654  1
  Ba  Ba8  1  0.33591823  0.12526763  0.33120590  1
  Ba  Ba9  1  0.16623520  0.12335507  0.83195008  1
  Ba  Ba10  1  0.16358318  0.87411055  0.49671677  1
  Ba  Ba11  1  -0.00203826  0.37350543  0.00198290  1
  Ba  Ba12  1  0.66422802  0.87591716  0.00186103  1
  Ba  Ba13  1  0.00161109  0.12513252  0.99998430  1
  Ba  Ba14  1  0.16527851  0.87479567  0.16433264  1
  Ba  Ba15  1  0.16216744  0.37452419  0.83334440  1
  Ba  Ba16  1  0.33708809  0.62451655  0.33296707  1
  Sr  Sr17  1  0.82631142  0.87556607  0.50111437  1
  Sr  Sr18  1  0.16087542  0.87625889  0.82994740  1
  Sr  Sr19  1  0.00635754  0.12459242  0.33261202  1
  Sr  Sr20  1  -0.00447267  0.37398934  0.33632491  1
  Sr  Sr21  1  0.16137667  0.37529692  0.49780637  1
  La  La22  1  0.32892636  0.87629739  -0.00378235  1
  La  La23  1  0.00866449  0.62656466  1.00061302  1
  La  La24  1  0.16347529  0.37272926  0.16173305  1
  La  La25  1  0.50720934  0.62421593  0.83665676  1
  La  La26  1  0.67274269  0.12584471  0.99984275  1
  La  La27  1  0.33801023  0.62270402  0.65824935  1
  La  La28  1  0.82972570  0.37272952  0.83259139  1
  La  La29  1  0.33384268  0.12329811  0.99570283  1
  Pr  Pr30  1  0.67750627  0.12641389  0.33341426  1
  Pr  Pr31  1  0.51115625  0.12568506  0.50407176  1
  Pr  Pr32  1  0.49150002  0.87597454  0.16700925  1
  Pr  Pr33  1  0.84591818  0.12406579  0.16892055  1
  Pr  Pr34  1  0.65882672  0.87458167  0.34155228  1
  Pr  Pr35  1  -0.01305833  0.87500931  0.34275757  1
  Pr  Pr36  1  0.32126260  0.37563688  0.67126395  1
  Pr  Pr37  1  0.17150069  0.12653635  0.50336338  1
  Pr  Pr38  1  0.01176123  0.62490658  0.33112285  1
  Pr  Pr39  1  0.49278647  0.87409074  0.82798912  1
  Pr  Pr40  1  0.65883856  0.37531383  0.67060334  1
  Pr  Pr41  1  0.49166920  0.87680738  0.49881914  1
  Pr  Pr42  1  0.84235376  0.62542319  0.50282893  1
  Pr  Pr43  1  0.32488067  0.37693038  0.33115424  1
  Pr  Pr44  1  0.17194415  0.62434407  0.82926114  1
  Pr  Pr45  1  0.48699905  0.37458625  0.16381050  1
  Pr  Pr46  1  0.67576296  0.62386547  0.33223589  1
  Pr  Pr47  1  0.65712436  0.37496266  0.33648476  1
  Pr  Pr48  1  0.50426250  0.12450819  0.83495144  1
  Pr  Pr49  1  0.32602161  0.87289775  0.33346593  1
  Pr  Pr50  1  0.84545906  0.12452215  0.50209739  1
  Pr  Pr51  1  0.50780994  0.12661432  0.16998405  1
  Pr  Pr52  1  0.17590346  0.62099960  0.17092730  1
  Pr  Pr53  1  0.33700861  0.62827202  0.99671116  1
  Pr  Pr54  1  0.83979878  0.12157640  0.83306840  1
  Pr  Pr55  1  0.84222152  0.62604082  0.17078020  1
  Pr  Pr56  1  0.84045737  0.62876826  0.83493141  1
  Pr  Pr57  1  0.48984778  0.37363801  0.50082570  1
  Pr  Pr58  1  0.67769275  0.12682306  0.66670375  1
  Pr  Pr59  1  0.82753158  0.37452193  0.49496990  1
  Pr  Pr60  1  0.67848168  0.62418722  1.00056973  1
  Pr  Pr61  1  0.00793037  0.12281763  0.66675241  1
  Pr  Pr62  1  0.82965208  0.87825601  0.16523337  1
  Pr  Pr63  1  0.16701254  0.12824531  0.16533387  1
  Pr  Pr64  1  0.32332847  0.87586255  0.66555005  1
  Pr  Pr65  1  0.00799152  0.62747934  0.66740078  1
  Pr  Pr66  1  -0.00529489  0.88040024  -0.00071347  1
  Pr  Pr67  1  0.82734657  0.37166381  0.16542417  1
  Pr  Pr68  1  0.67606057  0.62333924  0.66832836  1
  Pr  Pr69  1  0.50949461  0.62428275  0.50274916  1
  Pr  Pr70  1  0.65682536  0.37500153  0.00489962  1
  Pr  Pr71  1  0.33649633  0.12973855  0.65999364  1
  Mn  Mn72  1  0.00141872  -0.00133953  0.17073523  1
  Mn  Mn73  1  -0.00078390  0.00070019  0.49764174  1
  Mn  Mn74  1  -0.00085006  -0.00092738  0.83226785  1
  Mn  Mn75  1  -0.00125887  0.49967079  0.16851283  1
  Mn  Mn76  1  -0.00189188  0.49938469  0.49935020  1
  Mn  Mn77  1  -0.00261192  0.50182896  0.83461461  1
  Mn  Mn78  1  0.33471891  0.00130726  0.16383820  1
  Mn  Mn79  1  0.33501360  0.00160711  0.49711091  1
  Mn  Mn80  1  0.33459302  0.00034855  0.82912295  1
  Mn  Mn81  1  0.33316609  0.49896775  0.16558196  1
  Mn  Mn82  1  0.33596585  0.49691474  0.49871842  1
  Mn  Mn83  1  0.33271684  0.50300888  0.82830542  1
  Mn  Mn84  1  0.66765013  0.00153242  0.17118722  1
  Mn  Mn85  1  0.66679538  0.00116007  0.50057253  1
  Mn  Mn86  1  0.66366009  0.00197137  0.83368647  1
  Mn  Mn87  1  0.66937540  0.49853427  0.16934517  1
  Mn  Mn88  1  0.66711372  0.49854948  0.50126422  1
  Mn  Mn89  1  0.66797798  0.49982662  0.83527396  1
  Mn  Mn90  1  0.00014268  0.25019584  0.17129098  1
  Mn  Mn91  1  -0.00001208  0.25083178  0.49866943  1
  Mn  Mn92  1  -0.00322495  0.25100331  0.83224025  1
  Mn  Mn93  1  -0.00061465  0.75138261  0.16767444  1
  Mn  Mn94  1  -0.00268612  0.74939624  0.49893642  1
  Mn  Mn95  1  0.00116794  0.74763588  0.83457920  1
  Mn  Mn96  1  0.33349281  0.24686650  0.16449437  1
  Mn  Mn97  1  0.33367207  0.25156694  0.49687759  1
  Mn  Mn98  1  0.33376155  0.24751074  0.82886491  1
  Mn  Mn99  1  0.33497640  0.75189650  0.16414452  1
  Mn  Mn100  1  0.33693490  0.74982654  0.49848064  1
  Mn  Mn101  1  0.33313796  0.74925284  0.82809041  1
  Mn  Mn102  1  0.66776422  0.24982916  0.16913153  1
  Mn  Mn103  1  0.66767137  0.25062386  0.50116267  1
  Mn  Mn104  1  0.66594368  0.24960052  0.83361279  1
  Mn  Mn105  1  0.66850400  0.75102963  0.17149995  1
  Mn  Mn106  1  0.66634829  0.74909459  0.50117062  1
  Mn  Mn107  1  0.66552308  0.74860514  0.83530339  1
  Mn  Mn108  1  0.16655703  0.24925419  -0.00069368  1
  Mn  Mn109  1  0.16487613  0.24951631  0.33380942  1
  Mn  Mn110  1  0.16579135  0.24930154  0.66419052  1
  Mn  Mn111  1  0.16735267  0.74996614  -0.00242100  1
  Mn  Mn112  1  0.16620850  0.75078958  0.32936048  1
  Mn  Mn113  1  0.16851188  0.75041285  0.66659112  1
  Mn  Mn114  1  0.49911068  0.24808688  0.00319589  1
  Mn  Mn115  1  0.50137867  0.25033651  0.33440029  1
  Mn  Mn116  1  0.50029047  0.24855931  0.66641469  1
  Mn  Mn117  1  0.50119934  0.75027540  -0.00008908  1
  Mn  Mn118  1  0.50224855  0.75118146  0.33545581  1
  Mn  Mn119  1  0.49949820  0.74921082  0.66641897  1
  Mn  Mn120  1  0.83043789  0.25062028  -0.00080555  1
  Mn  Mn121  1  0.83380470  0.25037597  0.33329952  1
  Mn  Mn122  1  0.83367975  0.25182597  0.66447613  1
  Mn  Mn123  1  0.83476606  0.74982679  0.00517201  1
  Mn  Mn124  1  0.83172029  0.74864471  0.33479333  1
  Mn  Mn125  1  0.83281951  0.74822106  0.66772654  1
  Mn  Mn126  1  0.16681920  -0.00256145  -0.00170795  1
  Mn  Mn127  1  0.16581797  0.00169343  0.33189810  1
  Mn  Mn128  1  0.16781245  0.00018545  0.66526636  1
  Mn  Mn129  1  0.16685651  0.50346471  0.00121062  1
  Mn  Mn130  1  0.16513942  0.49699064  0.33174124  1
  Mn  Mn131  1  0.16666436  0.50162149  0.66519861  1
  Mn  Mn132  1  0.50034890  -0.00058681  0.00061626  1
  Mn  Mn133  1  0.50190627  0.00223264  0.33378112  1
  Mn  Mn134  1  0.49891010  0.00124696  0.66685368  1
  Mn  Mn135  1  0.50021344  0.50223374  0.00293072  1
  Mn  Mn136  1  0.50182204  0.49712475  0.33519760  1
  Mn  Mn137  1  0.50093234  0.50011488  0.66606292  1
  Mn  Mn138  1  0.83236038  0.00088480  0.00204719  1
  Mn  Mn139  1  0.83185945  0.00122980  0.33401968  1
  Mn  Mn140  1  0.83386809  0.00135490  0.66618271  1
  Mn  Mn141  1  0.83302600  0.49979883  0.00188668  1
  Mn  Mn142  1  0.83363416  0.49925462  0.33382834  1
  Mn  Mn143  1  0.83201280  0.49930948  0.66645105  1
  O  O144  1  0.17121645  0.12121456  0.01823875  1
  O  O145  1  0.16548901  0.12676987  0.35866202  1
  O  O146  1  0.16892091  0.12374728  0.67125096  1
  O  O147  1  0.16627848  0.62815626  0.02619768  1
  O  O148  1  0.16316744  0.62357588  0.33925978  1
  O  O149  1  0.17574773  0.62703052  0.68111449  1
  O  O150  1  0.49538859  0.12278985  0.02708651  1
  O  O151  1  0.50297020  0.12754093  0.36023479  1
  O  O152  1  0.48813205  0.12397228  0.69036905  1
  O  O153  1  0.48935156  0.62657287  0.01370705  1
  O  O154  1  0.50530626  0.62115179  0.35845955  1
  O  O155  1  0.49021222  0.62494610  0.68906964  1
  O  O156  1  0.82675811  0.12701845  0.02323936  1
  O  O157  1  0.82575835  0.12760320  0.35928287  1
  O  O158  1  0.82824747  0.12977407  0.68742225  1
  O  O159  1  0.82964145  0.62419096  0.02800802  1
  O  O160  1  0.82350895  0.62292268  0.35959246  1
  O  O161  1  0.82388961  0.62053768  0.69003262  1
  O  O162  1  0.17020131  0.37302140  0.30845755  1
  O  O163  1  0.17083233  0.37436574  0.65175098  1
  O  O164  1  0.16588900  0.37958944  0.99406078  1
  O  O165  1  0.17379032  0.87649883  0.32140774  1
  O  O166  1  0.17064045  0.87572536  0.65456712  1
  O  O167  1  0.17328371  0.87112723  0.97906277  1
  O  O168  1  0.51104294  0.37212574  0.30858061  1
  O  O169  1  0.51096278  0.37411357  0.64352050  1
  O  O170  1  0.50767847  0.37618551  0.99161172  1
  O  O171  1  0.51336079  0.88027736  0.31119249  1
  O  O172  1  0.50006304  0.87635869  0.64194550  1
  O  O173  1  0.49834012  0.87433886  0.97176870  1
  O  O174  1  0.83591853  0.37497733  0.30925405  1
  O  O175  1  0.82943628  0.37535840  0.63831167  1
  O  O176  1  0.82527552  0.37497853  0.97741317  1
  O  O177  1  0.83640301  0.87387596  0.31039485  1
  O  O178  1  0.83145372  0.87465069  0.65161007  1
  O  O179  1  0.84151634  0.87476636  0.99196725  1
  O  O180  1  0.00471964  0.37458775  0.18585238  1
  O  O181  1  -0.00743580  0.37587756  0.51145604  1
  O  O182  1  -0.00814862  0.37911385  0.84288216  1
  O  O183  1  -0.00660278  0.87402033  0.19720450  1
  O  O184  1  -0.00509054  0.87416633  0.50704200  1
  O  O185  1  0.00217817  0.86832871  0.85263300  1
  O  O186  1  0.33199990  0.37068288  0.18425753  1
  O  O187  1  0.34056752  0.37269464  0.52596783  1
  O  O188  1  0.33036621  0.37515125  0.83649158  1
  O  O189  1  0.33987390  0.87898408  0.18815393  1
  O  O190  1  0.34218395  0.87763409  0.52072776  1
  O  O191  1  0.34172814  0.87309832  0.85325914  1
  O  O192  1  0.68133794  0.37271740  0.19472900  1
  O  O193  1  0.67594156  0.37457151  0.52860818  1
  O  O194  1  0.67335533  0.37680245  0.85863627  1
  O  O195  1  0.67862958  0.88102673  0.19850051  1
  O  O196  1  0.66608137  0.87794282  0.51283664  1
  O  O197  1  0.65793546  0.87641852  0.84442478  1
  O  O198  1  -0.00314934  0.12383778  0.15667120  1
  O  O199  1  -0.00298441  0.12610336  0.48111763  1
  O  O200  1  -0.01043823  0.12770491  0.81536105  1
  O  O201  1  -0.00918841  0.62718057  0.14458264  1
  O  O202  1  -0.00744268  0.62417764  0.47604923  1
  O  O203  1  -0.01198567  0.62356354  0.81568676  1
  O  O204  1  0.34105145  0.12320449  0.14211630  1
  O  O205  1  0.32973345  0.12758042  0.48714843  1
  O  O206  1  0.34279766  0.12270452  0.80449540  1
  O  O207  1  0.32953773  0.62602436  0.14577910  1
  O  O208  1  0.34388432  0.62182821  0.49034605  1
  O  O209  1  0.32883398  0.62812575  0.80247069  1
  O  O210  1  0.65771165  0.12722277  0.14426123  1
  O  O211  1  0.65996721  0.12665144  0.47552763  1
  O  O212  1  0.65693106  0.12581390  0.81138208  1
  O  O213  1  0.67072340  0.61970807  0.14486180  1
  O  O214  1  0.65992899  0.62071931  0.47406030  1
  O  O215  1  0.66278800  0.62158681  0.81392734  1
  O  O216  1  0.09117009  0.01988580  0.24221457  1
  O  O217  1  0.08845349  0.01947387  0.57469511  1
  O  O218  1  0.08338856  0.00071010  0.91661061  1
  O  O219  1  0.08765152  0.51891066  0.24156650  1
  O  O220  1  0.08457472  0.51531728  0.58518936  1
  O  O221  1  0.08979900  0.52410010  0.91504583  1
  O  O222  1  0.43246321  0.01412714  0.23828124  1
  O  O223  1  0.42626386  0.02045675  0.57324868  1
  O  O224  1  0.42293500  0.01941023  0.90590461  1
  O  O225  1  0.41950811  0.49909412  0.24595605  1
  O  O226  1  0.43290175  0.51245974  0.57125210  1
  O  O227  1  0.41777334  0.52128900  0.90480806  1
  O  O228  1  0.75721276  0.02756981  0.24472347  1
  O  O229  1  0.75604597  0.02354000  0.57588583  1
  O  O230  1  0.74943331  0.02091749  0.91345009  1
  O  O231  1  0.76218986  0.51933974  0.24108740  1
  O  O232  1  0.75696207  0.52261201  0.57311501  1
  O  O233  1  0.75855844  0.52400182  0.91097282  1
  O  O234  1  0.24986466  0.23382525  0.24541560  1
  O  O235  1  0.25503334  0.23473796  0.58274181  1
  O  O236  1  0.25928023  0.23257848  0.91831468  1
  O  O237  1  0.25205505  0.73976607  0.24514090  1
  O  O238  1  0.26411114  0.74164884  0.58960502  1
  O  O239  1  0.25700083  0.72644935  0.91505866  1
  O  O240  1  0.59502864  0.23145438  0.26286321  1
  O  O241  1  0.58996229  0.22712359  0.59295119  1
  O  O242  1  0.58760002  0.23194208  0.92987512  1
  O  O243  1  0.59846091  0.73630451  0.26972812  1
  O  O244  1  0.59018315  0.72332878  0.59420017  1
  O  O245  1  0.59049031  0.72554354  0.92724137  1
  O  O246  1  0.91895707  0.23270489  0.25657981  1
  O  O247  1  0.92287506  0.22730059  0.59065870  1
  O  O248  1  0.91082981  0.23837306  0.91486020  1
  O  O249  1  0.92311752  0.72701072  0.26199263  1
  O  O250  1  0.91880984  0.72574615  0.58928652  1
  O  O251  1  0.92383379  0.73173155  0.92854932  1
  O  O252  1  0.07731388  0.49531810  0.08289704  1
  O  O253  1  0.07749795  0.48942547  0.40658833  1
  O  O254  1  0.07874167  0.50617428  0.74864080  1
  O  O255  1  0.07457341  0.98204069  0.07860012  1
  O  O256  1  0.06981572  0.98611391  0.40537859  1
  O  O257  1  0.07917437  0.99699273  0.74450497  1
  O  O258  1  0.41369258  0.48708769  0.08282102  1
  O  O259  1  0.41153214  0.47159621  0.41135052  1
  O  O260  1  0.40658683  0.48580266  0.73171157  1
  O  O261  1  0.41267947  0.97566951  0.07444354  1
  O  O262  1  0.41252306  0.97661885  0.40653611  1
  O  O263  1  0.41038582  0.97487893  0.73992163  1
  O  O264  1  0.74034333  0.47910968  0.07460872  1
  O  O265  1  0.73973238  0.47738993  0.40756366  1
  O  O266  1  0.74059383  0.47915131  0.73798972  1
  O  O267  1  0.74886154  0.98997689  0.08726124  1
  O  O268  1  0.73861241  0.98643244  0.40422493  1
  O  O269  1  0.74272836  1.00124266  0.74629796  1
  O  O270  1  0.24539939  0.25693770  0.08839200  1
  O  O271  1  0.24835989  0.27122765  0.41609309  1
  O  O272  1  0.25066183  0.25643303  0.74375235  1
  O  O273  1  0.25465301  0.76222589  0.07563141  1
  O  O274  1  0.25438010  0.76145831  0.41523214  1
  O  O275  1  0.24718076  0.76958311  0.75342110  1
  O  O276  1  0.57805473  0.26981521  0.09986182  1
  O  O277  1  0.57665534  0.27257154  0.42930000  1
  O  O278  1  0.58046802  0.26239568  0.75346502  1
  O  O279  1  0.57937648  0.76968652  0.10264909  1
  O  O280  1  0.57270661  0.76836880  0.43070045  1
  O  O281  1  0.56586907  0.75856986  0.76186253  1
  O  O282  1  0.90483090  0.26210419  0.09535657  1
  O  O283  1  0.90380079  0.26303931  0.42824921  1
  O  O284  1  0.90210101  0.26387064  0.75712033  1
  O  O285  1  0.90896007  0.76934620  0.09700768  1
  O  O286  1  0.90393170  0.76416012  0.42220236  1
  O  O287  1  0.91150492  0.75144370  0.75461670  1
  O  O288  1  0.24094561  0.49044553  0.09172286  1
  O  O289  1  0.24919295  0.47971690  0.41658603  1
  O  O290  1  0.24637305  0.49151554  0.75065438  1
  O  O291  1  0.25273125  0.98866906  0.07778851  1
  O  O292  1  0.25073758  0.98856897  0.41557192  1
  O  O293  1  0.25081199  0.98290855  0.75030930  1
  O  O294  1  0.58196286  0.47527322  0.09987644  1
  O  O295  1  0.57673096  0.47428825  0.43175371  1
  O  O296  1  0.57924082  0.48893441  0.75332272  1
  O  O297  1  0.57541994  0.98461574  0.10097632  1
  O  O298  1  0.57318090  0.98464327  0.42852642  1
  O  O299  1  0.56735839  0.99062114  0.76374890  1
  O  O300  1  0.90240767  0.48384319  0.10018707  1
  O  O301  1  0.90028305  0.48580350  0.42691134  1
  O  O302  1  0.89887615  0.48879202  0.76132816  1
  O  O303  1  0.91309739  0.98431305  0.09309205  1
  O  O304  1  0.90530630  0.98648113  0.42253457  1
  O  O305  1  0.91168665  0.99721532  0.75079057  1
  O  O306  1  0.08490128  0.25750860  0.09103517  1
  O  O307  1  0.07847831  0.26561943  0.41362326  1
  O  O308  1  0.07450621  0.24983443  0.74214519  1
  O  O309  1  0.06904749  0.76734963  0.07000056  1
  O  O310  1  0.07038481  0.75973672  0.40161935  1
  O  O311  1  0.08170789  0.74670571  0.74992055  1
  O  O312  1  0.41478323  0.26436684  0.08124021  1
  O  O313  1  0.41204048  0.27588816  0.40798902  1
  O  O314  1  0.40821679  0.26560244  0.73384205  1
  O  O315  1  0.41392801  0.77215968  0.07625063  1
  O  O316  1  0.41426921  0.77540849  0.40964152  1
  O  O317  1  0.40724941  0.77215315  0.73692330  1
  O  O318  1  0.73925265  0.26900540  0.07516282  1
  O  O319  1  0.74182562  0.27140172  0.40581026  1
  O  O320  1  0.74226827  0.26905078  0.73700596  1
  O  O321  1  0.74986774  0.76385816  0.08576614  1
  O  O322  1  0.73815733  0.76438625  0.40520947  1
  O  O323  1  0.74359611  0.75123786  0.74727858  1
  O  O324  1  0.25204112  0.01705695  0.24279699  1
  O  O325  1  0.25866638  0.01516351  0.58658321  1
  O  O326  1  0.26177469  0.01188680  0.91918241  1
  O  O327  1  0.25148320  0.50779168  0.24917248  1
  O  O328  1  0.26362253  0.50827846  0.58944810  1
  O  O329  1  0.25435705  0.52646965  0.91961909  1
  O  O330  1  0.59385812  0.02491495  0.26287782  1
  O  O331  1  0.58925336  0.02678184  0.59433431  1
  O  O332  1  0.58667416  0.02535769  0.92596692  1
  O  O333  1  0.60095673  0.51104103  0.26538115  1
  O  O334  1  0.59370927  0.52033735  0.59339981  1
  O  O335  1  0.59281717  0.51815557  0.93126433  1
  O  O336  1  0.91878011  0.01628036  0.25714227  1
  O  O337  1  0.92223345  0.02220409  0.58692511  1
  O  O338  1  0.91433678  0.01043366  0.91725990  1
  O  O339  1  0.92460004  0.52290156  0.26126091  1
  O  O340  1  0.91960351  0.52505809  0.59365769  1
  O  O341  1  0.92098227  0.52208957  0.92807064  1
  O  O342  1  0.08967426  0.23151651  0.24695954  1
  O  O343  1  0.08835081  0.23099060  0.57581693  1
  O  O344  1  0.08309529  0.24415611  0.91496395  1
  O  O345  1  0.08737393  0.72748274  0.23771901  1
  O  O346  1  0.08319654  0.73442574  0.58438136  1
  O  O347  1  0.09024647  0.72403143  0.91087075  1
  O  O348  1  0.42882403  0.23806070  0.23985781  1
  O  O349  1  0.42705829  0.23212355  0.57251913  1
  O  O350  1  0.42099408  0.22866761  0.90905756  1
  O  O351  1  0.42497307  0.74897427  0.24708948  1
  O  O352  1  0.43024819  0.73448861  0.57214981  1
  O  O353  1  0.41990096  0.72928651  0.90177845  1
  O  O354  1  0.75876146  0.22605790  0.23951459  1
  O  O355  1  0.75798592  0.22668168  0.57314933  1
  O  O356  1  0.75249981  0.22655856  0.90773804  1
  O  O357  1  0.75931922  0.72722783  0.24537522  1
  O  O358  1  0.75449385  0.72714639  0.57638052  1
  O  O359  1  0.75712433  0.72877102  0.91835375  1
