# generated using pymatgen
data_Ba17Sr5La8Pr42Mn72O216
_symmetry_space_group_name_H-M   'P 1'
_cell_length_a   16.67596831
_cell_length_b   15.70652272
_cell_length_c   16.82413981
_cell_angle_alpha   90.00766484
_cell_angle_beta   89.99689923
_cell_angle_gamma   90.01261212
_symmetry_Int_Tables_number   1
_chemical_formula_structural   Ba17Sr5La8Pr42Mn72O216
_chemical_formula_sum   'Ba17 Sr5 La8 Pr42 Mn72 O216'
_cell_volume   4406.60336558
_cell_formula_units_Z   1
loop_
 _symmetry_equiv_pos_site_id
 _symmetry_equiv_pos_as_xyz
  1  'x, y, z'
loop_
 _atom_site_type_symbol
 _atom_site_label
 _atom_site_symmetry_multiplicity
 _atom_site_fract_x
 _atom_site_fract_y
 _atom_site_fract_z
 _atom_site_occupancy
  Ba  Ba0  1  0.16980170  0.12287854  0.83524531  1
  Ba  Ba1  1  0.83446103  0.12462341  0.83139481  1
  Ba  Ba2  1  0.49902169  0.87548570  0.83462220  1
  Ba  Ba3  1  0.83311443  0.37295457  0.83116156  1
  Ba  Ba4  1  0.33309656  0.37405048  0.00197677  1
  Ba  Ba5  1  0.16341425  0.37619419  0.16621152  1
  Ba  Ba6  1  -0.00567259  0.87436217  0.33447756  1
  Ba  Ba7  1  0.50101566  0.37598480  0.16517007  1
  Ba  Ba8  1  0.33201713  0.87418512  0.33644382  1
  Ba  Ba9  1  0.66754831  0.37702258  0.66585861  1
  Ba  Ba10  1  0.16544238  0.37638884  0.49847304  1
  Ba  Ba11  1  0.33361450  0.37618431  0.66780275  1
  Ba  Ba12  1  0.66847138  0.62719297  0.66445666  1
  Ba  Ba13  1  0.33231380  0.37539147  0.33508854  1
  Ba  Ba14  1  0.66495571  0.12286038  0.33134162  1
  Ba  Ba15  1  0.00137861  0.12169229  0.33364467  1
  Ba  Ba16  1  0.50042723  0.37395679  0.49912101  1
  Sr  Sr17  1  0.33720868  0.12947035  0.99847531  1
  Sr  Sr18  1  0.50080445  0.12532007  0.49967437  1
  Sr  Sr19  1  0.17272747  0.62587204  0.83605441  1
  Sr  Sr20  1  0.66664835  0.87569403  -0.00237190  1
  Sr  Sr21  1  0.50008825  0.12570279  0.83326500  1
  La  La22  1  0.83736580  0.12200050  0.50357450  1
  La  La23  1  -0.00484654  0.37487757  0.33671099  1
  La  La24  1  0.34125637  0.12675079  0.66982739  1
  La  La25  1  0.49831677  0.37208198  0.82886714  1
  La  La26  1  0.49774444  0.62374064  0.49978080  1
  La  La27  1  0.50038096  0.87882385  0.15890586  1
  La  La28  1  -0.00001421  0.37426747  0.66821178  1
  La  La29  1  0.66476414  0.12322943  0.99562369  1
  Pr  Pr30  1  0.82857227  0.37558714  0.49923116  1
  Pr  Pr31  1  0.82441467  0.87389673  0.49812183  1
  Pr  Pr32  1  0.82838914  0.87457095  0.83210005  1
  Pr  Pr33  1  0.50269043  0.87382121  0.49674308  1
  Pr  Pr34  1  0.49288877  0.12636127  0.16756593  1
  Pr  Pr35  1  0.66468621  0.87573345  0.32991641  1
  Pr  Pr36  1  0.32856529  0.87959137  0.00767598  1
  Pr  Pr37  1  0.83285450  0.62740528  0.16975776  1
  Pr  Pr38  1  0.66482983  0.62468791  0.32882802  1
  Pr  Pr39  1  0.83105657  0.37145675  0.16540982  1
  Pr  Pr40  1  0.66344584  0.37322960  0.33759998  1
  Pr  Pr41  1  0.17459440  0.12479609  0.16870719  1
  Pr  Pr42  1  0.17320890  0.62597169  0.16852090  1
  Pr  Pr43  1  0.16183044  0.87369721  0.83400701  1
  Pr  Pr44  1  0.00604718  0.62287008  0.66609159  1
  Pr  Pr45  1  0.83363470  0.62094951  0.83653162  1
  Pr  Pr46  1  0.66481180  0.62635417  0.99290427  1
  Pr  Pr47  1  0.49508928  0.62670592  0.16637021  1
  Pr  Pr48  1  0.00358874  0.12584079  0.99731366  1
  Pr  Pr49  1  0.83341717  0.12298987  0.17004230  1
  Pr  Pr50  1  0.66591211  0.87625841  0.66810803  1
  Pr  Pr51  1  0.66878312  0.37247732  -0.00227772  1
  Pr  Pr52  1  0.17590448  0.62843228  0.50315931  1
  Pr  Pr53  1  -0.00609242  0.87495144  0.66930403  1
  Pr  Pr54  1  0.00745176  0.12816648  0.66222963  1
  Pr  Pr55  1  0.66694816  0.12363331  0.66239325  1
  Pr  Pr56  1  -0.00319372  0.37275830  -0.00017003  1
  Pr  Pr57  1  0.16537555  0.37341409  0.82984329  1
  Pr  Pr58  1  -0.00765466  0.87577820  0.00184318  1
  Pr  Pr59  1  0.49998940  0.62196289  0.83374878  1
  Pr  Pr60  1  0.15418799  0.87538903  0.16532659  1
  Pr  Pr61  1  0.15892665  0.87468704  0.49833536  1
  Pr  Pr62  1  0.83876968  0.62733325  0.50335881  1
  Pr  Pr63  1  0.82739799  0.87816419  0.16526304  1
  Pr  Pr64  1  0.00601165  0.62649325  0.33008956  1
  Pr  Pr65  1  0.33970118  0.62499299  0.66978111  1
  Pr  Pr66  1  0.33610348  0.62224046  1.00087991  1
  Pr  Pr67  1  0.00492456  0.62431159  0.99539000  1
  Pr  Pr68  1  0.33359329  0.62099160  0.33467084  1
  Pr  Pr69  1  0.17583234  0.12196732  0.50414930  1
  Pr  Pr70  1  0.33011047  0.87541421  0.67461118  1
  Pr  Pr71  1  0.33439018  0.12935535  0.33526589  1
  Mn  Mn72  1  -0.00237921  -0.00079063  0.16384811  1
  Mn  Mn73  1  0.00104504  -0.00145395  0.50280500  1
  Mn  Mn74  1  -0.00011841  -0.00224820  0.83404488  1
  Mn  Mn75  1  -0.00252674  0.50256025  0.16560995  1
  Mn  Mn76  1  -0.00123041  0.50315705  0.49896201  1
  Mn  Mn77  1  0.00185886  0.50188986  0.83298932  1
  Mn  Mn78  1  0.33143645  -0.00073252  0.16968747  1
  Mn  Mn79  1  0.33596610  -0.00233351  0.50521400  1
  Mn  Mn80  1  0.33356263  -0.00128434  0.83842361  1
  Mn  Mn81  1  0.33227887  0.50153176  0.16619721  1
  Mn  Mn82  1  0.33343263  0.50253539  0.50076974  1
  Mn  Mn83  1  0.33268391  0.50169764  0.83577539  1
  Mn  Mn84  1  0.66522682  -0.00011914  0.16182880  1
  Mn  Mn85  1  0.66740388  -0.00129204  0.49815895  1
  Mn  Mn86  1  0.66592497  -0.00094361  0.83096597  1
  Mn  Mn87  1  0.66813274  0.50161878  0.16377380  1
  Mn  Mn88  1  0.66906298  0.50208717  0.49557335  1
  Mn  Mn89  1  0.66654414  0.50207029  0.83323407  1
  Mn  Mn90  1  -0.00087734  0.24936973  0.16624289  1
  Mn  Mn91  1  -0.00035990  0.25039663  0.49949564  1
  Mn  Mn92  1  0.00127439  0.24819663  0.83305785  1
  Mn  Mn93  1  -0.00319494  0.74862291  0.16435043  1
  Mn  Mn94  1  0.00001700  0.74907390  0.50170411  1
  Mn  Mn95  1  -0.00052413  0.74949722  0.83383759  1
  Mn  Mn96  1  0.33220939  0.24872978  0.16602426  1
  Mn  Mn97  1  0.33445436  0.24762251  0.50014562  1
  Mn  Mn98  1  0.33393106  0.24923532  0.83515232  1
  Mn  Mn99  1  0.33197015  0.75122530  0.16873205  1
  Mn  Mn100  1  0.33472380  0.75217647  0.50508891  1
  Mn  Mn101  1  0.33214625  0.75024577  0.83780042  1
  Mn  Mn102  1  0.66666727  0.24990350  0.16414039  1
  Mn  Mn103  1  0.66897172  0.24857083  0.49805783  1
  Mn  Mn104  1  0.66563293  0.24739475  0.83175248  1
  Mn  Mn105  1  0.66619286  0.74850499  0.16262891  1
  Mn  Mn106  1  0.66707209  0.74980644  0.49620982  1
  Mn  Mn107  1  0.66688703  0.75124850  0.83152221  1
  Mn  Mn108  1  0.16520137  0.25016874  0.00007816  1
  Mn  Mn109  1  0.16478379  0.24791465  0.33431783  1
  Mn  Mn110  1  0.16804181  0.24992380  0.66713874  1
  Mn  Mn111  1  0.16590788  0.75047855  0.00049349  1
  Mn  Mn112  1  0.16564809  0.75091622  0.33474220  1
  Mn  Mn113  1  0.16699726  0.74993406  0.66873843  1
  Mn  Mn114  1  0.50225965  0.24880443  -0.00171199  1
  Mn  Mn115  1  0.49997402  0.24701410  0.33262224  1
  Mn  Mn116  1  0.50209394  0.24785087  0.66739101  1
  Mn  Mn117  1  0.49927147  0.75005497  0.00009254  1
  Mn  Mn118  1  0.50057767  0.75090124  0.33098535  1
  Mn  Mn119  1  0.49919301  0.75134826  0.66470912  1
  Mn  Mn120  1  0.83323964  0.24966604  0.00198122  1
  Mn  Mn121  1  0.83290387  0.25006572  0.33211474  1
  Mn  Mn122  1  0.83499785  0.24858875  0.66431949  1
  Mn  Mn123  1  0.83289270  0.74856108  0.00070154  1
  Mn  Mn124  1  0.83074341  0.74900949  0.33447203  1
  Mn  Mn125  1  0.83661436  0.74993780  0.66723561  1
  Mn  Mn126  1  0.16538544  -0.00196435  0.00150003  1
  Mn  Mn127  1  0.16649213  -0.00171678  0.33501186  1
  Mn  Mn128  1  0.16806784  -0.00277032  0.66793883  1
  Mn  Mn129  1  0.16434151  0.50220042  -0.00111332  1
  Mn  Mn130  1  0.16381538  0.50254668  0.33409791  1
  Mn  Mn131  1  0.16722708  0.50272157  0.66857372  1
  Mn  Mn132  1  0.49913993  0.00048304  -0.00145652  1
  Mn  Mn133  1  0.49847100  -0.00124130  0.33153469  1
  Mn  Mn134  1  0.50018388  -0.00046659  0.66450994  1
  Mn  Mn135  1  0.50316943  0.50168743  -0.00058153  1
  Mn  Mn136  1  0.50166100  0.50329057  0.33168878  1
  Mn  Mn137  1  0.50109949  0.50150221  0.66744948  1
  Mn  Mn138  1  0.83217254  -0.00019448  -0.00001382  1
  Mn  Mn139  1  0.83117302  -0.00146434  0.33350039  1
  Mn  Mn140  1  0.83596097  -0.00195428  0.66633612  1
  Mn  Mn141  1  0.83343558  0.50017702  0.00314650  1
  Mn  Mn142  1  0.83249906  0.50297709  0.33321851  1
  Mn  Mn143  1  0.83697003  0.50269931  0.66669149  1
  O  O144  1  0.15477456  0.11881235  0.02411475  1
  O  O145  1  0.17014318  0.11906844  0.35762598  1
  O  O146  1  0.15817603  0.12218785  0.67939867  1
  O  O147  1  0.15898741  0.62939856  0.02495357  1
  O  O148  1  0.16044964  0.62863919  0.35681746  1
  O  O149  1  0.15842590  0.62795775  0.68939812  1
  O  O150  1  0.50989127  0.12275173  0.02257389  1
  O  O151  1  0.49548142  0.12024337  0.34785112  1
  O  O152  1  0.50959961  0.12221350  0.68338964  1
  O  O153  1  0.51181594  0.62750494  0.02284018  1
  O  O154  1  0.50718731  0.63050348  0.35488330  1
  O  O155  1  0.49672350  0.62920868  0.68891088  1
  O  O156  1  0.83229084  0.12554118  0.02628427  1
  O  O157  1  0.83202327  0.12007323  0.35669384  1
  O  O158  1  0.82929705  0.12106460  0.67195875  1
  O  O159  1  0.83222524  0.62486880  0.02711601  1
  O  O160  1  0.82513251  0.62543680  0.36153574  1
  O  O161  1  0.84133344  0.62981552  0.69178624  1
  O  O162  1  0.15886341  0.38003868  0.32323566  1
  O  O163  1  0.16251353  0.37747714  0.65479099  1
  O  O164  1  0.15718614  0.38061821  0.97649921  1
  O  O165  1  0.16531471  0.87327044  0.30997460  1
  O  O166  1  0.17632830  0.87257108  0.63977273  1
  O  O167  1  0.17048273  0.87228269  0.97800151  1
  O  O168  1  0.50774522  0.37620078  0.32279500  1
  O  O169  1  0.49956665  0.37557643  0.66022167  1
  O  O170  1  0.50759017  0.37782634  0.97634202  1
  O  O171  1  0.50367138  0.87263232  0.30455276  1
  O  O172  1  0.49380487  0.87440735  0.64025047  1
  O  O173  1  0.48448423  0.87313001  0.99208628  1
  O  O174  1  0.83731973  0.38189673  0.30743290  1
  O  O175  1  0.84273877  0.37558410  0.64552908  1
  O  O176  1  0.83626820  0.37629772  0.98553381  1
  O  O177  1  0.82702606  0.87308370  0.30949084  1
  O  O178  1  0.84113284  0.87282569  0.64102307  1
  O  O179  1  0.83955806  0.87127736  0.97410485  1
  O  O180  1  -0.00565299  0.38168863  0.19403305  1
  O  O181  1  -0.00608633  0.38067047  0.52307722  1
  O  O182  1  0.00798162  0.37968778  0.85538297  1
  O  O183  1  0.00126134  0.87230082  0.17975968  1
  O  O184  1  0.00695869  0.87248577  0.52629477  1
  O  O185  1  0.00044360  0.87232933  0.85891154  1
  O  O186  1  0.33320368  0.37506328  0.17589311  1
  O  O187  1  0.33300510  0.37879145  0.50858918  1
  O  O188  1  0.33859870  0.37864975  0.84451573  1
  O  O189  1  0.34456481  0.87332142  0.17996574  1
  O  O190  1  0.34355715  0.87406606  0.53194409  1
  O  O191  1  0.32910006  0.87203163  0.86259192  1
  O  O192  1  0.67234643  0.38062231  0.19407921  1
  O  O193  1  0.67136768  0.37678311  0.50730939  1
  O  O194  1  0.66129628  0.37904798  0.85362069  1
  O  O195  1  0.66738279  0.87156028  0.18721648  1
  O  O196  1  0.66711736  0.87274331  0.52398157  1
  O  O197  1  0.67589001  0.87385999  0.84835712  1
  O  O198  1  -0.01158228  0.11970811  0.13943318  1
  O  O199  1  -0.00359196  0.12091384  0.49179491  1
  O  O200  1  0.00174836  0.11763195  0.80797014  1
  O  O201  1  -0.01167719  0.62650828  0.13764713  1
  O  O202  1  -0.00903569  0.62641401  0.47349975  1
  O  O203  1  -0.00752790  0.62782941  0.80892585  1
  O  O204  1  0.32840095  0.12149010  0.14994338  1
  O  O205  1  0.32700095  0.11780988  0.48045504  1
  O  O206  1  0.33355694  0.12069229  0.81578615  1
  O  O207  1  0.32702088  0.62984434  0.14623570  1
  O  O208  1  0.33030262  0.63071855  0.47988945  1
  O  O209  1  0.33339369  0.62823081  0.81311925  1
  O  O210  1  0.67290829  0.12239119  0.13959438  1
  O  O211  1  0.67814459  0.12175485  0.48999112  1
  O  O212  1  0.66439827  0.11842787  0.80792601  1
  O  O213  1  0.67429929  0.62603790  0.13524077  1
  O  O214  1  0.67439253  0.62797957  0.47346885  1
  O  O215  1  0.66585529  0.62925871  0.82204610  1
  O  O216  1  0.08841313  0.01289082  0.23313632  1
  O  O217  1  0.09207900  0.01371734  0.57759450  1
  O  O218  1  0.08321891  0.00822141  0.91609197  1
  O  O219  1  0.08414656  0.52874266  0.24147975  1
  O  O220  1  0.08582840  0.52491697  0.57578695  1
  O  O221  1  0.08441721  0.52508411  0.91311962  1
  O  O222  1  0.41404901  0.02082715  0.24983181  1
  O  O223  1  0.41820319  0.02369923  0.58474207  1
  O  O224  1  0.41947658  0.01658266  0.91757842  1
  O  O225  1  0.41672954  0.52465987  0.25182129  1
  O  O226  1  0.41605423  0.52266756  0.58472709  1
  O  O227  1  0.41895170  0.52483904  0.91874413  1
  O  O228  1  0.75101053  0.01106606  0.24022148  1
  O  O229  1  0.75904336  0.00738974  0.57681982  1
  O  O230  1  0.75082651  0.01254615  0.91908080  1
  O  O231  1  0.75048864  0.52729233  0.24878081  1
  O  O232  1  0.76076337  0.51338869  0.57291153  1
  O  O233  1  0.74872718  0.52048328  0.92086530  1
  O  O234  1  0.25167248  0.22915369  0.25398646  1
  O  O235  1  0.25295540  0.22742515  0.58764729  1
  O  O236  1  0.24998997  0.24434673  0.92062626  1
  O  O237  1  0.25193292  0.72809782  0.25529991  1
  O  O238  1  0.25544553  0.72698605  0.59487747  1
  O  O239  1  0.25678911  0.73099700  0.92889311  1
  O  O240  1  0.57788561  0.23242899  0.23917491  1
  O  O241  1  0.59131353  0.23272763  0.58818033  1
  O  O242  1  0.58621827  0.23128423  0.91805622  1
  O  O243  1  0.58463541  0.72625367  0.24441165  1
  O  O244  1  0.57871514  0.73704819  0.56964774  1
  O  O245  1  0.58319291  0.73566248  0.91797591  1
  O  O246  1  0.91471686  0.23497633  0.24882399  1
  O  O247  1  0.92183765  0.23101699  0.58589214  1
  O  O248  1  0.92203132  0.23590589  0.92609662  1
  O  O249  1  0.91571417  0.72719486  0.25505645  1
  O  O250  1  0.92759821  0.72980483  0.59381992  1
  O  O251  1  0.91809800  0.72577899  0.92161434  1
  O  O252  1  0.07051715  0.48794965  0.07228150  1
  O  O253  1  0.06799414  0.49175358  0.40419704  1
  O  O254  1  0.08099090  0.48252053  0.74652299  1
  O  O255  1  0.07553300  0.97551825  0.07585721  1
  O  O256  1  0.08299537  0.98313878  0.41888169  1
  O  O257  1  0.08096733  0.97180118  0.74446308  1
  O  O258  1  0.42119418  0.50382788  0.08274756  1
  O  O259  1  0.41707725  0.50479551  0.41775222  1
  O  O260  1  0.41778924  0.49678842  0.75748475  1
  O  O261  1  0.41319503  0.98922123  0.08474373  1
  O  O262  1  0.41932746  0.98178181  0.42530594  1
  O  O263  1  0.40781083  0.98592974  0.74411361  1
  O  O264  1  0.75141608  0.47543384  0.08593508  1
  O  O265  1  0.74970545  0.47694835  0.40987215  1
  O  O266  1  0.75346825  0.49846894  0.75473541  1
  O  O267  1  0.75034250  0.97837143  0.08193975  1
  O  O268  1  0.74470710  0.97380025  0.41305949  1
  O  O269  1  0.75040451  0.97769273  0.74307428  1
  O  O270  1  0.24307839  0.25164913  0.08758974  1
  O  O271  1  0.24645627  0.25046422  0.42057470  1
  O  O272  1  0.24470296  0.26255689  0.75493918  1
  O  O273  1  0.24420027  0.77285862  0.09287653  1
  O  O274  1  0.24410885  0.76629335  0.43361335  1
  O  O275  1  0.24361892  0.77217894  0.75809785  1
  O  O276  1  0.59265648  0.26645907  0.07439836  1
  O  O277  1  0.58774603  0.25822161  0.41083395  1
  O  O278  1  0.57758785  0.26409974  0.75637022  1
  O  O279  1  0.57949601  0.76952871  0.08528125  1
  O  O280  1  0.58545829  0.77422885  0.40882086  1
  O  O281  1  0.58581310  0.76908221  0.73913879  1
  O  O282  1  0.91331216  0.27132540  0.08806790  1
  O  O283  1  0.91067221  0.27057965  0.42131888  1
  O  O284  1  0.92345536  0.25916304  0.74440016  1
  O  O285  1  0.91105715  0.77242202  0.08660204  1
  O  O286  1  0.90694619  0.76516537  0.43223982  1
  O  O287  1  0.91355057  0.77532287  0.75586436  1
  O  O288  1  0.24405634  0.49955637  0.08537551  1
  O  O289  1  0.24608024  0.50329442  0.42099267  1
  O  O290  1  0.24323176  0.48874762  0.76106795  1
  O  O291  1  0.24073738  0.97747374  0.09500168  1
  O  O292  1  0.24513413  0.97949277  0.43658194  1
  O  O293  1  0.24490150  0.97484537  0.75819862  1
  O  O294  1  0.59441523  0.48513627  0.07225953  1
  O  O295  1  0.59279216  0.49384692  0.40345854  1
  O  O296  1  0.57961120  0.49221398  0.75606475  1
  O  O297  1  0.58235693  0.97976857  0.08001897  1
  O  O298  1  0.58337516  0.97657529  0.41355969  1
  O  O299  1  0.58722535  0.98015202  0.74001465  1
  O  O300  1  0.91284287  0.47789861  0.08922107  1
  O  O301  1  0.90940380  0.48123115  0.42195111  1
  O  O302  1  0.92361370  0.48644409  0.74711280  1
  O  O303  1  0.91080671  0.97557506  0.08590974  1
  O  O304  1  0.90764676  0.98407331  0.43384414  1
  O  O305  1  0.91261375  0.97403158  0.75689562  1
  O  O306  1  0.07122684  0.26453664  0.07421121  1
  O  O307  1  0.07238579  0.26376218  0.40957429  1
  O  O308  1  0.08337263  0.26926270  0.74767087  1
  O  O309  1  0.07834363  0.77000098  0.07640565  1
  O  O310  1  0.08052451  0.76311153  0.41840760  1
  O  O311  1  0.07969448  0.77475373  0.74422135  1
  O  O312  1  0.42084190  0.24966028  0.08557481  1
  O  O313  1  0.41433111  0.24974287  0.41500233  1
  O  O314  1  0.41725260  0.25311224  0.74993761  1
  O  O315  1  0.41259906  0.75627205  0.08267901  1
  O  O316  1  0.42329775  0.76410083  0.42461536  1
  O  O317  1  0.40620190  0.76487166  0.74625062  1
  O  O318  1  0.75028133  0.27280786  0.08307958  1
  O  O319  1  0.75039259  0.27223020  0.41024831  1
  O  O320  1  0.74761722  0.25299861  0.74263979  1
  O  O321  1  0.75078502  0.77096941  0.08313308  1
  O  O322  1  0.74473786  0.77504870  0.41120847  1
  O  O323  1  0.75239604  0.77221149  0.74383775  1
  O  O324  1  0.25261043  0.01985374  0.25649977  1
  O  O325  1  0.25807731  0.01958016  0.59516069  1
  O  O326  1  0.25713303  0.00850206  0.93181779  1
  O  O327  1  0.24929717  0.52315595  0.25546315  1
  O  O328  1  0.25271193  0.52552636  0.58980408  1
  O  O329  1  0.25442909  0.52018459  0.92378898  1
  O  O330  1  0.57713994  0.01146685  0.23697989  1
  O  O331  1  0.58994264  0.01161620  0.58180459  1
  O  O332  1  0.58622502  0.01217320  0.91742903  1
  O  O333  1  0.58287468  0.52755370  0.24001704  1
  O  O334  1  0.58288229  0.51710340  0.57258316  1
  O  O335  1  0.58219500  0.52391039  0.91447333  1
  O  O336  1  0.91184619  0.01083853  0.24534862  1
  O  O337  1  0.93066765  0.01289935  0.59812885  1
  O  O338  1  0.92335040  0.01479707  0.92753295  1
  O  O339  1  0.91780015  0.52934460  0.25567818  1
  O  O340  1  0.92333187  0.52639864  0.58488754  1
  O  O341  1  0.91822552  0.52172086  0.91942507  1
  O  O342  1  0.08867031  0.22985548  0.23861035  1
  O  O343  1  0.08643655  0.23328190  0.58112370  1
  O  O344  1  0.08074721  0.23486631  0.91712948  1
  O  O345  1  0.08283178  0.72821457  0.24066544  1
  O  O346  1  0.08851441  0.72875861  0.57843228  1
  O  O347  1  0.08400529  0.73346594  0.91257412  1
  O  O348  1  0.41461002  0.22924569  0.25019653  1
  O  O349  1  0.41825992  0.23095240  0.58513538  1
  O  O350  1  0.42185647  0.23991462  0.91554299  1
  O  O351  1  0.41579601  0.72444204  0.25172593  1
  O  O352  1  0.41688336  0.72435259  0.58452033  1
  O  O353  1  0.42042292  0.72223834  0.91703310  1
  O  O354  1  0.75514481  0.23559673  0.24164294  1
  O  O355  1  0.75998187  0.23904558  0.57446404  1
  O  O356  1  0.74580019  0.23765168  0.92260717  1
  O  O357  1  0.74775202  0.72835947  0.24571050  1
  O  O358  1  0.76259524  0.73770055  0.57426826  1
  O  O359  1  0.75644258  0.72818952  0.91580573  1
