# generated using pymatgen
data_Ba17Sr5La8Pr42Mn72O216
_symmetry_space_group_name_H-M   'P 1'
_cell_length_a   16.67361073
_cell_length_b   15.70729692
_cell_length_c   16.81970305
_cell_angle_alpha   89.99226413
_cell_angle_beta   89.99749794
_cell_angle_gamma   90.01247529
_symmetry_Int_Tables_number   1
_chemical_formula_structural   Ba17Sr5La8Pr42Mn72O216
_chemical_formula_sum   'Ba17 Sr5 La8 Pr42 Mn72 O216'
_cell_volume   4405.03558301
_cell_formula_units_Z   1
loop_
 _symmetry_equiv_pos_site_id
 _symmetry_equiv_pos_as_xyz
  1  'x, y, z'
loop_
 _atom_site_type_symbol
 _atom_site_label
 _atom_site_symmetry_multiplicity
 _atom_site_fract_x
 _atom_site_fract_y
 _atom_site_fract_z
 _atom_site_occupancy
  Ba  Ba0  1  0.50026971  0.37771616  0.16506140  1
  Ba  Ba1  1  0.33273239  0.37467446  0.00136529  1
  Ba  Ba2  1  0.33492251  0.12378667  0.66708589  1
  Ba  Ba3  1  0.50130635  0.12547606  0.50409038  1
  Ba  Ba4  1  0.66829098  0.12380381  0.66731556  1
  Ba  Ba5  1  0.33481994  0.12501996  0.99741232  1
  Ba  Ba6  1  0.33162283  0.37619369  0.33380054  1
  Ba  Ba7  1  0.83262745  0.37544778  0.83494956  1
  Ba  Ba8  1  0.16751332  0.12592859  0.83107595  1
  Ba  Ba9  1  0.50068980  0.87396273  0.83493238  1
  Ba  Ba10  1  0.66828288  0.37584121  0.00221501  1
  Ba  Ba11  1  0.83519297  0.12299565  0.16795007  1
  Ba  Ba12  1  0.66610427  0.62449147  0.66409606  1
  Ba  Ba13  1  0.33202959  0.62592124  0.33276313  1
  Ba  Ba14  1  0.49899198  0.62605015  0.16983772  1
  Ba  Ba15  1  0.16827798  0.37596649  0.83311724  1
  Ba  Ba16  1  0.83419380  0.12518722  0.83346832  1
  Sr  Sr17  1  0.49436793  0.62412498  0.50097452  1
  Sr  Sr18  1  0.00381995  0.12749939  0.66757412  1
  Sr  Sr19  1  0.50006685  0.12301919  0.83449591  1
  Sr  Sr20  1  0.66776275  0.87614428  0.00126289  1
  Sr  Sr21  1  -0.00288315  0.62652337  0.32866669  1
  La  La22  1  0.83025012  0.37730758  0.50056883  1
  La  La23  1  0.33441686  0.87904408  -0.00117369  1
  La  La24  1  0.16536350  0.62332557  0.83472509  1
  La  La25  1  0.83117234  0.87529553  0.83193663  1
  La  La26  1  -0.00213788  0.62469180  0.99951003  1
  La  La27  1  0.33750578  0.12322823  0.33077019  1
  La  La28  1  0.83599305  0.62596528  0.49988264  1
  La  La29  1  0.50364853  0.87526092  0.50348181  1
  Pr  Pr30  1  0.33774329  0.87538241  0.66751216  1
  Pr  Pr31  1  0.33264427  0.62344532  1.00104707  1
  Pr  Pr32  1  0.33826290  0.37489701  0.66894151  1
  Pr  Pr33  1  0.49561164  0.62670093  0.83624617  1
  Pr  Pr34  1  0.16672877  0.87210716  0.16306576  1
  Pr  Pr35  1  0.83461252  0.87357963  0.16475167  1
  Pr  Pr36  1  0.16957763  0.12542153  0.16476877  1
  Pr  Pr37  1  0.82946640  0.62762798  0.16952411  1
  Pr  Pr38  1  0.66412000  0.62609842  0.33173127  1
  Pr  Pr39  1  0.16501796  0.87885660  0.49562628  1
  Pr  Pr40  1  0.49932913  0.37159732  0.83477298  1
  Pr  Pr41  1  0.83951081  0.12307176  0.50945096  1
  Pr  Pr42  1  0.16796946  0.87810089  0.82742768  1
  Pr  Pr43  1  -0.00049319  0.87876535  -0.00021746  1
  Pr  Pr44  1  0.33409699  0.87171663  0.33485228  1
  Pr  Pr45  1  0.16766695  0.37800352  0.16137429  1
  Pr  Pr46  1  0.16559431  0.62224644  0.17165534  1
  Pr  Pr47  1  0.66571868  0.87485199  0.33323300  1
  Pr  Pr48  1  0.49826631  0.87174361  0.16221124  1
  Pr  Pr49  1  0.17240330  0.12682872  0.50546378  1
  Pr  Pr50  1  0.16416317  0.37235098  0.49761977  1
  Pr  Pr51  1  0.66491109  0.37595765  0.33158445  1
  Pr  Pr52  1  0.00031908  0.37333036  0.66969659  1
  Pr  Pr53  1  -0.00090433  0.87491725  0.66950185  1
  Pr  Pr54  1  0.83636867  0.37616109  0.16061819  1
  Pr  Pr55  1  0.00368466  0.12421488  0.33256252  1
  Pr  Pr56  1  -0.00599803  0.87452780  0.33600904  1
  Pr  Pr57  1  0.00105144  0.61964136  0.66435197  1
  Pr  Pr58  1  0.00007584  0.12448571  0.99280222  1
  Pr  Pr59  1  0.66254328  0.87487045  0.67217650  1
  Pr  Pr60  1  0.66287060  0.12583767  0.99398409  1
  Pr  Pr61  1  0.33113682  0.62799464  0.66237513  1
  Pr  Pr62  1  0.66049217  0.62447699  0.99657803  1
  Pr  Pr63  1  0.50631250  0.37424525  0.49938505  1
  Pr  Pr64  1  0.50352929  0.12935892  0.16742769  1
  Pr  Pr65  1  -0.00444070  0.37438667  0.33391560  1
  Pr  Pr66  1  0.66111829  0.37331155  0.67200719  1
  Pr  Pr67  1  0.16679720  0.62534711  0.49800301  1
  Pr  Pr68  1  0.00052416  0.37026545  0.00117632  1
  Pr  Pr69  1  0.66709321  0.12504405  0.33392064  1
  Pr  Pr70  1  0.82787136  0.87156851  0.50101326  1
  Pr  Pr71  1  0.83018123  0.62488831  0.83771116  1
  Mn  Mn72  1  0.00179597  -0.00051465  0.16695638  1
  Mn  Mn73  1  -0.00050801  -0.00272373  0.49986594  1
  Mn  Mn74  1  0.00030328  -0.00200576  0.83363334  1
  Mn  Mn75  1  -0.00109955  0.50148997  0.16729513  1
  Mn  Mn76  1  0.00027884  0.50119993  0.49782054  1
  Mn  Mn77  1  -0.00050142  0.50187349  0.83228051  1
  Mn  Mn78  1  0.33248009  -0.00007946  0.16826265  1
  Mn  Mn79  1  0.33276552  -0.00434059  0.49759947  1
  Mn  Mn80  1  0.33382181  -0.00143768  0.83342713  1
  Mn  Mn81  1  0.33132201  0.50097736  0.16703018  1
  Mn  Mn82  1  0.33078693  0.50091011  0.50298020  1
  Mn  Mn83  1  0.33398895  0.50167485  0.83084725  1
  Mn  Mn84  1  0.66689114  -0.00071638  0.16736054  1
  Mn  Mn85  1  0.66971528  -0.00284933  0.50021832  1
  Mn  Mn86  1  0.66711297  -0.00130734  0.83560566  1
  Mn  Mn87  1  0.66943415  0.50311094  0.16752824  1
  Mn  Mn88  1  0.66724548  0.50110281  0.49930320  1
  Mn  Mn89  1  0.66557556  0.50100524  0.83152330  1
  Mn  Mn90  1  0.00166968  0.24797204  0.16839417  1
  Mn  Mn91  1  -0.00111178  0.25112934  0.49869433  1
  Mn  Mn92  1  0.00041984  0.25094877  0.83293547  1
  Mn  Mn93  1  -0.00006661  0.75172551  0.16601069  1
  Mn  Mn94  1  0.00095248  0.74873137  0.50034619  1
  Mn  Mn95  1  0.00028086  0.74884321  0.83305308  1
  Mn  Mn96  1  0.33239294  0.24729575  0.16777126  1
  Mn  Mn97  1  0.33277070  0.25259221  0.49993720  1
  Mn  Mn98  1  0.33497039  0.25122243  0.83337530  1
  Mn  Mn99  1  0.32975988  0.75303500  0.16640336  1
  Mn  Mn100  1  0.33161036  0.75113707  0.50016158  1
  Mn  Mn101  1  0.33040528  0.74824146  0.83204091  1
  Mn  Mn102  1  0.66962569  0.24754662  0.16774400  1
  Mn  Mn103  1  0.67074000  0.25198543  0.50018854  1
  Mn  Mn104  1  0.66555559  0.25006037  0.83428234  1
  Mn  Mn105  1  0.66788865  0.75204368  0.16687044  1
  Mn  Mn106  1  0.66617522  0.74907668  0.49972609  1
  Mn  Mn107  1  0.66803926  0.74880853  0.83365188  1
  Mn  Mn108  1  0.16514503  0.25020965  0.00128915  1
  Mn  Mn109  1  0.16428159  0.24759072  0.33262633  1
  Mn  Mn110  1  0.16761073  0.25080301  0.66333943  1
  Mn  Mn111  1  0.16546117  0.74985295  -0.00164779  1
  Mn  Mn112  1  0.16231542  0.75204740  0.33153689  1
  Mn  Mn113  1  0.16482888  0.74993474  0.66508422  1
  Mn  Mn114  1  0.50109873  0.24936676  0.00083689  1
  Mn  Mn115  1  0.50116197  0.24955012  0.33534682  1
  Mn  Mn116  1  0.50010123  0.25120207  0.66656498  1
  Mn  Mn117  1  0.49908890  0.75050502  0.00084445  1
  Mn  Mn118  1  0.50139263  0.75336045  0.33445167  1
  Mn  Mn119  1  0.49905635  0.74770624  0.66649799  1
  Mn  Mn120  1  0.83446705  0.24922708  0.00264416  1
  Mn  Mn121  1  0.83285464  0.25078422  0.33570483  1
  Mn  Mn122  1  0.83580230  0.25048165  0.66531642  1
  Mn  Mn123  1  0.83420425  0.75014355  0.00121322  1
  Mn  Mn124  1  0.83220294  0.75061502  0.33331705  1
  Mn  Mn125  1  0.83634312  0.74837594  0.66682349  1
  Mn  Mn126  1  0.16524034  -0.00374968  -0.00147355  1
  Mn  Mn127  1  0.16455387  -0.00019917  0.33170655  1
  Mn  Mn128  1  0.16550004  -0.00202974  0.66181599  1
  Mn  Mn129  1  0.16450501  0.50318516  0.00184144  1
  Mn  Mn130  1  0.16206933  0.49889197  0.33304445  1
  Mn  Mn131  1  0.16762120  0.50174590  0.66388845  1
  Mn  Mn132  1  0.50137633  -0.00316433  0.00264545  1
  Mn  Mn133  1  0.50155380  -0.00037448  0.33208368  1
  Mn  Mn134  1  0.50105430  -0.00114916  0.66706567  1
  Mn  Mn135  1  0.49920867  0.50400857  -0.00070034  1
  Mn  Mn136  1  0.50064239  0.49946952  0.33651008  1
  Mn  Mn137  1  0.49835614  0.50106721  0.66660885  1
  Mn  Mn138  1  0.83315461  -0.00209780  0.00143575  1
  Mn  Mn139  1  0.83285329  -0.00042591  0.33701341  1
  Mn  Mn140  1  0.83658448  -0.00231619  0.66572902  1
  Mn  Mn141  1  0.83515678  0.50255059  0.00267544  1
  Mn  Mn142  1  0.83268994  0.50054018  0.33148597  1
  Mn  Mn143  1  0.83474292  0.50077917  0.66552434  1
  O  O144  1  0.15582324  0.12172000  0.02088235  1
  O  O145  1  0.15743385  0.12147887  0.36249055  1
  O  O146  1  0.16336231  0.12256413  0.67199518  1
  O  O147  1  0.16494745  0.62949442  0.02786185  1
  O  O148  1  0.16042172  0.63049998  0.35449415  1
  O  O149  1  0.16673386  0.62982180  0.69281123  1
  O  O150  1  0.50821533  0.11719339  0.02240714  1
  O  O151  1  0.49961703  0.12322118  0.34946324  1
  O  O152  1  0.50031048  0.12644515  0.67974429  1
  O  O153  1  0.50156799  0.62985422  0.01193192  1
  O  O154  1  0.50825167  0.62772164  0.35153537  1
  O  O155  1  0.48988890  0.62286773  0.69037161  1
  O  O156  1  0.84049047  0.12276452  0.01178233  1
  O  O157  1  0.83212333  0.12018565  0.36445612  1
  O  O158  1  0.83711035  0.12363728  0.67383565  1
  O  O159  1  0.84086739  0.62846588  0.02739888  1
  O  O160  1  0.83042890  0.62497764  0.35829321  1
  O  O161  1  0.84162290  0.62623529  0.69292687  1
  O  O162  1  0.15667417  0.36802654  0.30551187  1
  O  O163  1  0.16422856  0.37793426  0.64096364  1
  O  O164  1  0.15953544  0.37944648  0.99259296  1
  O  O165  1  0.16149226  0.87782961  0.30556381  1
  O  O166  1  0.15812729  0.87005798  0.63810404  1
  O  O167  1  0.16184824  0.86880085  0.97044144  1
  O  O168  1  0.50886444  0.37200981  0.32295137  1
  O  O169  1  0.50095693  0.38072992  0.64488588  1
  O  O170  1  0.50076809  0.38268658  0.98168213  1
  O  O171  1  0.50809903  0.87968097  0.30621308  1
  O  O172  1  0.50286124  0.87072125  0.65067215  1
  O  O173  1  0.49536116  0.87098952  0.99130271  1
  O  O174  1  0.83655108  0.38005981  0.30359923  1
  O  O175  1  0.84124435  0.37767414  0.64358674  1
  O  O176  1  0.84019617  0.37805241  0.99292311  1
  O  O177  1  0.83427879  0.87531101  0.30761065  1
  O  O178  1  0.84108093  0.87084462  0.64332750  1
  O  O179  1  0.83832127  0.87046766  0.97628967  1
  O  O180  1  -0.00170820  0.37658048  0.19145581  1
  O  O181  1  0.00164251  0.38038125  0.52609333  1
  O  O182  1  0.00103677  0.38123524  0.85479367  1
  O  O183  1  0.00144293  0.87592117  0.19350844  1
  O  O184  1  0.00342393  0.87062145  0.52658888  1
  O  O185  1  0.00528019  0.87025609  0.85667970  1
  O  O186  1  0.32226849  0.37058794  0.17545006  1
  O  O187  1  0.31847671  0.38197559  0.52391397  1
  O  O188  1  0.33824590  0.37971372  0.84401498  1
  O  O189  1  0.32544487  0.87823784  0.19138339  1
  O  O190  1  0.32263349  0.87155790  0.52211024  1
  O  O191  1  0.32434634  0.86808484  0.85453639  1
  O  O192  1  0.67754318  0.37704422  0.18727150  1
  O  O193  1  0.66899122  0.37970213  0.52601889  1
  O  O194  1  0.65910332  0.37893370  0.84383420  1
  O  O195  1  0.67089850  0.87582761  0.19163530  1
  O  O196  1  0.67239902  0.87026123  0.52653157  1
  O  O197  1  0.67419741  0.87071690  0.84889774  1
  O  O198  1  0.00579825  0.12028570  0.13729265  1
  O  O199  1  -0.00788584  0.12175630  0.47435147  1
  O  O200  1  -0.00020448  0.12161663  0.82111422  1
  O  O201  1  -0.00045246  0.62834192  0.14213725  1
  O  O202  1  0.00171532  0.62542481  0.47559997  1
  O  O203  1  -0.00042887  0.62674589  0.80765325  1
  O  O204  1  0.33157586  0.12118825  0.15494931  1
  O  O205  1  0.32734355  0.11878062  0.47626210  1
  O  O206  1  0.33704717  0.12635788  0.82469576  1
  O  O207  1  0.32197574  0.63163692  0.14775251  1
  O  O208  1  0.33190930  0.62830553  0.48764280  1
  O  O209  1  0.33263840  0.62569156  0.80569222  1
  O  O210  1  0.66338923  0.11875260  0.14124298  1
  O  O211  1  0.67708444  0.12417623  0.47856722  1
  O  O212  1  0.66494281  0.12339884  0.82710525  1
  O  O213  1  0.67539073  0.63018170  0.14299992  1
  O  O214  1  0.67171974  0.62564844  0.47481024  1
  O  O215  1  0.67576897  0.62509109  0.82052943  1
  O  O216  1  0.08641145  0.02443496  0.24669493  1
  O  O217  1  0.08842431  0.01454586  0.57097461  1
  O  O218  1  0.07937613  0.01032225  0.92059042  1
  O  O219  1  0.07951109  0.51937836  0.24840929  1
  O  O220  1  0.08554686  0.52439054  0.57899290  1
  O  O221  1  0.08233655  0.52444334  0.91965967  1
  O  O222  1  0.41905152  0.01683077  0.25042534  1
  O  O223  1  0.41753937  -0.00435126  0.57959179  1
  O  O224  1  0.41943209  0.00319677  0.92077465  1
  O  O225  1  0.41462672  0.50615002  0.25241518  1
  O  O226  1  0.40505978  0.51302648  0.59771036  1
  O  O227  1  0.41398538  0.52660507  0.91496347  1
  O  O228  1  0.74458915  0.01606349  0.25913649  1
  O  O229  1  0.76208824  0.00757405  0.57369602  1
  O  O230  1  0.74904613  0.00894296  0.92265944  1
  O  O231  1  0.74942449  0.52744219  0.25311299  1
  O  O232  1  0.75912307  0.51606654  0.57342364  1
  O  O233  1  0.74950736  0.52195586  0.92491962  1
  O  O234  1  0.25028181  0.22325783  0.25772966  1
  O  O235  1  0.24799954  0.23673599  0.57847800  1
  O  O236  1  0.24884596  0.24495982  0.91890818  1
  O  O237  1  0.23892830  0.73940720  0.24138646  1
  O  O238  1  0.24405957  0.72871835  0.58387903  1
  O  O239  1  0.24662132  0.72301724  0.91449200  1
  O  O240  1  0.58614482  0.22842259  0.25135070  1
  O  O241  1  0.58847813  0.24953118  0.58551497  1
  O  O242  1  0.58433637  0.23440414  0.92014598  1
  O  O243  1  0.59052973  0.73911885  0.25704426  1
  O  O244  1  0.57888134  0.73972637  0.57681370  1
  O  O245  1  0.58331223  0.73000980  0.91373537  1
  O  O246  1  0.92655295  0.23334359  0.26016341  1
  O  O247  1  0.92179762  0.23512027  0.58295238  1
  O  O248  1  0.92214430  0.24168703  0.92558812  1
  O  O249  1  0.91062202  0.73590148  0.24627116  1
  O  O250  1  0.92106360  0.72678737  0.58649927  1
  O  O251  1  0.91409640  0.72737975  0.91538606  1
  O  O252  1  0.08177652  0.48409711  0.08723777  1
  O  O253  1  0.07985383  0.47403359  0.41521596  1
  O  O254  1  0.08264171  0.48945349  0.74034167  1
  O  O255  1  0.08402834  0.97185214  0.08148480  1
  O  O256  1  0.07663385  0.97575194  0.41027216  1
  O  O257  1  0.08214657  0.97728439  0.74629465  1
  O  O258  1  0.41212183  0.50214067  0.07929479  1
  O  O259  1  0.42175407  0.48510060  0.43197585  1
  O  O260  1  0.42524111  0.47900587  0.75446494  1
  O  O261  1  0.41583395  0.97749456  0.08672871  1
  O  O262  1  0.41416704  0.97467853  0.41227765  1
  O  O263  1  0.41184365  0.98289641  0.74561340  1
  O  O264  1  0.76309263  0.49172257  0.09525610  1
  O  O265  1  0.75023525  0.47671246  0.41056340  1
  O  O266  1  0.74920855  0.48600591  0.74231356  1
  O  O267  1  0.75389879  0.97838315  0.08836378  1
  O  O268  1  0.74867806  0.97132212  0.41569510  1
  O  O269  1  0.75201446  0.97731058  0.74490132  1
  O  O270  1  0.23863502  0.25483377  0.09411350  1
  O  O271  1  0.23728598  0.26289477  0.42128192  1
  O  O272  1  0.25492133  0.26518679  0.74210058  1
  O  O273  1  0.24953975  0.77593916  0.07644326  1
  O  O274  1  0.24681872  0.77262382  0.41171492  1
  O  O275  1  0.24657904  0.77371118  0.74500124  1
  O  O276  1  0.58608102  0.25317590  0.08572429  1
  O  O277  1  0.58799325  0.26753443  0.41879527  1
  O  O278  1  0.57899681  0.27078824  0.75092236  1
  O  O279  1  0.58455705  0.76747433  0.08877197  1
  O  O280  1  0.58453889  0.77549231  0.41644632  1
  O  O281  1  0.58718249  0.75925245  0.74427840  1
  O  O282  1  0.91960937  0.26915501  0.08794465  1
  O  O283  1  0.91208939  0.27527517  0.42072879  1
  O  O284  1  0.91944582  0.26529348  0.74537055  1
  O  O285  1  0.92075916  0.77465453  0.08137835  1
  O  O286  1  0.91245222  0.77075197  0.41701432  1
  O  O287  1  0.91835507  0.77319217  0.75148605  1
  O  O288  1  0.24283382  0.49359107  0.08705581  1
  O  O289  1  0.24016756  0.48961310  0.42257448  1
  O  O290  1  0.25795000  0.48922106  0.73941164  1
  O  O291  1  0.24531480  0.97835761  0.08323979  1
  O  O292  1  0.24723765  0.97528005  0.41207838  1
  O  O293  1  0.24780676  0.97590351  0.74321372  1
  O  O294  1  0.59070298  0.50013908  0.08019211  1
  O  O295  1  0.58771240  0.47874020  0.41751614  1
  O  O296  1  0.58217076  0.48351162  0.74357836  1
  O  O297  1  0.57985892  0.97680093  0.09117824  1
  O  O298  1  0.58556541  0.97910924  0.41598663  1
  O  O299  1  0.58772359  0.98518704  0.74784095  1
  O  O300  1  0.92435005  0.48168056  0.07961049  1
  O  O301  1  0.91501164  0.47951901  0.41478507  1
  O  O302  1  0.92224634  0.48556254  0.74082156  1
  O  O303  1  0.91660940  0.97505202  0.08749272  1
  O  O304  1  0.91258652  0.97174779  0.42408039  1
  O  O305  1  0.91670943  0.97503339  0.75330429  1
  O  O306  1  0.08067776  0.27190277  0.08615416  1
  O  O307  1  0.07325846  0.26909935  0.40812268  1
  O  O308  1  0.08035038  0.26460138  0.74009924  1
  O  O309  1  0.08452814  0.77371857  0.08101918  1
  O  O310  1  0.08264852  0.77568274  0.41570445  1
  O  O311  1  0.08495974  0.77172950  0.74759577  1
  O  O312  1  0.41969718  0.25141426  0.08513707  1
  O  O313  1  0.41816353  0.26512051  0.42235827  1
  O  O314  1  0.41859479  0.27245080  0.74836503  1
  O  O315  1  0.41196745  0.76909209  0.08607664  1
  O  O316  1  0.41934808  0.77592195  0.41735212  1
  O  O317  1  0.40977548  0.76390695  0.74694937  1
  O  O318  1  0.75849599  0.26223595  0.09233389  1
  O  O319  1  0.74794565  0.27832323  0.41440625  1
  O  O320  1  0.74530946  0.26561829  0.74027744  1
  O  O321  1  0.75740140  0.76940176  0.08962736  1
  O  O322  1  0.74778760  0.77220024  0.41351027  1
  O  O323  1  0.75394841  0.76895615  0.74927308  1
  O  O324  1  0.24898578  0.02247844  0.25336376  1
  O  O325  1  0.24618177  0.00893971  0.57448327  1
  O  O326  1  0.24736456  0.00127173  0.91595826  1
  O  O327  1  0.24019471  0.51152070  0.24669422  1
  O  O328  1  0.24536704  0.52867524  0.58160974  1
  O  O329  1  0.24895473  0.52387394  0.91654101  1
  O  O330  1  0.58484223  0.02422517  0.25121803  1
  O  O331  1  0.58805487  -0.00030283  0.58236851  1
  O  O332  1  0.58674912  0.01016825  0.92612083  1
  O  O333  1  0.59273166  0.51253844  0.25507329  1
  O  O334  1  0.57262867  0.51230674  0.57895743  1
  O  O335  1  0.57825293  0.52371422  0.91187203  1
  O  O336  1  0.92366477  0.01384367  0.26384674  1
  O  O337  1  0.92403078  0.01299276  0.58704194  1
  O  O338  1  0.92180403  0.00585511  0.92456024  1
  O  O339  1  0.91088290  0.52164048  0.24323641  1
  O  O340  1  0.91896473  0.52355423  0.58075526  1
  O  O341  1  0.91237349  0.52544184  0.91596943  1
  O  O342  1  0.08729025  0.22081005  0.24610154  1
  O  O343  1  0.08914139  0.23718701  0.57006848  1
  O  O344  1  0.07910560  0.23919671  0.92388450  1
  O  O345  1  0.08092283  0.73251405  0.24699491  1
  O  O346  1  0.08529657  0.72267918  0.58542847  1
  O  O347  1  0.08177763  0.72376847  0.91679319  1
  O  O348  1  0.41690204  0.23084653  0.25039891  1
  O  O349  1  0.41684000  0.25260608  0.58477501  1
  O  O350  1  0.42440119  0.24570091  0.91022345  1
  O  O351  1  0.41475844  0.75154751  0.25323923  1
  O  O352  1  0.41201138  0.73995046  0.58879720  1
  O  O353  1  0.41093798  0.72819028  0.91620873  1
  O  O354  1  0.74589241  0.23129611  0.25936534  1
  O  O355  1  0.76249805  0.24023536  0.57169466  1
  O  O356  1  0.74818382  0.23805448  0.92464621  1
  O  O357  1  0.74958530  0.72981106  0.25241015  1
  O  O358  1  0.75965988  0.73455086  0.57578803  1
  O  O359  1  0.75133099  0.72800263  0.92197926  1
