# generated using pymatgen
data_Ba17Sr5La8Pr42Mn72O216
_symmetry_space_group_name_H-M   'P 1'
_cell_length_a   16.67732901
_cell_length_b   15.70803645
_cell_length_c   16.82240063
_cell_angle_alpha   89.98539299
_cell_angle_beta   89.97782276
_cell_angle_gamma   90.03006018
_symmetry_Int_Tables_number   1
_chemical_formula_structural   Ba17Sr5La8Pr42Mn72O216
_chemical_formula_sum   'Ba17 Sr5 La8 Pr42 Mn72 O216'
_cell_volume   4406.93111361
_cell_formula_units_Z   1
loop_
 _symmetry_equiv_pos_site_id
 _symmetry_equiv_pos_as_xyz
  1  'x, y, z'
loop_
 _atom_site_type_symbol
 _atom_site_label
 _atom_site_symmetry_multiplicity
 _atom_site_fract_x
 _atom_site_fract_y
 _atom_site_fract_z
 _atom_site_occupancy
  Ba  Ba0  1  0.49777589  0.37478790  0.50093597  1
  Ba  Ba1  1  0.83394643  0.12413670  0.16762970  1
  Ba  Ba2  1  0.33508542  0.62444871  0.99914493  1
  Ba  Ba3  1  0.16308494  0.37429954  0.49953805  1
  Ba  Ba4  1  0.66506664  0.37301624  0.33518546  1
  Ba  Ba5  1  -0.00343125  0.37597563  0.66351392  1
  Ba  Ba6  1  -0.00013577  0.12500510  0.99772436  1
  Ba  Ba7  1  0.16798371  0.62515106  0.83369488  1
  Ba  Ba8  1  0.49855158  0.62469699  0.50205808  1
  Ba  Ba9  1  -0.00039154  0.12389356  0.33002406  1
  Ba  Ba10  1  0.83370526  0.62625674  0.16739224  1
  Ba  Ba11  1  0.33332684  0.87672558  0.33471115  1
  Ba  Ba12  1  0.00154296  0.62623065  0.33104603  1
  Ba  Ba13  1  0.66451513  0.12407041  0.33258946  1
  Ba  Ba14  1  0.83156273  0.37658731  0.16703129  1
  Ba  Ba15  1  0.82971518  0.37539523  0.50146914  1
  Ba  Ba16  1  0.33621713  0.87639082  0.66796310  1
  Sr  Sr17  1  0.49582497  0.37514026  0.82914898  1
  Sr  Sr18  1  0.33652566  0.62580318  0.66709139  1
  Sr  Sr19  1  0.16719944  0.12599617  0.83509982  1
  Sr  Sr20  1  0.16867364  0.87581439  0.16728525  1
  Sr  Sr21  1  0.66170715  0.37525354  0.66826613  1
  La  La22  1  0.16586346  0.12287007  0.50225648  1
  La  La23  1  0.00091021  0.62664368  0.65799853  1
  La  La24  1  0.50305194  0.87249289  0.83391026  1
  La  La25  1  0.50151038  0.12637167  0.83540314  1
  La  La26  1  0.33256055  0.87334686  0.00565983  1
  La  La27  1  0.67139242  0.87440017  0.00498746  1
  La  La28  1  0.82779319  0.12857489  0.49758467  1
  La  La29  1  0.16784460  0.12227614  0.16935529  1
  Pr  Pr30  1  0.82889338  0.37281681  0.82483398  1
  Pr  Pr31  1  0.01109280  0.87596702  0.00045169  1
  Pr  Pr32  1  0.84443125  0.87582029  0.16452321  1
  Pr  Pr33  1  0.15959376  0.37530862  0.16705570  1
  Pr  Pr34  1  0.66495071  0.12553622  0.66430672  1
  Pr  Pr35  1  0.33442454  0.12783010  0.33292386  1
  Pr  Pr36  1  0.66588845  0.61849446  0.33379199  1
  Pr  Pr37  1  0.67141359  0.12701158  0.99986582  1
  Pr  Pr38  1  0.66673025  0.62229790  0.99904282  1
  Pr  Pr39  1  0.66131716  0.37551667  0.00297552  1
  Pr  Pr40  1  0.50013310  0.62460246  0.17032058  1
  Pr  Pr41  1  0.50427407  0.87280858  0.49857635  1
  Pr  Pr42  1  0.33382865  0.12541617  0.99781242  1
  Pr  Pr43  1  0.00347922  0.87495373  0.32941656  1
  Pr  Pr44  1  0.49942735  0.12469400  0.16929657  1
  Pr  Pr45  1  -0.00330046  0.37616395  -0.00351221  1
  Pr  Pr46  1  0.49916505  0.62274381  0.83386567  1
  Pr  Pr47  1  0.83351930  0.12657400  0.83524003  1
  Pr  Pr48  1  0.17307028  0.62784352  0.16956111  1
  Pr  Pr49  1  0.49686398  0.37244131  0.16523914  1
  Pr  Pr50  1  0.67111933  0.87358112  0.33546018  1
  Pr  Pr51  1  0.83178041  0.62400608  0.83482623  1
  Pr  Pr52  1  0.32984223  0.37523316  0.33932669  1
  Pr  Pr53  1  0.67165980  0.87279499  0.67235189  1
  Pr  Pr54  1  0.84623132  0.87501666  0.82980163  1
  Pr  Pr55  1  0.83985177  0.87396690  0.49648351  1
  Pr  Pr56  1  -0.00199708  0.12419041  0.66107091  1
  Pr  Pr57  1  0.49970486  0.12442362  0.50015512  1
  Pr  Pr58  1  0.32420256  0.37576421  -0.00030024  1
  Pr  Pr59  1  0.50245552  0.87606611  0.16391349  1
  Pr  Pr60  1  0.66485581  0.62232833  0.66623498  1
  Pr  Pr61  1  0.17142970  0.62766461  0.50541932  1
  Pr  Pr62  1  0.16912099  0.87446997  0.49642967  1
  Pr  Pr63  1  0.01225437  0.87475574  0.66668348  1
  Pr  Pr64  1  0.33192512  0.37941789  0.66879180  1
  Pr  Pr65  1  0.17479926  0.87699657  0.83446952  1
  Pr  Pr66  1  0.33766446  0.12785918  0.66694069  1
  Pr  Pr67  1  0.33643956  0.62272441  0.33260200  1
  Pr  Pr68  1  0.16478647  0.37340019  0.82733770  1
  Pr  Pr69  1  -0.01158819  0.37442152  0.33839228  1
  Pr  Pr70  1  0.82724894  0.62119579  0.49955092  1
  Pr  Pr71  1  -0.00194846  0.62511632  0.99817372  1
  Mn  Mn72  1  0.00384967  -0.00100525  0.16437592  1
  Mn  Mn73  1  -0.00172293  -0.00144222  0.49951368  1
  Mn  Mn74  1  0.00240890  -0.00078294  0.83007896  1
  Mn  Mn75  1  0.00250840  0.49913785  0.16509572  1
  Mn  Mn76  1  0.00036329  0.50249753  0.49726855  1
  Mn  Mn77  1  -0.00204995  0.50210152  0.83213413  1
  Mn  Mn78  1  0.33469977  0.00121698  0.16661260  1
  Mn  Mn79  1  0.33402034  0.00108154  0.50229620  1
  Mn  Mn80  1  0.33585065  0.00218813  0.83618564  1
  Mn  Mn81  1  0.33341180  0.49748933  0.16733826  1
  Mn  Mn82  1  0.33117505  0.50044966  0.50109385  1
  Mn  Mn83  1  0.33427367  0.49942790  0.83408679  1
  Mn  Mn84  1  0.66581263  -0.00301631  0.16731012  1
  Mn  Mn85  1  0.66699706  -0.00264936  0.50336344  1
  Mn  Mn86  1  0.66876625  -0.00127910  0.83441778  1
  Mn  Mn87  1  0.66368841  0.50023495  0.16510431  1
  Mn  Mn88  1  0.66448799  0.50032472  0.50140460  1
  Mn  Mn89  1  0.66517549  0.50031747  0.83403196  1
  Mn  Mn90  1  0.00108047  0.25242138  0.16539634  1
  Mn  Mn91  1  -0.00114950  0.24756259  0.49745482  1
  Mn  Mn92  1  -0.00065343  0.24977093  0.83123877  1
  Mn  Mn93  1  0.00474144  0.75045566  0.16330589  1
  Mn  Mn94  1  0.00013139  0.75081005  0.49834164  1
  Mn  Mn95  1  0.00113632  0.74997431  0.83049197  1
  Mn  Mn96  1  0.33213340  0.25138468  0.16625986  1
  Mn  Mn97  1  0.33197881  0.24725981  0.50064981  1
  Mn  Mn98  1  0.33321596  0.24915861  0.83390727  1
  Mn  Mn99  1  0.33542558  0.75068390  0.16751784  1
  Mn  Mn100  1  0.33400503  0.75184553  0.50138552  1
  Mn  Mn101  1  0.33646649  0.75077300  0.83495607  1
  Mn  Mn102  1  0.66413819  0.25090645  0.16518010  1
  Mn  Mn103  1  0.66399953  0.24773448  0.50146260  1
  Mn  Mn104  1  0.66553546  0.24888582  0.83367572  1
  Mn  Mn105  1  0.66573432  0.75049248  0.16892450  1
  Mn  Mn106  1  0.66788712  0.75206847  0.50328205  1
  Mn  Mn107  1  0.66818546  0.75104197  0.83596286  1
  Mn  Mn108  1  0.16582148  0.25185636  -0.00077018  1
  Mn  Mn109  1  0.16683364  0.24973930  0.33119647  1
  Mn  Mn110  1  0.16543592  0.24737727  0.66895882  1
  Mn  Mn111  1  0.16741854  0.74979948  0.00097141  1
  Mn  Mn112  1  0.16827105  0.74978919  0.33432774  1
  Mn  Mn113  1  0.16914850  0.75163499  0.66798182  1
  Mn  Mn114  1  0.49937753  0.25081942  -0.00067972  1
  Mn  Mn115  1  0.49689105  0.24847960  0.33246345  1
  Mn  Mn116  1  0.49942605  0.24956067  0.66885658  1
  Mn  Mn117  1  0.50239760  0.74994071  -0.00037413  1
  Mn  Mn118  1  0.50079913  0.75070446  0.33308522  1
  Mn  Mn119  1  0.50258777  0.75160532  0.66781249  1
  Mn  Mn120  1  0.83261909  0.25121746  -0.00388350  1
  Mn  Mn121  1  0.83174026  0.24864205  0.33334814  1
  Mn  Mn122  1  0.83042690  0.24768295  0.66802138  1
  Mn  Mn123  1  0.83380034  0.75143404  -0.00227985  1
  Mn  Mn124  1  0.83189566  0.75174523  0.33264118  1
  Mn  Mn125  1  0.83433455  0.75051946  0.66560505  1
  Mn  Mn126  1  0.16919076  0.00252807  -0.00038163  1
  Mn  Mn127  1  0.16685424  -0.00028323  0.33417702  1
  Mn  Mn128  1  0.16764170  0.00241696  0.66932177  1
  Mn  Mn129  1  0.16444218  0.49844671  0.00002038  1
  Mn  Mn130  1  0.16763341  0.50053356  0.33219672  1
  Mn  Mn131  1  0.16652494  0.50020024  0.66738483  1
  Mn  Mn132  1  0.50174949  0.00211780  -0.00006004  1
  Mn  Mn133  1  0.50047877  -0.00198607  0.33347256  1
  Mn  Mn134  1  0.50277404  -0.00035378  0.66842990  1
  Mn  Mn135  1  0.49934389  0.49721739  -0.00046397  1
  Mn  Mn136  1  0.49832942  0.50043979  0.33241521  1
  Mn  Mn137  1  0.49886674  0.49914876  0.66970410  1
  Mn  Mn138  1  0.83345997  -0.00223898  -0.00296772  1
  Mn  Mn139  1  0.83262736  -0.00418522  0.33217561  1
  Mn  Mn140  1  0.83372886  -0.00250033  0.66609340  1
  Mn  Mn141  1  0.83259056  0.50146944  -0.00391229  1
  Mn  Mn142  1  0.83223663  0.50263957  0.33439446  1
  Mn  Mn143  1  0.83054949  0.50217900  0.66871082  1
  O  O144  1  0.17288270  0.12929652  0.02440449  1
  O  O145  1  0.16911246  0.12359204  0.35468063  1
  O  O146  1  0.15145206  0.12369218  0.68764040  1
  O  O147  1  0.15894445  0.62116674  0.02462816  1
  O  O148  1  0.17142223  0.62628130  0.35811129  1
  O  O149  1  0.15615950  0.62783175  0.67574910  1
  O  O150  1  0.49528463  0.12629859  0.02684425  1
  O  O151  1  0.49230150  0.12185700  0.35443725  1
  O  O152  1  0.50060620  0.12326447  0.69198109  1
  O  O153  1  0.50511526  0.62117165  0.02571786  1
  O  O154  1  0.49462915  0.62791419  0.34533301  1
  O  O155  1  0.50430602  0.62749204  0.68946143  1
  O  O156  1  0.82824107  0.12162262  0.01108897  1
  O  O157  1  0.83316126  0.11576422  0.34948603  1
  O  O158  1  0.83121326  0.11883880  0.69301762  1
  O  O159  1  0.83625701  0.62826170  0.01280328  1
  O  O160  1  0.82602774  0.63181014  0.35287926  1
  O  O161  1  0.83031624  0.62929698  0.69304438  1
  O  O162  1  0.18027694  0.37407744  0.30955428  1
  O  O163  1  0.17808836  0.37211334  0.65778029  1
  O  O164  1  0.16988071  0.37457947  0.97369857  1
  O  O165  1  0.16315269  0.87484793  0.31721736  1
  O  O166  1  0.16709591  0.87872535  0.64205160  1
  O  O167  1  0.16837697  0.87802243  0.97935503  1
  O  O168  1  0.49164829  0.37414947  0.31119709  1
  O  O169  1  0.49878120  0.37120192  0.65870717  1
  O  O170  1  0.50885589  0.37308860  0.97648204  1
  O  O171  1  0.50617753  0.87340925  0.30844158  1
  O  O172  1  0.51015987  0.87806892  0.64385106  1
  O  O173  1  0.50314476  0.88018643  0.97613493  1
  O  O174  1  0.83935351  0.37784922  0.33045689  1
  O  O175  1  0.82893420  0.37603374  0.65907178  1
  O  O176  1  0.83155511  0.37885302  0.97136827  1
  O  O177  1  0.82458136  0.87220553  0.31078739  1
  O  O178  1  0.82700195  0.87401184  0.63843104  1
  O  O179  1  0.82652889  0.87363045  0.97265127  1
  O  O180  1  0.00956570  0.37754721  0.19174079  1
  O  O181  1  -0.00507972  0.37501451  0.50293044  1
  O  O182  1  -0.00678528  0.37891844  0.85243916  1
  O  O183  1  0.00448183  0.87372464  0.18222416  1
  O  O184  1  -0.00984981  0.87558874  0.52572614  1
  O  O185  1  -0.00430848  0.87359253  0.85626783  1
  O  O186  1  0.33810450  0.37317278  0.19678958  1
  O  O187  1  0.33052110  0.36869694  0.52319483  1
  O  O188  1  0.33045325  0.37186348  0.85428306  1
  O  O189  1  0.34010226  0.87640755  0.17855980  1
  O  O190  1  0.32584075  0.87845369  0.51272683  1
  O  O191  1  0.33344891  0.88040921  0.85793255  1
  O  O192  1  0.65851555  0.37578358  0.17566450  1
  O  O193  1  0.66427237  0.37005075  0.51595945  1
  O  O194  1  0.67223396  0.37422906  0.85885464  1
  O  O195  1  0.65409795  0.87176446  0.19153591  1
  O  O196  1  0.66034579  0.87563554  0.53014328  1
  O  O197  1  0.65867186  0.87479623  0.86250772  1
  O  O198  1  0.00594955  0.12414014  0.15517111  1
  O  O199  1  0.00827714  0.12021109  0.48739472  1
  O  O200  1  -0.00285362  0.12004269  0.80681469  1
  O  O201  1  0.00771657  0.62511438  0.14199274  1
  O  O202  1  0.01638749  0.62912646  0.48851784  1
  O  O203  1  -0.00411755  0.62848310  0.80356630  1
  O  O204  1  0.33402995  0.12795728  0.13911834  1
  O  O205  1  0.33888197  0.12352623  0.47760883  1
  O  O206  1  0.34002794  0.12495484  0.81176484  1
  O  O207  1  0.33423272  0.62341878  0.15326591  1
  O  O208  1  0.32832957  0.62849280  0.47886782  1
  O  O209  1  0.34355956  0.62409393  0.81924854  1
  O  O210  1  0.65889437  0.12364200  0.14400928  1
  O  O211  1  0.66731952  0.11870233  0.48977346  1
  O  O212  1  0.67371769  0.12069366  0.80804697  1
  O  O213  1  0.65937201  0.62722163  0.14217829  1
  O  O214  1  0.67208689  0.63336113  0.47862299  1
  O  O215  1  0.67046710  0.62981491  0.80923166  1
  O  O216  1  0.09012626  0.00955444  0.24656715  1
  O  O217  1  0.07786717  0.01256846  0.58808313  1
  O  O218  1  0.08460834  0.00692792  0.91356359  1
  O  O219  1  0.09905596  0.51594867  0.23653425  1
  O  O220  1  0.08254893  0.51293935  0.58111804  1
  O  O221  1  0.07324663  0.51438691  0.92153472  1
  O  O222  1  0.41257294  0.02300682  0.25065606  1
  O  O223  1  0.41554423  0.02149079  0.59177519  1
  O  O224  1  0.41563396  0.02255719  0.92342426  1
  O  O225  1  0.42086838  0.51810267  0.24338518  1
  O  O226  1  0.41212508  0.50669573  0.58784128  1
  O  O227  1  0.42626401  0.51163197  0.90975413  1
  O  O228  1  0.74264254  0.00118389  0.25324456  1
  O  O229  1  0.74394491  0.01764599  0.59356899  1
  O  O230  1  0.74309100  0.01809406  0.92171869  1
  O  O231  1  0.74597403  0.51482227  0.25298814  1
  O  O232  1  0.75040928  0.52395855  0.58548910  1
  O  O233  1  0.75172748  0.52398483  0.91219798  1
  O  O234  1  0.25563599  0.22561453  0.25261881  1
  O  O235  1  0.25076930  0.22252739  0.59016206  1
  O  O236  1  0.25937972  0.23452806  0.92631074  1
  O  O237  1  0.25443110  0.72930380  0.25496022  1
  O  O238  1  0.24717899  0.73382823  0.58307247  1
  O  O239  1  0.24930866  0.74734715  0.92019831  1
  O  O240  1  0.57416478  0.23722457  0.24432760  1
  O  O241  1  0.58381188  0.22762958  0.58858669  1
  O  O242  1  0.58997320  0.22479204  0.92207829  1
  O  O243  1  0.58067326  0.72628772  0.24769543  1
  O  O244  1  0.58920999  0.73442654  0.58985586  1
  O  O245  1  0.58280848  0.72497658  0.91377499  1
  O  O246  1  0.92032371  0.24883723  0.25240033  1
  O  O247  1  0.91403764  0.22594629  0.58705748  1
  O  O248  1  0.91308327  0.23708326  0.91083722  1
  O  O249  1  0.91751617  0.75034908  0.24302811  1
  O  O250  1  0.91283048  0.72642299  0.57318668  1
  O  O251  1  0.91031574  0.73334577  0.90193986  1
  O  O252  1  0.08064060  0.47209226  0.07904452  1
  O  O253  1  0.07786158  0.48245047  0.40023260  1
  O  O254  1  0.08518410  0.48406266  0.75528860  1
  O  O255  1  0.08667016  0.98470603  0.08017690  1
  O  O256  1  0.08135178  0.97569204  0.42010602  1
  O  O257  1  0.08783155  0.97282533  0.75232576  1
  O  O258  1  0.41145290  0.47286196  0.07900592  1
  O  O259  1  0.40746800  0.48871561  0.40702545  1
  O  O260  1  0.41106543  0.48324266  0.74681290  1
  O  O261  1  0.42448071  0.98176073  0.08624526  1
  O  O262  1  0.42919926  0.98381697  0.42670825  1
  O  O263  1  0.43083071  0.98542297  0.76084210  1
  O  O264  1  0.73915529  0.49029989  0.07096352  1
  O  O265  1  0.74702712  0.50064067  0.41763336  1
  O  O266  1  0.74426788  0.48554478  0.75025804  1
  O  O267  1  0.75187227  0.97559694  0.09004611  1
  O  O268  1  0.75433085  0.97702845  0.42699928  1
  O  O269  1  0.75955337  0.97231588  0.75607677  1
  O  O270  1  0.24612124  0.27643198  0.08883450  1
  O  O271  1  0.24847048  0.25770662  0.41583313  1
  O  O272  1  0.24558597  0.26209726  0.75765265  1
  O  O273  1  0.25288502  0.76441609  0.08662422  1
  O  O274  1  0.24218468  0.76340790  0.42470753  1
  O  O275  1  0.25054325  0.76532875  0.75519575  1
  O  O276  1  0.57633200  0.26865295  0.08411997  1
  O  O277  1  0.57464882  0.24964859  0.42220968  1
  O  O278  1  0.57763454  0.25645166  0.75923654  1
  O  O279  1  0.58608429  0.77187137  0.08126414  1
  O  O280  1  0.58759726  0.77269804  0.41726594  1
  O  O281  1  0.59049781  0.77194648  0.75109843  1
  O  O282  1  0.91677486  0.26827763  0.07458746  1
  O  O283  1  0.91330511  0.25066636  0.41852329  1
  O  O284  1  0.90807657  0.25879035  0.75417506  1
  O  O285  1  0.92270547  0.77197627  0.07303924  1
  O  O286  1  0.91942415  0.77240338  0.41162372  1
  O  O287  1  0.92479537  0.77432341  0.73884113  1
  O  O288  1  0.24682162  0.47716912  0.09068430  1
  O  O289  1  0.24978326  0.48708133  0.41469814  1
  O  O290  1  0.25099751  0.48304235  0.75263782  1
  O  O291  1  0.25752545  0.98596561  0.08040164  1
  O  O292  1  0.24168837  0.99092928  0.42421230  1
  O  O293  1  0.24924972  0.98970226  0.75610311  1
  O  O294  1  0.57467444  0.47858771  0.08596302  1
  O  O295  1  0.58063824  0.49685935  0.41407753  1
  O  O296  1  0.57700702  0.49290543  0.76023449  1
  O  O297  1  0.58844842  0.97950670  0.07758662  1
  O  O298  1  0.58980628  0.97620944  0.41535866  1
  O  O299  1  0.59368607  0.98076313  0.74483197  1
  O  O300  1  0.92094267  0.48677176  0.07365716  1
  O  O301  1  0.91330749  0.50242738  0.41956645  1
  O  O302  1  0.90591034  0.48923688  0.75818683  1
  O  O303  1  0.92081187  0.97600345  0.07499978  1
  O  O304  1  0.91901053  0.97386035  0.41208300  1
  O  O305  1  0.92490236  0.97532246  0.73712872  1
  O  O306  1  0.08051436  0.27530216  0.07623655  1
  O  O307  1  0.07803202  0.26574939  0.40141873  1
  O  O308  1  0.08303094  0.26752933  0.75097197  1
  O  O309  1  0.08524407  0.76970112  0.08024911  1
  O  O310  1  0.08148976  0.77529563  0.41735138  1
  O  O311  1  0.08916866  0.77622095  0.75472363  1
  O  O312  1  0.41045722  0.27485294  0.07935299  1
  O  O313  1  0.40677586  0.26225381  0.40553302  1
  O  O314  1  0.40500351  0.26338006  0.74061389  1
  O  O315  1  0.42117730  0.76983296  0.08347667  1
  O  O316  1  0.42229555  0.76741953  0.42071985  1
  O  O317  1  0.42797385  0.76497640  0.75647260  1
  O  O318  1  0.73943197  0.26184371  0.06888473  1
  O  O319  1  0.74897238  0.24890994  0.42014252  1
  O  O320  1  0.74576559  0.26517659  0.75033602  1
  O  O321  1  0.75264644  0.77334745  0.09299715  1
  O  O322  1  0.75293500  0.77568863  0.42669878  1
  O  O323  1  0.75492543  0.77489179  0.76007145  1
  O  O324  1  0.25242271  0.02184380  0.24985075  1
  O  O325  1  0.24777379  0.02804901  0.58859572  1
  O  O326  1  0.25273693  0.02080692  0.92074240  1
  O  O327  1  0.25645772  0.52197870  0.25500859  1
  O  O328  1  0.24780782  0.51951125  0.58310586  1
  O  O329  1  0.25269793  0.50504078  0.92008334  1
  O  O330  1  0.57248480  0.01304883  0.23895603  1
  O  O331  1  0.57742578  0.02265931  0.58114637  1
  O  O332  1  0.57941458  0.02650732  0.91541894  1
  O  O333  1  0.58186286  0.52092831  0.24964009  1
  O  O334  1  0.58847448  0.51291143  0.59349266  1
  O  O335  1  0.58980067  0.52158607  0.92257889  1
  O  O336  1  0.91708361  -0.00467192  0.24392516  1
  O  O337  1  0.90932879  0.02261929  0.57670725  1
  O  O338  1  0.90822907  0.01069317  0.89940223  1
  O  O339  1  0.92107818  0.50597529  0.25105312  1
  O  O340  1  0.91451795  0.52502652  0.58682173  1
  O  O341  1  0.91662425  0.52587130  0.91472186  1
  O  O342  1  0.09866331  0.23888893  0.23714020  1
  O  O343  1  0.08361359  0.23264863  0.58138436  1
  O  O344  1  0.08835463  0.24339684  0.91087402  1
  O  O345  1  0.09303644  0.73543995  0.24404450  1
  O  O346  1  0.07987542  0.74446684  0.58621573  1
  O  O347  1  0.07222876  0.73651962  0.92237004  1
  O  O348  1  0.41669347  0.22576926  0.24429681  1
  O  O349  1  0.41951688  0.22521020  0.58051945  1
  O  O350  1  0.42188108  0.22964537  0.91341121  1
  O  O351  1  0.41778011  0.73179190  0.24797590  1
  O  O352  1  0.41717930  0.74539195  0.58487251  1
  O  O353  1  0.42369883  0.74100840  0.91504674  1
  O  O354  1  0.74889217  0.24359913  0.24657361  1
  O  O355  1  0.74920643  0.22602173  0.58653168  1
  O  O356  1  0.75232150  0.22816690  0.91097036  1
  O  O357  1  0.73704620  0.73601266  0.26135192  1
  O  O358  1  0.74799359  0.72811344  0.58918412  1
  O  O359  1  0.74322208  0.72936281  0.92344151  1
