# generated using pymatgen
data_Ba17Sr5La8Pr42Mn72O216
_symmetry_space_group_name_H-M   'P 1'
_cell_length_a   16.67796900
_cell_length_b   15.70367271
_cell_length_c   16.82098780
_cell_angle_alpha   90.00481549
_cell_angle_beta   89.98807926
_cell_angle_gamma   90.00641167
_symmetry_Int_Tables_number   1
_chemical_formula_structural   Ba17Sr5La8Pr42Mn72O216
_chemical_formula_sum   'Ba17 Sr5 La8 Pr42 Mn72 O216'
_cell_volume   4405.50683859
_cell_formula_units_Z   1
loop_
 _symmetry_equiv_pos_site_id
 _symmetry_equiv_pos_as_xyz
  1  'x, y, z'
loop_
 _atom_site_type_symbol
 _atom_site_label
 _atom_site_symmetry_multiplicity
 _atom_site_fract_x
 _atom_site_fract_y
 _atom_site_fract_z
 _atom_site_occupancy
  Ba  Ba0  1  0.66524311  0.62407763  0.66577568  1
  Ba  Ba1  1  0.83405754  0.87463017  0.16371118  1
  Ba  Ba2  1  0.66745717  0.12567466  0.66358310  1
  Ba  Ba3  1  0.83635406  0.87561319  0.83254136  1
  Ba  Ba4  1  0.33253766  0.87603010  -0.00264914  1
  Ba  Ba5  1  0.66758404  0.12699916  0.99716186  1
  Ba  Ba6  1  0.16896147  0.37586584  0.49803470  1
  Ba  Ba7  1  0.16586345  0.12401231  0.49951181  1
  Ba  Ba8  1  0.66587357  0.62393390  0.99930589  1
  Ba  Ba9  1  0.49682618  0.62454079  0.16776724  1
  Ba  Ba10  1  0.33029848  0.12524894  1.00006607  1
  Ba  Ba11  1  0.00039397  0.12499631  0.33466166  1
  Ba  Ba12  1  -0.00088622  0.37551871  0.33567248  1
  Ba  Ba13  1  0.50005552  0.12531168  0.83395271  1
  Ba  Ba14  1  0.83250555  0.62517879  0.16632600  1
  Ba  Ba15  1  0.32970742  0.62519402  0.99908067  1
  Ba  Ba16  1  0.16871255  0.87271336  0.50182632  1
  Sr  Sr17  1  0.00121800  0.87398718  0.00092873  1
  Sr  Sr18  1  0.83798962  0.37344955  0.16427089  1
  Sr  Sr19  1  0.50161574  0.87619892  0.83426107  1
  Sr  Sr20  1  0.32757660  0.12425862  0.33320558  1
  Sr  Sr21  1  0.17101513  0.87577889  0.83418380  1
  La  La22  1  0.15739521  0.62716446  0.83926042  1
  La  La23  1  0.67002486  0.37848946  0.32996034  1
  La  La24  1  0.33964579  0.37432132  0.00149229  1
  La  La25  1  0.50511193  0.87639627  0.50254512  1
  La  La26  1  0.83271758  0.12307428  0.16826917  1
  La  La27  1  -0.00466282  0.62723507  0.67086924  1
  La  La28  1  0.16561487  0.87749362  0.16453443  1
  La  La29  1  0.83258654  0.12463672  0.83459688  1
  Pr  Pr30  1  0.66506802  0.87751854  -0.00101457  1
  Pr  Pr31  1  0.32265649  0.62590403  0.32782907  1
  Pr  Pr32  1  0.17148250  0.37147524  0.16763039  1
  Pr  Pr33  1  0.83052096  0.37382220  0.49547753  1
  Pr  Pr34  1  0.16606203  0.12142546  0.17336670  1
  Pr  Pr35  1  -0.00336441  0.87153988  0.33760441  1
  Pr  Pr36  1  0.00466058  0.37862549  0.00891642  1
  Pr  Pr37  1  0.49549188  0.12633399  0.50568158  1
  Pr  Pr38  1  0.66735658  0.37345777  0.00130828  1
  Pr  Pr39  1  0.34044321  0.37102802  0.66608125  1
  Pr  Pr40  1  0.66399174  0.12543232  0.32708337  1
  Pr  Pr41  1  0.15580601  0.62309750  0.50342361  1
  Pr  Pr42  1  0.34134840  0.87594425  0.33459409  1
  Pr  Pr43  1  0.66392844  0.62591026  0.32444481  1
  Pr  Pr44  1  0.01252201  0.87637927  0.67649761  1
  Pr  Pr45  1  0.33263073  0.12195205  0.66439616  1
  Pr  Pr46  1  0.83413579  0.37538750  0.83304082  1
  Pr  Pr47  1  0.34033380  0.37531157  0.33855283  1
  Pr  Pr48  1  0.00547660  0.37214265  0.67014392  1
  Pr  Pr49  1  0.82893404  0.87598094  0.49976767  1
  Pr  Pr50  1  -0.00853598  0.62740601  1.00020954  1
  Pr  Pr51  1  0.49217891  0.12414824  0.16907044  1
  Pr  Pr52  1  0.82796050  0.62579049  0.84067363  1
  Pr  Pr53  1  0.67027500  0.37442697  0.66613649  1
  Pr  Pr54  1  0.66991001  0.87498903  0.67217315  1
  Pr  Pr55  1  0.49471058  0.62633437  0.84127813  1
  Pr  Pr56  1  0.16286661  0.12295244  0.83441934  1
  Pr  Pr57  1  0.32818438  0.62507475  0.66607920  1
  Pr  Pr58  1  0.33783601  0.87809968  0.67403948  1
  Pr  Pr59  1  0.66707666  0.87182409  0.33025389  1
  Pr  Pr60  1  0.17455866  0.37609251  0.82964907  1
  Pr  Pr61  1  -0.00128000  0.12081115  0.66291832  1
  Pr  Pr62  1  0.50691004  0.37382691  0.83494326  1
  Pr  Pr63  1  0.16328861  0.62854425  0.16417118  1
  Pr  Pr64  1  -0.00286144  0.12319599  1.00297465  1
  Pr  Pr65  1  0.83142927  0.62195914  0.50009771  1
  Pr  Pr66  1  0.00279464  0.62441234  0.33433122  1
  Pr  Pr67  1  0.50042985  0.87513380  0.16078973  1
  Pr  Pr68  1  0.50535394  0.37517948  0.16570867  1
  Pr  Pr69  1  0.49555639  0.62325870  0.50137529  1
  Pr  Pr70  1  0.83626506  0.12729200  0.50083286  1
  Pr  Pr71  1  0.50763227  0.37383334  0.49846259  1
  Mn  Mn72  1  0.00003704  -0.00035860  0.16690339  1
  Mn  Mn73  1  -0.00221511  -0.00327702  0.50279202  1
  Mn  Mn74  1  0.00244462  0.00176560  0.83392084  1
  Mn  Mn75  1  0.00224150  0.50110270  0.16833347  1
  Mn  Mn76  1  -0.00311808  0.50135853  0.50342816  1
  Mn  Mn77  1  -0.00076466  0.49617868  0.83671062  1
  Mn  Mn78  1  0.33290746  0.00029918  0.16947935  1
  Mn  Mn79  1  0.33518671  -0.00232553  0.50003707  1
  Mn  Mn80  1  0.33320075  0.00094177  0.83248446  1
  Mn  Mn81  1  0.33157025  0.49895403  0.16875148  1
  Mn  Mn82  1  0.33516594  0.50299054  0.49893827  1
  Mn  Mn83  1  0.33343354  0.49785929  0.83112768  1
  Mn  Mn84  1  0.66431925  0.00181474  0.16502017  1
  Mn  Mn85  1  0.66645211  -0.00030244  0.49607781  1
  Mn  Mn86  1  0.66741747  -0.00039814  0.83240745  1
  Mn  Mn87  1  0.66763404  0.49819771  0.16602987  1
  Mn  Mn88  1  0.66584184  0.50097285  0.49745107  1
  Mn  Mn89  1  0.66679280  0.49813565  0.83103812  1
  Mn  Mn90  1  0.00174276  0.25150573  0.16613642  1
  Mn  Mn91  1  -0.00080690  0.24936840  0.50308308  1
  Mn  Mn92  1  0.00112494  0.25050478  0.83637560  1
  Mn  Mn93  1  0.00089263  0.74889136  0.16897964  1
  Mn  Mn94  1  -0.00434190  0.75018659  0.50408813  1
  Mn  Mn95  1  0.00075860  0.75115092  0.83431725  1
  Mn  Mn96  1  0.33322007  0.25103836  0.16889472  1
  Mn  Mn97  1  0.33495706  0.24993451  0.49983372  1
  Mn  Mn98  1  0.33226548  0.25150060  0.83344466  1
  Mn  Mn99  1  0.33178449  0.75005478  0.16800496  1
  Mn  Mn100  1  0.33529446  0.74854974  0.49949615  1
  Mn  Mn101  1  0.33364205  0.75025999  0.82990606  1
  Mn  Mn102  1  0.66710869  0.24947555  0.16515880  1
  Mn  Mn103  1  0.66666398  0.24960034  0.49500299  1
  Mn  Mn104  1  0.66920516  0.25191214  0.83220633  1
  Mn  Mn105  1  0.66475604  0.75122722  0.16595370  1
  Mn  Mn106  1  0.66552413  0.75016902  0.49845826  1
  Mn  Mn107  1  0.66555245  0.75036444  0.83154176  1
  Mn  Mn108  1  0.16509984  0.25075744  -0.00122503  1
  Mn  Mn109  1  0.16808621  0.25006122  0.33247870  1
  Mn  Mn110  1  0.16765081  0.25183517  0.66837237  1
  Mn  Mn111  1  0.16398810  0.75150626  0.00055674  1
  Mn  Mn112  1  0.16617609  0.75099295  0.33417966  1
  Mn  Mn113  1  0.16884892  0.74689092  0.66791238  1
  Mn  Mn114  1  0.50038500  0.25110056  0.00093636  1
  Mn  Mn115  1  0.49994323  0.24845811  0.33400124  1
  Mn  Mn116  1  0.50019206  0.25162426  0.66578876  1
  Mn  Mn117  1  0.49907528  0.75096887  -0.00147322  1
  Mn  Mn118  1  0.49971075  0.75170755  0.33553938  1
  Mn  Mn119  1  0.49908026  0.74745240  0.66717948  1
  Mn  Mn120  1  0.83743990  0.25151889  -0.00115429  1
  Mn  Mn121  1  0.83127398  0.24957213  0.33216785  1
  Mn  Mn122  1  0.83623503  0.25227188  0.66600119  1
  Mn  Mn123  1  0.83221575  0.75172216  -0.00088307  1
  Mn  Mn124  1  0.83175476  0.75090742  0.33581553  1
  Mn  Mn125  1  0.83346621  0.74826598  0.66578363  1
  Mn  Mn126  1  0.16375937  0.00077706  0.00093866  1
  Mn  Mn127  1  0.16639910  -0.00321660  0.33305751  1
  Mn  Mn128  1  0.16906913  0.00037624  0.66906415  1
  Mn  Mn129  1  0.16531821  0.49815485  -0.00086309  1
  Mn  Mn130  1  0.16747944  0.50113270  0.33313051  1
  Mn  Mn131  1  0.16729370  0.49999714  0.66765319  1
  Mn  Mn132  1  0.50003552  -0.00025125  -0.00042054  1
  Mn  Mn133  1  0.50054555  0.00120439  0.33397198  1
  Mn  Mn134  1  0.50081959  -0.00001576  0.66563500  1
  Mn  Mn135  1  0.49930396  0.49905316  -0.00063964  1
  Mn  Mn136  1  0.49959139  0.49965103  0.33574935  1
  Mn  Mn137  1  0.49872041  0.49937049  0.66769344  1
  Mn  Mn138  1  0.83392337  0.00074216  -0.00061202  1
  Mn  Mn139  1  0.83121694  -0.00134947  0.33407640  1
  Mn  Mn140  1  0.83411820  -0.00020845  0.66467790  1
  Mn  Mn141  1  0.83506802  0.49757616  -0.00154922  1
  Mn  Mn142  1  0.83202768  0.50042296  0.33393647  1
  Mn  Mn143  1  0.83554191  0.49872751  0.66712644  1
  O  O144  1  0.16009073  0.12886712  0.02848219  1
  O  O145  1  0.16971986  0.12218232  0.34035382  1
  O  O146  1  0.16736844  0.12969822  0.68881148  1
  O  O147  1  0.16129384  0.62234564  0.01982998  1
  O  O148  1  0.17201597  0.62805340  0.36028745  1
  O  O149  1  0.16985400  0.62176602  0.69268022  1
  O  O150  1  0.49992310  0.12880780  0.02248825  1
  O  O151  1  0.50893958  0.12436807  0.36335512  1
  O  O152  1  0.49607687  0.12818850  0.67640187  1
  O  O153  1  0.49848393  0.62154242  0.00645537  1
  O  O154  1  0.51055235  0.62485079  0.35875580  1
  O  O155  1  0.49583736  0.61862308  0.69666476  1
  O  O156  1  0.83669335  0.12882243  0.02265243  1
  O  O157  1  0.82221663  0.12198167  0.35731808  1
  O  O158  1  0.84059086  0.12721817  0.69086567  1
  O  O159  1  0.83568541  0.62290360  0.00715355  1
  O  O160  1  0.82167748  0.62749402  0.35693001  1
  O  O161  1  0.83850390  0.61922519  0.69750547  1
  O  O162  1  0.17293856  0.37860749  0.31404247  1
  O  O163  1  0.16140629  0.37727669  0.65364837  1
  O  O164  1  0.15748937  0.37426527  0.97098497  1
  O  O165  1  0.15755565  0.87101542  0.31158922  1
  O  O166  1  0.16644019  0.87063598  0.65930903  1
  O  O167  1  0.16167142  0.87597789  0.98421975  1
  O  O168  1  0.49266011  0.37157485  0.30948787  1
  O  O169  1  0.49601342  0.37606151  0.64025047  1
  O  O170  1  0.50063173  0.37632617  0.98171679  1
  O  O171  1  0.49600062  0.87958425  0.30584183  1
  O  O172  1  0.49495249  0.87517185  0.64450031  1
  O  O173  1  0.50423019  0.87466305  0.98765752  1
  O  O174  1  0.82985265  0.37572962  0.31599775  1
  O  O175  1  0.83692723  0.37658297  0.63826817  1
  O  O176  1  0.84916080  0.37418774  0.97695163  1
  O  O177  1  0.83826204  0.87483343  0.31930197  1
  O  O178  1  0.82713090  0.87588374  0.64346116  1
  O  O179  1  0.83211156  0.87599982  0.98992628  1
  O  O180  1  -0.00051280  0.37805135  0.17857060  1
  O  O181  1  -0.01049877  0.37654645  0.52420427  1
  O  O182  1  -0.00521181  0.37231910  0.86613796  1
  O  O183  1  0.00437218  0.87050903  0.19307555  1
  O  O184  1  -0.01080191  0.87067242  0.53184963  1
  O  O185  1  0.00553923  0.87693561  0.84944706  1
  O  O186  1  0.32886650  0.37562394  0.19455194  1
  O  O187  1  0.33871986  0.37819700  0.52194384  1
  O  O188  1  0.32221054  0.37558414  0.85691806  1
  O  O189  1  0.33646391  0.87430916  0.18972969  1
  O  O190  1  0.33976295  0.86907603  0.52855155  1
  O  O191  1  0.32925338  0.87440655  0.83647068  1
  O  O192  1  0.66148788  0.37191013  0.18723920  1
  O  O193  1  0.66621304  0.37648086  0.52320587  1
  O  O194  1  0.66581856  0.37564160  0.85401691  1
  O  O195  1  0.65672105  0.87873507  0.18738863  1
  O  O196  1  0.66597182  0.87359375  0.52846703  1
  O  O197  1  0.66597613  0.87313570  0.85080402  1
  O  O198  1  0.00828096  0.12814096  0.14769993  1
  O  O199  1  -0.00521878  0.12271509  0.49280266  1
  O  O200  1  0.00485088  0.12978246  0.80533644  1
  O  O201  1  0.00907136  0.62409125  0.14479015  1
  O  O202  1  -0.00134036  0.62783159  0.47911181  1
  O  O203  1  0.00125062  0.62073365  0.81297373  1
  O  O204  1  0.33327319  0.12705794  0.15624336  1
  O  O205  1  0.34361469  0.12569930  0.48332317  1
  O  O206  1  0.32834459  0.13015056  0.80985498  1
  O  O207  1  0.32795669  0.62295249  0.15666430  1
  O  O208  1  0.34681938  0.62640202  0.46928577  1
  O  O209  1  0.34405768  0.62084024  0.81047646  1
  O  O210  1  0.66795846  0.12649004  0.15256818  1
  O  O211  1  0.66589378  0.12447674  0.47111611  1
  O  O212  1  0.67478194  0.13059471  0.82135127  1
  O  O213  1  0.66485557  0.62403651  0.16033532  1
  O  O214  1  0.66552046  0.62523612  0.47057102  1
  O  O215  1  0.67202492  0.62118088  0.82188933  1
  O  O216  1  0.08753031  0.01059807  0.24425490  1
  O  O217  1  0.07746973  0.00767901  0.59480343  1
  O  O218  1  0.07944092  0.02624271  0.92072886  1
  O  O219  1  0.08264133  0.52380564  0.25508163  1
  O  O220  1  0.07855275  0.52059062  0.59012590  1
  O  O221  1  0.07294056  0.51895343  0.92714336  1
  O  O222  1  0.41673882  0.02098133  0.25594697  1
  O  O223  1  0.41619240  0.01819298  0.58375487  1
  O  O224  1  0.41449193  0.00747463  0.91579069  1
  O  O225  1  0.40669975  0.51361245  0.26797437  1
  O  O226  1  0.41021911  0.52227190  0.59046446  1
  O  O227  1  0.41277237  0.50521544  0.91627238  1
  O  O228  1  0.74439399  0.01715298  0.25062232  1
  O  O229  1  0.75434004  0.01622014  0.57091340  1
  O  O230  1  0.75704692  0.01275053  0.91135768  1
  O  O231  1  0.74402253  0.51103114  0.25696337  1
  O  O232  1  0.75242842  0.51454595  0.57574564  1
  O  O233  1  0.75471150  0.50321187  0.91017778  1
  O  O234  1  0.24391212  0.23683353  0.23919423  1
  O  O235  1  0.25420030  0.23761924  0.58696141  1
  O  O236  1  0.23818523  0.23551343  0.90654386  1
  O  O237  1  0.24350285  0.73271262  0.24537560  1
  O  O238  1  0.24661190  0.72182364  0.57250560  1
  O  O239  1  0.24155293  0.73475837  0.90218414  1
  O  O240  1  0.57715303  0.22909761  0.24854781  1
  O  O241  1  0.57795046  0.23877651  0.57029012  1
  O  O242  1  0.58240990  0.24934708  0.91612853  1
  O  O243  1  0.58261287  0.74025010  0.25440395  1
  O  O244  1  0.57347132  0.73339298  0.57326586  1
  O  O245  1  0.57809339  0.73741294  0.90708330  1
  O  O246  1  0.90892739  0.23397348  0.24245742  1
  O  O247  1  0.91786344  0.22857850  0.58788347  1
  O  O248  1  0.91810422  0.22119338  0.91404815  1
  O  O249  1  0.92335821  0.73343136  0.26123453  1
  O  O250  1  0.91233380  0.72173658  0.58283694  1
  O  O251  1  0.91428394  0.73077817  0.91101912  1
  O  O252  1  0.09336953  0.47899114  0.08967110  1
  O  O253  1  0.08510081  0.49838074  0.42020577  1
  O  O254  1  0.08568369  0.47839328  0.76224740  1
  O  O255  1  0.08310793  0.98220612  0.08513219  1
  O  O256  1  0.07674860  0.98042181  0.41525061  1
  O  O257  1  0.09049154  0.98911531  0.75680587  1
  O  O258  1  0.42045247  0.47710259  0.09117843  1
  O  O259  1  0.42738399  0.47998655  0.42757725  1
  O  O260  1  0.42135497  0.47043441  0.75455008  1
  O  O261  1  0.42286505  0.99000984  0.09414054  1
  O  O262  1  0.42243974  0.97706632  0.41988178  1
  O  O263  1  0.41574597  0.98935936  0.74427370  1
  O  O264  1  0.75286933  0.47737001  0.07726773  1
  O  O265  1  0.74890683  0.47861265  0.41689751  1
  O  O266  1  0.75267085  0.47378404  0.74670242  1
  O  O267  1  0.74276740  0.98741796  0.07977069  1
  O  O268  1  0.74703364  0.97294934  0.41435324  1
  O  O269  1  0.74936736  0.98714911  0.74179912  1
  O  O270  1  0.25284558  0.27554825  0.07610429  1
  O  O271  1  0.26125612  0.26363057  0.41008302  1
  O  O272  1  0.25503387  0.27345440  0.74540122  1
  O  O273  1  0.24717582  0.76192311  0.08663735  1
  O  O274  1  0.26166093  0.76740646  0.40567639  1
  O  O275  1  0.26344878  0.75683419  0.73403055  1
  O  O276  1  0.58497105  0.27295939  0.08228129  1
  O  O277  1  0.58702387  0.27448622  0.40990513  1
  O  O278  1  0.58608054  0.27334509  0.74375844  1
  O  O279  1  0.58416041  0.76990687  0.08190582  1
  O  O280  1  0.58628715  0.77654865  0.41341236  1
  O  O281  1  0.58789749  0.76774233  0.74233934  1
  O  O282  1  0.92587287  0.26306709  0.07580319  1
  O  O283  1  0.90700327  0.25930391  0.42495602  1
  O  O284  1  0.92156433  0.27579624  0.75293461  1
  O  O285  1  0.92275948  0.75508581  0.07992048  1
  O  O286  1  0.91184206  0.76905366  0.42300278  1
  O  O287  1  0.92992476  0.76390929  0.74131176  1
  O  O288  1  0.25276569  0.47474126  0.07384191  1
  O  O289  1  0.26388741  0.48861698  0.40364761  1
  O  O290  1  0.26107625  0.48094730  0.73853699  1
  O  O291  1  0.24421378  0.98937611  0.08784011  1
  O  O292  1  0.25791962  0.98149327  0.41180748  1
  O  O293  1  0.25619338  0.99183926  0.74344319  1
  O  O294  1  0.58640047  0.47767611  0.07959689  1
  O  O295  1  0.58649502  0.47468876  0.41306785  1
  O  O296  1  0.58758124  0.47345110  0.74225026  1
  O  O297  1  0.58241955  0.98101275  0.08446298  1
  O  O298  1  0.58749034  0.97414604  0.41005075  1
  O  O299  1  0.58606163  0.98283485  0.74172641  1
  O  O300  1  0.92557889  0.49103225  0.07654920  1
  O  O301  1  0.90731543  0.49177972  0.42581440  1
  O  O302  1  0.92245021  0.47306478  0.75041730  1
  O  O303  1  0.91996695  0.99699668  0.08087988  1
  O  O304  1  0.91397659  0.97937616  0.42054477  1
  O  O305  1  0.92972978  0.98682159  0.74103234  1
  O  O306  1  0.08864819  0.27526943  0.08399381  1
  O  O307  1  0.08183386  0.25806429  0.42181649  1
  O  O308  1  0.08740079  0.27392856  0.75990729  1
  O  O309  1  0.08728764  0.76578423  0.09336376  1
  O  O310  1  0.07530887  0.76228138  0.41547314  1
  O  O311  1  0.08914529  0.75902694  0.75708134  1
  O  O312  1  0.42123257  0.27144300  0.09222336  1
  O  O313  1  0.42453656  0.27094342  0.42294633  1
  O  O314  1  0.41848362  0.27444000  0.75471835  1
  O  O315  1  0.42019470  0.76370430  0.09261702  1
  O  O316  1  0.42462260  0.77392746  0.42444721  1
  O  O317  1  0.42009247  0.76671414  0.74938928  1
  O  O318  1  0.75282833  0.27160102  0.07700400  1
  O  O319  1  0.74646765  0.27280450  0.41310906  1
  O  O320  1  0.75348804  0.27524749  0.74464196  1
  O  O321  1  0.74364425  0.76388262  0.07835779  1
  O  O322  1  0.74768211  0.77509387  0.41691564  1
  O  O323  1  0.74903566  0.76306350  0.74377854  1
  O  O324  1  0.24810987  0.00681866  0.24748103  1
  O  O325  1  0.25465109  0.01261664  0.58720367  1
  O  O326  1  0.23978000  0.01594353  0.91052932  1
  O  O327  1  0.23972197  0.52053199  0.24247872  1
  O  O328  1  0.24723095  0.52671074  0.57077410  1
  O  O329  1  0.23625192  0.51418311  0.90235641  1
  O  O330  1  0.57864199  0.02484461  0.24775608  1
  O  O331  1  0.57675756  0.01374484  0.57096289  1
  O  O332  1  0.58583631  0.00389926  0.91841829  1
  O  O333  1  0.57995196  0.50656570  0.25431243  1
  O  O334  1  0.57385323  0.51446647  0.57293757  1
  O  O335  1  0.57438529  0.50844563  0.90403764  1
  O  O336  1  0.91134094  0.01661141  0.24607231  1
  O  O337  1  0.91257013  0.02059590  0.58204095  1
  O  O338  1  0.91818448  0.02393223  0.91190397  1
  O  O339  1  0.91920906  0.51937621  0.25921265  1
  O  O340  1  0.91595325  0.52640105  0.58709557  1
  O  O341  1  0.91334679  0.52157776  0.91062877  1
  O  O342  1  0.08656944  0.24232411  0.24365021  1
  O  O343  1  0.07614665  0.23971491  0.59673045  1
  O  O344  1  0.07889759  0.22340403  0.92084971  1
  O  O345  1  0.08307184  0.72350431  0.25413590  1
  O  O346  1  0.08043660  0.72942420  0.58927860  1
  O  O347  1  0.07498741  0.72868342  0.92283884  1
  O  O348  1  0.41640241  0.23022237  0.25600268  1
  O  O349  1  0.41266515  0.23413868  0.58826524  1
  O  O350  1  0.41211472  0.24920014  0.92080926  1
  O  O351  1  0.40669025  0.73661925  0.26524653  1
  O  O352  1  0.41242575  0.72219258  0.58768348  1
  O  O353  1  0.41558362  0.73883127  0.91221954  1
  O  O354  1  0.74654442  0.23076777  0.25056224  1
  O  O355  1  0.75498087  0.23744964  0.57148291  1
  O  O356  1  0.76110273  0.24686123  0.90957114  1
  O  O357  1  0.74329162  0.74226220  0.25615926  1
  O  O358  1  0.75221995  0.73221948  0.57331408  1
  O  O359  1  0.75083634  0.73918893  0.91079469  1
