# generated using pymatgen
data_Ba17Sr5La8Pr42Mn72O216
_symmetry_space_group_name_H-M   'P 1'
_cell_length_a   16.67366066
_cell_length_b   15.70095525
_cell_length_c   16.81780800
_cell_angle_alpha   89.99699640
_cell_angle_beta   89.99704772
_cell_angle_gamma   90.01118221
_symmetry_Int_Tables_number   1
_chemical_formula_structural   Ba17Sr5La8Pr42Mn72O216
_chemical_formula_sum   'Ba17 Sr5 La8 Pr42 Mn72 O216'
_cell_volume   4402.77422262
_cell_formula_units_Z   1
loop_
 _symmetry_equiv_pos_site_id
 _symmetry_equiv_pos_as_xyz
  1  'x, y, z'
loop_
 _atom_site_type_symbol
 _atom_site_label
 _atom_site_symmetry_multiplicity
 _atom_site_fract_x
 _atom_site_fract_y
 _atom_site_fract_z
 _atom_site_occupancy
  Ba  Ba0  1  0.83579836  0.37501964  0.83297709  1
  Ba  Ba1  1  0.83428503  0.62708718  0.16814169  1
  Ba  Ba2  1  0.66607106  0.87629325  0.33595475  1
  Ba  Ba3  1  0.50144037  0.37473604  0.83267330  1
  Ba  Ba4  1  0.49967327  0.62540001  0.50162143  1
  Ba  Ba5  1  -0.00071552  0.12217578  0.66349979  1
  Ba  Ba6  1  0.49799245  0.87591530  0.16956929  1
  Ba  Ba7  1  0.66913223  0.37375273  0.00283587  1
  Ba  Ba8  1  0.66852910  0.37332856  0.33555245  1
  Ba  Ba9  1  0.66891607  0.37533845  0.67011731  1
  Ba  Ba10  1  0.16486247  0.62614673  0.83499649  1
  Ba  Ba11  1  0.32948037  0.87406930  0.33331356  1
  Ba  Ba12  1  0.50148651  0.62725384  0.83369484  1
  Ba  Ba13  1  0.00264139  0.37273828  0.66734518  1
  Ba  Ba14  1  0.49641302  0.12416424  0.83169271  1
  Ba  Ba15  1  0.83437216  0.62621980  0.49970469  1
  Ba  Ba16  1  0.00329424  0.37388856  0.33080055  1
  Sr  Sr17  1  0.66678478  0.87267417  0.66806815  1
  Sr  Sr18  1  0.00297638  0.87320982  -0.00004361  1
  Sr  Sr19  1  -0.00346142  0.12504713  0.33072057  1
  Sr  Sr20  1  0.33571079  0.12753950  0.66410569  1
  Sr  Sr21  1  0.33515495  0.37543646  0.33368466  1
  La  La22  1  0.33473327  0.62288325  0.33122269  1
  La  La23  1  0.16215197  0.12377659  0.16729280  1
  La  La24  1  0.33158919  0.87291510  0.00203857  1
  La  La25  1  0.33642879  0.37676148  0.66668489  1
  La  La26  1  0.33131819  0.12544079  0.33125318  1
  La  La27  1  0.49797472  0.87633877  0.49389243  1
  La  La28  1  0.33382664  0.62648288  0.99714795  1
  La  La29  1  0.50275775  0.62433778  0.17007315  1
  Pr  Pr30  1  -0.00251177  0.87442408  0.33111694  1
  Pr  Pr31  1  -0.00031736  0.87288105  0.66632875  1
  Pr  Pr32  1  0.16210683  0.87835792  0.49535216  1
  Pr  Pr33  1  0.66501125  0.12779213  0.66912353  1
  Pr  Pr34  1  0.66806885  0.62126686  0.66633943  1
  Pr  Pr35  1  0.83579688  0.87724074  0.83160610  1
  Pr  Pr36  1  0.17604994  0.37148826  0.16525797  1
  Pr  Pr37  1  0.17072217  0.36997712  0.49640096  1
  Pr  Pr38  1  0.16999920  0.37391261  0.82927222  1
  Pr  Pr39  1  0.83479876  0.87657659  0.16090223  1
  Pr  Pr40  1  0.00792014  0.37688543  0.00352559  1
  Pr  Pr41  1  0.82607985  0.12572370  0.83232678  1
  Pr  Pr42  1  0.16609848  0.62498827  0.16920764  1
  Pr  Pr43  1  0.49815935  0.87686910  0.83349839  1
  Pr  Pr44  1  0.34070689  0.37697793  -0.00165257  1
  Pr  Pr45  1  0.16747429  0.12621483  0.49993531  1
  Pr  Pr46  1  0.65947820  0.12259326  0.99787500  1
  Pr  Pr47  1  0.50343279  0.37392450  0.49845483  1
  Pr  Pr48  1  0.66362959  0.12284586  0.33463192  1
  Pr  Pr49  1  0.16663024  0.87824840  0.16297891  1
  Pr  Pr50  1  0.16039717  0.12531545  0.83328045  1
  Pr  Pr51  1  0.84538868  0.37478623  0.16019342  1
  Pr  Pr52  1  0.66326714  0.87487851  0.00753751  1
  Pr  Pr53  1  0.16592092  0.62324595  0.50300002  1
  Pr  Pr54  1  0.50202091  0.12392746  0.50524601  1
  Pr  Pr55  1  0.66647319  0.62660602  0.99964271  1
  Pr  Pr56  1  0.16666913  0.87554993  0.82944344  1
  Pr  Pr57  1  0.83061286  0.62450553  0.83357053  1
  Pr  Pr58  1  -0.00939011  0.12038418  0.99330231  1
  Pr  Pr59  1  0.66325406  0.62654161  0.33324053  1
  Pr  Pr60  1  0.82685794  0.12609072  0.16938458  1
  Pr  Pr61  1  0.33436523  0.87321084  0.66575077  1
  Pr  Pr62  1  -0.00164201  0.62386665  0.32957278  1
  Pr  Pr63  1  0.49839591  0.12697974  0.16820613  1
  Pr  Pr64  1  0.33688305  0.62203320  0.66514635  1
  Pr  Pr65  1  0.50444012  0.37556587  0.16240709  1
  Pr  Pr66  1  -0.00206809  0.62256005  0.66504844  1
  Pr  Pr67  1  0.82746418  0.12773859  0.50018979  1
  Pr  Pr68  1  0.32862509  0.12288307  0.99189474  1
  Pr  Pr69  1  0.83351925  0.87969299  0.49597508  1
  Pr  Pr70  1  0.84366786  0.37352044  0.49888594  1
  Pr  Pr71  1  -0.00798299  0.62848816  0.99559948  1
  Mn  Mn72  1  -0.00078334  0.00034137  0.16326955  1
  Mn  Mn73  1  -0.00023731  0.00064065  0.49619016  1
  Mn  Mn74  1  -0.00015253  -0.00210058  0.83120008  1
  Mn  Mn75  1  0.00425232  0.50083693  0.16534579  1
  Mn  Mn76  1  0.00202431  0.49991687  0.49895302  1
  Mn  Mn77  1  0.00120279  0.50103045  0.83465283  1
  Mn  Mn78  1  0.33138972  0.00225674  0.16323348  1
  Mn  Mn79  1  0.33177693  0.00111847  0.50044289  1
  Mn  Mn80  1  0.32966219  -0.00081427  0.83126218  1
  Mn  Mn81  1  0.33308139  0.49833742  0.16559676  1
  Mn  Mn82  1  0.33235616  0.49867807  0.49886325  1
  Mn  Mn83  1  0.33246723  0.50096187  0.83349051  1
  Mn  Mn84  1  0.66623693  0.00142321  0.16735632  1
  Mn  Mn85  1  0.66722394  0.00024162  0.50382595  1
  Mn  Mn86  1  0.66670900  -0.00328386  0.83556079  1
  Mn  Mn87  1  0.66878173  0.50012246  0.16953963  1
  Mn  Mn88  1  0.66846311  0.49918371  0.50104706  1
  Mn  Mn89  1  0.66765545  0.50270429  0.83437978  1
  Mn  Mn90  1  0.00203666  0.24684391  0.16295626  1
  Mn  Mn91  1  0.00144333  0.24784621  0.49730729  1
  Mn  Mn92  1  -0.00027620  0.24727043  0.83544006  1
  Mn  Mn93  1  0.00193727  0.75135967  0.16558652  1
  Mn  Mn94  1  0.00102190  0.75160199  0.49861034  1
  Mn  Mn95  1  -0.00062893  0.75348157  0.83222053  1
  Mn  Mn96  1  0.33365532  0.24919071  0.16371870  1
  Mn  Mn97  1  0.33465105  0.25048787  0.49739748  1
  Mn  Mn98  1  0.32952225  0.24877086  0.83120810  1
  Mn  Mn99  1  0.33103690  0.74867681  0.16588298  1
  Mn  Mn100  1  0.32955116  0.74906934  0.50166828  1
  Mn  Mn101  1  0.33303531  0.75253882  0.83356104  1
  Mn  Mn102  1  0.66757693  0.24851397  0.16950438  1
  Mn  Mn103  1  0.66726361  0.25052803  0.50183859  1
  Mn  Mn104  1  0.66630874  0.24834907  0.83461771  1
  Mn  Mn105  1  0.66684970  0.75063686  0.16828265  1
  Mn  Mn106  1  0.66755635  0.75057818  0.50396667  1
  Mn  Mn107  1  0.66828249  0.75388588  0.83570257  1
  Mn  Mn108  1  0.16607929  0.24931493  -0.00102099  1
  Mn  Mn109  1  0.16743847  0.24886292  0.33126558  1
  Mn  Mn110  1  0.16935602  0.24857734  0.66506165  1
  Mn  Mn111  1  0.16532473  0.75030386  0.00154669  1
  Mn  Mn112  1  0.16476662  0.74856981  0.33406755  1
  Mn  Mn113  1  0.16733473  0.75025208  0.66416887  1
  Mn  Mn114  1  0.49822969  0.24912237  0.00221819  1
  Mn  Mn115  1  0.49776786  0.24900032  0.33460098  1
  Mn  Mn116  1  0.49931558  0.24832279  0.66546455  1
  Mn  Mn117  1  0.49968528  0.75057008  0.00135585  1
  Mn  Mn118  1  0.49812786  0.74956631  0.33595280  1
  Mn  Mn119  1  0.50055407  0.75296380  0.66710523  1
  Mn  Mn120  1  0.83575025  0.24778462  0.00121468  1
  Mn  Mn121  1  0.83416053  0.24915906  0.33250291  1
  Mn  Mn122  1  0.83395439  0.24712556  0.66720298  1
  Mn  Mn123  1  0.83221656  0.75231312  -0.00150056  1
  Mn  Mn124  1  0.83369304  0.75118512  0.33403395  1
  Mn  Mn125  1  0.83362667  0.75329920  0.66725977  1
  Mn  Mn126  1  0.16490556  0.00050103  -0.00132004  1
  Mn  Mn127  1  0.16385801  0.00081288  0.33150347  1
  Mn  Mn128  1  0.16976477  -0.00054486  0.66371731  1
  Mn  Mn129  1  0.16725244  0.49949328  0.00159416  1
  Mn  Mn130  1  0.16830459  0.49977775  0.33460015  1
  Mn  Mn131  1  0.16683554  0.50108210  0.66631367  1
  Mn  Mn132  1  0.49694328  0.00002348  0.00028191  1
  Mn  Mn133  1  0.49655609  0.00272076  0.33592008  1
  Mn  Mn134  1  0.50039183  -0.00258630  0.66566376  1
  Mn  Mn135  1  0.50122901  0.50114781  0.00260430  1
  Mn  Mn136  1  0.49957843  0.49806107  0.33366043  1
  Mn  Mn137  1  0.50025427  0.50131656  0.66636725  1
  Mn  Mn138  1  0.83164750  -0.00086539  -0.00035584  1
  Mn  Mn139  1  0.83390499  0.00098065  0.33143818  1
  Mn  Mn140  1  0.83225167  -0.00193560  0.66494593  1
  Mn  Mn141  1  0.83550668  0.50122493  0.00038080  1
  Mn  Mn142  1  0.83437599  0.49930591  0.33321669  1
  Mn  Mn143  1  0.83553867  0.50178083  0.66740156  1
  O  O144  1  0.17364080  0.12554921  0.02442797  1
  O  O145  1  0.17088386  0.12593294  0.35411377  1
  O  O146  1  0.17023584  0.12001581  0.69026174  1
  O  O147  1  0.17276802  0.62165401  0.02572592  1
  O  O148  1  0.16481904  0.62579555  0.35878907  1
  O  O149  1  0.15887017  0.62640114  0.68093265  1
  O  O150  1  0.49282494  0.12454768  0.02148850  1
  O  O151  1  0.49224190  0.12701890  0.36022395  1
  O  O152  1  0.49852945  0.12028038  0.67594252  1
  O  O153  1  0.49700434  0.62485366  0.02251376  1
  O  O154  1  0.49675420  0.62336592  0.34436839  1
  O  O155  1  0.49106967  0.62931828  0.67767586  1
  O  O156  1  0.84026244  0.11865659  0.02678483  1
  O  O157  1  0.83287429  0.12361553  0.35503038  1
  O  O158  1  0.83084684  0.11863880  0.68777730  1
  O  O159  1  0.83845319  0.62778970  0.01308696  1
  O  O160  1  0.84246044  0.62630696  0.34364950  1
  O  O161  1  0.83873432  0.63243684  0.68825743  1
  O  O162  1  0.17011461  0.37350407  0.30841772  1
  O  O163  1  0.17274702  0.37830643  0.64180169  1
  O  O164  1  0.15820193  0.37285215  0.97246430  1
  O  O165  1  0.16095627  0.87295488  0.30615029  1
  O  O166  1  0.17351182  0.87387092  0.63696601  1
  O  O167  1  0.17046981  0.87864224  0.97448136  1
  O  O168  1  0.49899462  0.37194125  0.30557774  1
  O  O169  1  0.49617003  0.37435019  0.64477894  1
  O  O170  1  0.49660491  0.37487625  0.99133327  1
  O  O171  1  0.49884517  0.87685026  0.32696347  1
  O  O172  1  0.49896054  0.87563891  0.63861764  1
  O  O173  1  0.50243867  0.87643125  0.98081447  1
  O  O174  1  0.83389289  0.37293048  0.30595592  1
  O  O175  1  0.83363907  0.37402016  0.64580948  1
  O  O176  1  0.84267154  0.37570047  0.99116062  1
  O  O177  1  0.83789437  0.87778496  0.30578068  1
  O  O178  1  0.83416276  0.87569718  0.63847670  1
  O  O179  1  0.82117049  0.87832492  0.97449471  1
  O  O180  1  -0.00511028  0.37264199  0.17349282  1
  O  O181  1  -0.00233587  0.37181602  0.51020872  1
  O  O182  1  0.00584527  0.36959737  0.85925206  1
  O  O183  1  0.00056900  0.87658484  0.18810190  1
  O  O184  1  0.00222364  0.87600416  0.52297200  1
  O  O185  1  0.00281074  0.87628170  0.85249926  1
  O  O186  1  0.33003668  0.37368311  0.18640654  1
  O  O187  1  0.32488707  0.37420008  0.52301234  1
  O  O188  1  0.32414285  0.37184617  0.85403459  1
  O  O189  1  0.32374913  0.87970361  0.17803674  1
  O  O190  1  0.32513307  0.87485154  0.52131720  1
  O  O191  1  0.32755759  0.87600312  0.85764939  1
  O  O192  1  0.65943749  0.37282580  0.17892995  1
  O  O193  1  0.65647525  0.37285166  0.51426529  1
  O  O194  1  0.66802065  0.37168537  0.84394140  1
  O  O195  1  0.67256372  0.87794362  0.17862910  1
  O  O196  1  0.66982904  0.87793023  0.51829261  1
  O  O197  1  0.67306595  0.87608601  0.86469431  1
  O  O198  1  0.00600968  0.12271504  0.13607783  1
  O  O199  1  0.00568051  0.12262146  0.47987120  1
  O  O200  1  0.00407003  0.11980254  0.82032963  1
  O  O201  1  0.01013504  0.62713700  0.13911564  1
  O  O202  1  0.00844084  0.62945351  0.47325131  1
  O  O203  1  -0.00428140  0.63483787  0.80893145  1
  O  O204  1  0.33303345  0.12662101  0.13530180  1
  O  O205  1  0.33654661  0.12840803  0.47484699  1
  O  O206  1  0.32337095  0.12312517  0.81389036  1
  O  O207  1  0.32664117  0.61957976  0.13922176  1
  O  O208  1  0.32631935  0.62232152  0.47546038  1
  O  O209  1  0.33316592  0.63122962  0.81043498  1
  O  O210  1  0.67410326  0.12488276  0.14209863  1
  O  O211  1  0.67062910  0.12638691  0.47779891  1
  O  O212  1  0.67142058  0.11859822  0.81469352  1
  O  O213  1  0.66339323  0.62550700  0.14501064  1
  O  O214  1  0.66819601  0.62376215  0.47772866  1
  O  O215  1  0.67262843  0.63445703  0.81129761  1
  O  O216  1  0.08301413  0.01736235  0.24688067  1
  O  O217  1  0.09279051  0.01182978  0.57458310  1
  O  O218  1  0.08238666  0.01992179  0.92003997  1
  O  O219  1  0.08356241  0.52279567  0.25264179  1
  O  O220  1  0.08118769  0.52078688  0.58639019  1
  O  O221  1  0.07300491  0.51784737  0.93314880  1
  O  O222  1  0.41322737  0.02436094  0.24565661  1
  O  O223  1  0.42020857  0.01166387  0.57715704  1
  O  O224  1  0.40708711  0.01024131  0.91864112  1
  O  O225  1  0.41384206  0.51944757  0.24789693  1
  O  O226  1  0.40861266  0.50984590  0.58712627  1
  O  O227  1  0.41117812  0.51149888  0.92496788  1
  O  O228  1  0.74665386  0.02314889  0.25342938  1
  O  O229  1  0.74735721  0.02329994  0.58705019  1
  O  O230  1  0.74808169  0.02634020  0.92471028  1
  O  O231  1  0.74179083  0.51869751  0.26101133  1
  O  O232  1  0.74714265  0.51686699  0.59172626  1
  O  O233  1  0.74913614  0.52214849  0.92230692  1
  O  O234  1  0.24649601  0.22926021  0.23980444  1
  O  O235  1  0.25050014  0.23072144  0.57528094  1
  O  O236  1  0.23753919  0.22943464  0.90905606  1
  O  O237  1  0.24992844  0.72507885  0.25379801  1
  O  O238  1  0.25108628  0.72322451  0.58708095  1
  O  O239  1  0.25481276  0.73720368  0.92418465  1
  O  O240  1  0.58004199  0.22191860  0.25454943  1
  O  O241  1  0.58393581  0.22740326  0.58302032  1
  O  O242  1  0.58364430  0.23228830  0.92445691  1
  O  O243  1  0.58331649  0.73042186  0.25156110  1
  O  O244  1  0.58956354  0.73516293  0.59407370  1
  O  O245  1  0.59190481  0.73814432  0.92604435  1
  O  O246  1  0.91030827  0.23187515  0.23403569  1
  O  O247  1  0.90786386  0.23596041  0.57313225  1
  O  O248  1  0.91033704  0.22355231  0.91173356  1
  O  O249  1  0.92740325  0.73968744  0.25631236  1
  O  O250  1  0.92849734  0.73794389  0.59069856  1
  O  O251  1  0.91278424  0.73685590  0.91260789  1
  O  O252  1  0.09442354  0.47717945  0.09223347  1
  O  O253  1  0.09398835  0.48454372  0.42560145  1
  O  O254  1  0.09074548  0.48377818  0.76040889  1
  O  O255  1  0.08694448  0.98095654  0.08470845  1
  O  O256  1  0.07974031  0.97758702  0.41216793  1
  O  O257  1  0.08797254  0.97540710  0.74520867  1
  O  O258  1  0.41774297  0.48019800  0.08760572  1
  O  O259  1  0.41880198  0.47905349  0.41955132  1
  O  O260  1  0.41291675  0.48784389  0.74549778  1
  O  O261  1  0.41066867  0.98553677  0.07837151  1
  O  O262  1  0.41340519  0.98638831  0.41944436  1
  O  O263  1  0.41580235  0.97508023  0.74832029  1
  O  O264  1  0.75921100  0.48551360  0.09474334  1
  O  O265  1  0.75761042  0.48131886  0.42738267  1
  O  O266  1  0.75608838  0.50268089  0.75419211  1
  O  O267  1  0.75471754  0.98129232  0.08431060  1
  O  O268  1  0.75653553  0.98966656  0.42498338  1
  O  O269  1  0.75513781  0.98072596  0.75867264  1
  O  O270  1  0.25593578  0.27345532  0.07179247  1
  O  O271  1  0.25364999  0.26548099  0.41434543  1
  O  O272  1  0.25162998  0.27253043  0.74551733  1
  O  O273  1  0.24447249  0.76931136  0.08711908  1
  O  O274  1  0.23768283  0.76346209  0.42616710  1
  O  O275  1  0.25027238  0.77369381  0.75002522  1
  O  O276  1  0.58020705  0.25458386  0.09304145  1
  O  O277  1  0.57844660  0.25840499  0.42289956  1
  O  O278  1  0.58466357  0.24998237  0.74769513  1
  O  O279  1  0.58524686  0.76251607  0.08366503  1
  O  O280  1  0.58099289  0.76257033  0.42574688  1
  O  O281  1  0.58176158  0.77467933  0.76137419  1
  O  O282  1  0.93096086  0.26153316  0.06992375  1
  O  O283  1  0.91721603  0.26017745  0.41288197  1
  O  O284  1  0.91923170  0.25334786  0.74917885  1
  O  O285  1  0.91371892  0.77053460  0.08269158  1
  O  O286  1  0.91569153  0.77589538  0.41951216  1
  O  O287  1  0.91678168  0.77869088  0.74898554  1
  O  O288  1  0.25310379  0.47275621  0.07995795  1
  O  O289  1  0.25128692  0.48045082  0.41631153  1
  O  O290  1  0.25163102  0.48344028  0.74561695  1
  O  O291  1  0.24755974  0.98230076  0.07968463  1
  O  O292  1  0.24067086  0.98916047  0.42296283  1
  O  O293  1  0.24959905  0.97254131  0.74811028  1
  O  O294  1  0.57929748  0.49092152  0.09126714  1
  O  O295  1  0.58089042  0.48683090  0.41917089  1
  O  O296  1  0.58512119  0.50011495  0.74913459  1
  O  O297  1  0.58809785  0.99241471  0.08125484  1
  O  O298  1  0.57920283  0.99414403  0.42729347  1
  O  O299  1  0.58101148  0.97753443  0.75448734  1
  O  O300  1  0.92815341  0.48835536  0.07510383  1
  O  O301  1  0.91887077  0.48715216  0.41684240  1
  O  O302  1  0.92259791  0.49783692  0.74536570  1
  O  O303  1  0.91522675  0.97646846  0.07708600  1
  O  O304  1  0.91873805  0.97732345  0.40911873  1
  O  O305  1  0.91834892  0.97547000  0.74262446  1
  O  O306  1  0.09461205  0.27023127  0.08941945  1
  O  O307  1  0.09320268  0.26103543  0.42316914  1
  O  O308  1  0.09310921  0.25905461  0.76531881  1
  O  O309  1  0.08653916  0.77218727  0.08812007  1
  O  O310  1  0.07809550  0.77537824  0.41078956  1
  O  O311  1  0.08442534  0.77510409  0.74601465  1
  O  O312  1  0.41963822  0.27194349  0.08969227  1
  O  O313  1  0.41830649  0.27450454  0.41757397  1
  O  O314  1  0.41186447  0.26212264  0.74325243  1
  O  O315  1  0.40878928  0.76098433  0.07720645  1
  O  O316  1  0.41314149  0.76172795  0.42228618  1
  O  O317  1  0.41669255  0.77823512  0.75133648  1
  O  O318  1  0.76782387  0.26172126  0.09669635  1
  O  O319  1  0.75846934  0.26450013  0.43096406  1
  O  O320  1  0.75387734  0.24853626  0.75433506  1
  O  O321  1  0.74957927  0.76956162  0.08225838  1
  O  O322  1  0.75464561  0.76561114  0.42335030  1
  O  O323  1  0.75468959  0.77261307  0.75819041  1
  O  O324  1  0.24846491  0.02227621  0.24649158  1
  O  O325  1  0.25268135  0.02285705  0.58304738  1
  O  O326  1  0.24293632  0.02124317  0.91378592  1
  O  O327  1  0.24830553  0.52111177  0.24700545  1
  O  O328  1  0.24818904  0.52280238  0.58237680  1
  O  O329  1  0.24959346  0.51107831  0.92099462  1
  O  O330  1  0.58100078  0.02557079  0.25089705  1
  O  O331  1  0.58676525  0.02148838  0.58670792  1
  O  O332  1  0.58396028  0.01285770  0.92155620  1
  O  O333  1  0.58262166  0.52087581  0.25014227  1
  O  O334  1  0.58584662  0.51467760  0.58749196  1
  O  O335  1  0.58801158  0.51760172  0.92653344  1
  O  O336  1  0.91147608  0.01874580  0.23902276  1
  O  O337  1  0.90913692  0.01234433  0.56890398  1
  O  O338  1  0.90650629  0.01561156  0.91314768  1
  O  O339  1  0.92253058  0.51259912  0.24692117  1
  O  O340  1  0.92009770  0.51446109  0.58439255  1
  O  O341  1  0.91432774  0.52300774  0.91075594  1
  O  O342  1  0.08117253  0.22999710  0.24752403  1
  O  O343  1  0.08924357  0.23627456  0.58163974  1
  O  O344  1  0.07502577  0.22484130  0.92880168  1
  O  O345  1  0.08649362  0.72534505  0.25036280  1
  O  O346  1  0.08751885  0.73419650  0.57624094  1
  O  O347  1  0.07718858  0.73570322  0.92429165  1
  O  O348  1  0.41349643  0.22474270  0.24949329  1
  O  O349  1  0.42125356  0.23771312  0.57468143  1
  O  O350  1  0.40193800  0.23798585  0.92431671  1
  O  O351  1  0.41377404  0.72937667  0.24575930  1
  O  O352  1  0.40602547  0.74074155  0.58904945  1
  O  O353  1  0.41522667  0.74354628  0.91723336  1
  O  O354  1  0.74370446  0.22493231  0.25811292  1
  O  O355  1  0.74658946  0.22709247  0.58884113  1
  O  O356  1  0.74785108  0.22581196  0.92616693  1
  O  O357  1  0.74552541  0.73530640  0.25663411  1
  O  O358  1  0.74670977  0.73360166  0.59243884  1
  O  O359  1  0.75002496  0.72688322  0.91816642  1
