# generated using pymatgen
data_Ba17Sr5La8Pr42Mn72O216
_symmetry_space_group_name_H-M   'P 1'
_cell_length_a   16.67079431
_cell_length_b   15.69982156
_cell_length_c   16.82243570
_cell_angle_alpha   89.98747469
_cell_angle_beta   90.01648309
_cell_angle_gamma   90.00958968
_symmetry_Int_Tables_number   1
_chemical_formula_structural   Ba17Sr5La8Pr42Mn72O216
_chemical_formula_sum   'Ba17 Sr5 La8 Pr42 Mn72 O216'
_cell_volume   4402.91044472
_cell_formula_units_Z   1
loop_
 _symmetry_equiv_pos_site_id
 _symmetry_equiv_pos_as_xyz
  1  'x, y, z'
loop_
 _atom_site_type_symbol
 _atom_site_label
 _atom_site_symmetry_multiplicity
 _atom_site_fract_x
 _atom_site_fract_y
 _atom_site_fract_z
 _atom_site_occupancy
  Ba  Ba0  1  0.16663794  0.87561637  0.50203697  1
  Ba  Ba1  1  0.66730823  0.87456641  0.66866514  1
  Ba  Ba2  1  0.83640129  0.62410622  0.49933645  1
  Ba  Ba3  1  0.49854298  0.12523635  0.83710947  1
  Ba  Ba4  1  0.49868084  0.37524670  0.50058386  1
  Ba  Ba5  1  0.33135223  0.87465438  0.66793134  1
  Ba  Ba6  1  0.16619753  0.37392525  0.16619838  1
  Ba  Ba7  1  0.83477059  0.12607833  0.49566947  1
  Ba  Ba8  1  0.50113806  0.12589592  0.16937190  1
  Ba  Ba9  1  0.16605592  0.62447115  0.16475491  1
  Ba  Ba10  1  0.83301317  0.87553874  0.82842245  1
  Ba  Ba11  1  0.66474587  0.12520889  1.00220790  1
  Ba  Ba12  1  0.83246169  0.37462418  0.83157057  1
  Ba  Ba13  1  0.16805583  0.12617129  0.16797241  1
  Ba  Ba14  1  0.33317033  0.62414604  0.66789717  1
  Ba  Ba15  1  0.50231164  0.62506379  0.16832773  1
  Ba  Ba16  1  0.16585797  0.62465553  0.83295278  1
  Sr  Sr17  1  0.33505117  0.37593265  0.66738629  1
  Sr  Sr18  1  -0.00237032  0.87439344  0.66668179  1
  Sr  Sr19  1  0.33710010  0.12443223  0.33153522  1
  Sr  Sr20  1  0.49619073  0.37523380  0.16882998  1
  Sr  Sr21  1  -0.00147508  0.62598425  0.66578913  1
  La  La22  1  0.83362408  0.12490336  0.17024708  1
  La  La23  1  0.17044314  0.37741118  0.49755814  1
  La  La24  1  0.00066294  0.62229848  0.99500918  1
  La  La25  1  0.83463965  0.37672194  0.49637206  1
  La  La26  1  0.66626145  0.37412677  0.66677640  1
  La  La27  1  0.66150319  0.87358812  0.33929159  1
  La  La28  1  0.66151520  0.87756172  0.00081358  1
  La  La29  1  0.33129724  0.87399384  -0.00101822  1
  Pr  Pr30  1  0.83153564  0.87505530  0.16013032  1
  Pr  Pr31  1  0.33657196  0.62537823  0.33317616  1
  Pr  Pr32  1  0.33206409  0.87744424  0.33633739  1
  Pr  Pr33  1  0.16390054  0.62521992  0.50801833  1
  Pr  Pr34  1  0.49506598  0.87582590  0.16822956  1
  Pr  Pr35  1  0.82934707  0.37514459  0.15847365  1
  Pr  Pr36  1  0.65748968  0.37210082  0.00247521  1
  Pr  Pr37  1  0.00532259  0.62717594  0.33291758  1
  Pr  Pr38  1  0.33574616  0.12531343  0.66326787  1
  Pr  Pr39  1  0.49983226  0.62878652  0.83836854  1
  Pr  Pr40  1  0.00017551  0.12786955  0.99713023  1
  Pr  Pr41  1  0.82998400  0.12184012  0.83250926  1
  Pr  Pr42  1  0.49278306  0.87350987  0.50188855  1
  Pr  Pr43  1  0.66992962  0.12516941  0.66701798  1
  Pr  Pr44  1  0.49867412  0.87839697  0.83128444  1
  Pr  Pr45  1  0.16938823  0.12591487  0.50141844  1
  Pr  Pr46  1  0.16966772  0.87718955  0.16760958  1
  Pr  Pr47  1  0.66952959  0.13054356  0.32750945  1
  Pr  Pr48  1  0.83470674  0.87229605  0.49830214  1
  Pr  Pr49  1  0.00026468  0.87587994  0.33714922  1
  Pr  Pr50  1  0.49961710  0.37238565  0.83010995  1
  Pr  Pr51  1  0.33239245  0.37337986  0.33287788  1
  Pr  Pr52  1  0.67193787  0.62388203  0.66600707  1
  Pr  Pr53  1  0.16715348  0.37608703  0.83084900  1
  Pr  Pr54  1  0.00628297  0.12302207  0.32894323  1
  Pr  Pr55  1  0.33315808  0.61963004  0.99443104  1
  Pr  Pr56  1  -0.00212612  0.12538367  0.66399352  1
  Pr  Pr57  1  0.65966040  0.37577856  0.33393112  1
  Pr  Pr58  1  0.50384336  0.62500859  0.50632024  1
  Pr  Pr59  1  0.00454190  0.37517885  0.33283415  1
  Pr  Pr60  1  -0.00273489  0.37825864  0.00350534  1
  Pr  Pr61  1  0.66886929  0.62319216  0.99702386  1
  Pr  Pr62  1  0.00043757  0.87299923  0.00027262  1
  Pr  Pr63  1  0.00044252  0.37607179  0.66588579  1
  Pr  Pr64  1  0.67451504  0.62017562  0.33087989  1
  Pr  Pr65  1  0.33288988  0.37488138  0.00279442  1
  Pr  Pr66  1  0.16222872  0.87415981  0.82437577  1
  Pr  Pr67  1  0.83633978  0.62481393  0.16831530  1
  Pr  Pr68  1  0.83728573  0.62787206  0.82929699  1
  Pr  Pr69  1  0.16605707  0.12125167  0.83618753  1
  Pr  Pr70  1  0.33087305  0.12871917  0.99965691  1
  Pr  Pr71  1  0.50286345  0.12461278  0.50443553  1
  Mn  Mn72  1  -0.00109022  -0.00213585  0.16653293  1
  Mn  Mn73  1  0.00024360  0.00125440  0.49918551  1
  Mn  Mn74  1  -0.00069883  0.00280120  0.83230000  1
  Mn  Mn75  1  -0.00170517  0.50137327  0.16684439  1
  Mn  Mn76  1  0.00180129  0.49762802  0.49945533  1
  Mn  Mn77  1  -0.00057427  0.49743209  0.83249647  1
  Mn  Mn78  1  0.33372654  -0.00164030  0.16774863  1
  Mn  Mn79  1  0.33423098  0.00196778  0.49888360  1
  Mn  Mn80  1  0.33089246  0.00118791  0.83468851  1
  Mn  Mn81  1  0.33397698  0.50162767  0.16674202  1
  Mn  Mn82  1  0.33416128  0.49963599  0.49923578  1
  Mn  Mn83  1  0.33452351  0.49794351  0.83346864  1
  Mn  Mn84  1  0.66734012  -0.00291937  0.17039704  1
  Mn  Mn85  1  0.66702658  -0.00033826  0.49964949  1
  Mn  Mn86  1  0.66627226  0.00027243  0.83458644  1
  Mn  Mn87  1  0.66717026  0.50026873  0.16451866  1
  Mn  Mn88  1  0.66783507  0.49976978  0.49970839  1
  Mn  Mn89  1  0.66539911  0.50061385  0.83320530  1
  Mn  Mn90  1  -0.00255179  0.24983086  0.16602973  1
  Mn  Mn91  1  0.00282935  0.24992929  0.49866426  1
  Mn  Mn92  1  0.00111329  0.25027639  0.83158825  1
  Mn  Mn93  1  -0.00073073  0.75174956  0.16684994  1
  Mn  Mn94  1  -0.00010788  0.75173880  0.49967763  1
  Mn  Mn95  1  -0.00142454  0.74958808  0.83309717  1
  Mn  Mn96  1  0.33462170  0.25110935  0.16794263  1
  Mn  Mn97  1  0.33363031  0.24910182  0.49996619  1
  Mn  Mn98  1  0.33081434  0.25104977  0.83227223  1
  Mn  Mn99  1  0.33280411  0.74936000  0.16753774  1
  Mn  Mn100  1  0.33354236  0.74941055  0.49826700  1
  Mn  Mn101  1  0.33303549  0.74969296  0.83603672  1
  Mn  Mn102  1  0.66676506  0.25289167  0.16661394  1
  Mn  Mn103  1  0.66756808  0.24913769  0.49887546  1
  Mn  Mn104  1  0.66662672  0.25129552  0.83384620  1
  Mn  Mn105  1  0.66709028  0.75009432  0.16782256  1
  Mn  Mn106  1  0.66716167  0.75020176  0.50094506  1
  Mn  Mn107  1  0.66569108  0.74705854  0.83466484  1
  Mn  Mn108  1  0.16495989  0.24902354  -0.00292126  1
  Mn  Mn109  1  0.16828808  0.25039494  0.33493336  1
  Mn  Mn110  1  0.16754833  0.25022304  0.66734104  1
  Mn  Mn111  1  0.16587733  0.75293198  0.00023962  1
  Mn  Mn112  1  0.16745073  0.74881403  0.33378369  1
  Mn  Mn113  1  0.16401685  0.74953665  0.66710085  1
  Mn  Mn114  1  0.49661392  0.25135137  0.00108345  1
  Mn  Mn115  1  0.49976862  0.25107965  0.33458619  1
  Mn  Mn116  1  0.50008024  0.24978948  0.66774082  1
  Mn  Mn117  1  0.49938080  0.75011279  0.00251257  1
  Mn  Mn118  1  0.50104801  0.74880689  0.33682668  1
  Mn  Mn119  1  0.50103403  0.74863047  0.66999186  1
  Mn  Mn120  1  0.83305015  0.24942549  -0.00197831  1
  Mn  Mn121  1  0.83570477  0.25334410  0.32972110  1
  Mn  Mn122  1  0.83378374  0.25056115  0.66449067  1
  Mn  Mn123  1  0.83199004  0.75051074  -0.00102817  1
  Mn  Mn124  1  0.83422440  0.74990328  0.32972251  1
  Mn  Mn125  1  0.83468609  0.74913163  0.66474272  1
  Mn  Mn126  1  0.16514023  -0.00113595  -0.00080777  1
  Mn  Mn127  1  0.16736884  -0.00025382  0.33332907  1
  Mn  Mn128  1  0.16523292  0.00322983  0.66863335  1
  Mn  Mn129  1  0.16606061  0.49901707  -0.00084159  1
  Mn  Mn130  1  0.16854170  0.50102905  0.33530008  1
  Mn  Mn131  1  0.16612893  0.49803927  0.66513005  1
  Mn  Mn132  1  0.49638104  -0.00209040  0.00152047  1
  Mn  Mn133  1  0.50207642  -0.00091732  0.33645843  1
  Mn  Mn134  1  0.50037481  0.00130069  0.66814652  1
  Mn  Mn135  1  0.49960255  0.50001151  0.00053222  1
  Mn  Mn136  1  0.50015665  0.50141595  0.33478805  1
  Mn  Mn137  1  0.50111357  0.49963649  0.66951360  1
  Mn  Mn138  1  0.83383354  0.00000926  -0.00072293  1
  Mn  Mn139  1  0.83319083  -0.00171726  0.33075764  1
  Mn  Mn140  1  0.83456958  0.00231292  0.66443817  1
  Mn  Mn141  1  0.83106065  0.50078557  -0.00199559  1
  Mn  Mn142  1  0.83699441  0.49804654  0.32897972  1
  Mn  Mn143  1  0.83380996  0.49801564  0.66465535  1
  O  O144  1  0.16361723  0.12320564  0.01420834  1
  O  O145  1  0.15833800  0.12729230  0.35419001  1
  O  O146  1  0.16780203  0.12896802  0.69407432  1
  O  O147  1  0.16474887  0.62733643  0.00919697  1
  O  O148  1  0.16103050  0.62462012  0.36025769  1
  O  O149  1  0.16290914  0.62171175  0.67459049  1
  O  O150  1  0.48948441  0.12356111  0.01264504  1
  O  O151  1  0.50502662  0.12244270  0.35772129  1
  O  O152  1  0.49666299  0.12589944  0.68114621  1
  O  O153  1  0.49867034  0.62562268  0.01423849  1
  O  O154  1  0.49253033  0.62603936  0.36179439  1
  O  O155  1  0.50589083  0.62121829  0.69377034  1
  O  O156  1  0.83917834  0.12423104  0.02570224  1
  O  O157  1  0.82297066  0.12702103  0.34206379  1
  O  O158  1  0.83757217  0.12953676  0.68603106  1
  O  O159  1  0.82986896  0.62622900  0.02599040  1
  O  O160  1  0.82763250  0.62328772  0.34572280  1
  O  O161  1  0.83408205  0.61902289  0.68291796  1
  O  O162  1  0.17233819  0.37598289  0.32266796  1
  O  O163  1  0.16036596  0.37174101  0.63981867  1
  O  O164  1  0.16610902  0.37114372  0.97697229  1
  O  O165  1  0.16846724  0.87200368  0.31276343  1
  O  O166  1  0.16207942  0.87820499  0.65965813  1
  O  O167  1  0.16525900  0.87788006  0.97002100  1
  O  O168  1  0.50591899  0.37924716  0.31866952  1
  O  O169  1  0.50495147  0.37432924  0.65501426  1
  O  O170  1  0.49993857  0.37853083  0.97594657  1
  O  O171  1  0.50694900  0.87156550  0.31139027  1
  O  O172  1  0.50072289  0.87815012  0.64612081  1
  O  O173  1  0.49887331  0.87130143  0.97639569  1
  O  O174  1  0.84714208  0.37651006  0.30156692  1
  O  O175  1  0.82804451  0.37280267  0.64361565  1
  O  O176  1  0.83854052  0.37541481  0.98558992  1
  O  O177  1  0.84018014  0.87254429  0.30372371  1
  O  O178  1  0.83504929  0.87959054  0.64541825  1
  O  O179  1  0.83799974  0.87472395  0.98314556  1
  O  O180  1  -0.01044692  0.37307591  0.18801208  1
  O  O181  1  0.00668002  0.37186205  0.52193482  1
  O  O182  1  0.00346868  0.37125722  0.86019766  1
  O  O183  1  -0.01003924  0.87360356  0.19390473  1
  O  O184  1  -0.00616548  0.87825809  0.51516796  1
  O  O185  1  0.00331376  0.87789883  0.85565204  1
  O  O186  1  0.33366684  0.37923810  0.18802035  1
  O  O187  1  0.32650673  0.37268134  0.51816087  1
  O  O188  1  0.33294295  0.37349955  0.85816125  1
  O  O189  1  0.33189190  0.87226397  0.19167041  1
  O  O190  1  0.33887786  0.87647073  0.51172016  1
  O  O191  1  0.33198272  0.87416683  0.85439791  1
  O  O192  1  0.67319803  0.37848472  0.18897752  1
  O  O193  1  0.67317446  0.37278988  0.52175687  1
  O  O194  1  0.66489317  0.37876016  0.85864826  1
  O  O195  1  0.66912611  0.87248152  0.19448880  1
  O  O196  1  0.67491351  0.87447132  0.51341756  1
  O  O197  1  0.66541593  0.86971827  0.85551095  1
  O  O198  1  -0.00406105  0.12322503  0.14201461  1
  O  O199  1  0.00579919  0.12743661  0.47206094  1
  O  O200  1  0.00813364  0.12938656  0.80642003  1
  O  O201  1  -0.00499662  0.63058187  0.13857455  1
  O  O202  1  0.00607436  0.62345329  0.47649655  1
  O  O203  1  -0.00577269  0.62174109  0.81840243  1
  O  O204  1  0.33514794  0.12035939  0.14444456  1
  O  O205  1  0.33610531  0.12530784  0.48074422  1
  O  O206  1  0.32562157  0.12932199  0.80765134  1
  O  O207  1  0.33440592  0.62786774  0.14000202  1
  O  O208  1  0.33613520  0.62534156  0.47739488  1
  O  O209  1  0.33946706  0.62340972  0.82621826  1
  O  O210  1  0.67403898  0.12537278  0.15997738  1
  O  O211  1  0.66106133  0.12322346  0.47150649  1
  O  O212  1  0.66871393  0.12891795  0.81435661  1
  O  O213  1  0.67330452  0.62465558  0.14067746  1
  O  O214  1  0.66144565  0.62789865  0.47440348  1
  O  O215  1  0.65323262  0.62196632  0.80976514  1
  O  O216  1  0.07972112  0.00948819  0.25185079  1
  O  O217  1  0.08679968  0.02599459  0.58406892  1
  O  O218  1  0.07979310  0.02140121  0.91884279  1
  O  O219  1  0.07835228  0.51199713  0.25938971  1
  O  O220  1  0.08260562  0.51513607  0.58073059  1
  O  O221  1  0.07749033  0.50804874  0.92009908  1
  O  O222  1  0.42096732  0.00350980  0.25304255  1
  O  O223  1  0.41923029  0.02032031  0.58143020  1
  O  O224  1  0.40537637  0.01038518  0.92371758  1
  O  O225  1  0.41543628  0.51555135  0.25317270  1
  O  O226  1  0.42180928  0.51586476  0.57854534  1
  O  O227  1  0.42083203  0.51738245  0.91666871  1
  O  O228  1  0.75654777  0.01301897  0.24434799  1
  O  O229  1  0.74708175  0.01988167  0.58440018  1
  O  O230  1  0.75460432  0.01559015  0.91432732  1
  O  O231  1  0.75614701  0.51764174  0.24110549  1
  O  O232  1  0.74657725  0.51331212  0.58399537  1
  O  O233  1  0.75099286  0.52734713  0.91189043  1
  O  O234  1  0.25421497  0.24047982  0.25717305  1
  O  O235  1  0.25160976  0.22510913  0.58579212  1
  O  O236  1  0.24531905  0.22874555  0.91122855  1
  O  O237  1  0.25351694  0.73255620  0.25352042  1
  O  O238  1  0.24821567  0.73575451  0.57609978  1
  O  O239  1  0.25941959  0.73799200  0.92753533  1
  O  O240  1  0.59327621  0.24153222  0.25781560  1
  O  O241  1  0.58401792  0.22843595  0.58443048  1
  O  O242  1  0.58244784  0.24825142  0.91845698  1
  O  O243  1  0.59312284  0.73004513  0.26740745  1
  O  O244  1  0.58692333  0.72716746  0.58921114  1
  O  O245  1  0.58753199  0.73015532  0.92509885  1
  O  O246  1  0.91844784  0.22405145  0.25114097  1
  O  O247  1  0.92403271  0.23948401  0.58433207  1
  O  O248  1  0.91966625  0.22521110  0.91379423  1
  O  O249  1  0.91875649  0.72431116  0.24989729  1
  O  O250  1  0.91718505  0.74395888  0.58028474  1
  O  O251  1  0.91401586  0.72798085  0.91747158  1
  O  O252  1  0.07365820  0.48596251  0.07983107  1
  O  O253  1  0.08557545  0.47899536  0.41829298  1
  O  O254  1  0.08456353  0.47512147  0.74922406  1
  O  O255  1  0.08245387  0.97295820  0.08273819  1
  O  O256  1  0.07706586  0.98648082  0.41091075  1
  O  O257  1  0.08409094  0.98702961  0.75481513  1
  O  O258  1  0.41352422  0.48238048  0.07695267  1
  O  O259  1  0.40950098  0.48457222  0.41049810  1
  O  O260  1  0.41919442  0.48025028  0.75404864  1
  O  O261  1  0.41553643  0.97360763  0.08555784  1
  O  O262  1  0.41922294  0.97891176  0.41497053  1
  O  O263  1  0.41701172  0.98710950  0.75503398  1
  O  O264  1  0.74476762  0.47885885  0.07523364  1
  O  O265  1  0.75368656  0.47636415  0.40800710  1
  O  O266  1  0.74310110  0.49004402  0.74422277  1
  O  O267  1  0.74687973  0.97755127  0.08325482  1
  O  O268  1  0.75047635  0.97724486  0.41058562  1
  O  O269  1  0.74997605  1.00190979  0.74783908  1
  O  O270  1  0.25411755  0.26073802  0.07349927  1
  O  O271  1  0.24575065  0.26307493  0.42391282  1
  O  O272  1  0.24805193  0.27503305  0.75095578  1
  O  O273  1  0.24570237  0.77570933  0.08618577  1
  O  O274  1  0.25610548  0.76207166  0.40998371  1
  O  O275  1  0.24494701  0.76181960  0.75855680  1
  O  O276  1  0.58304675  0.26854559  0.08554224  1
  O  O277  1  0.58868003  0.26430056  0.41449282  1
  O  O278  1  0.58412625  0.26959390  0.75187155  1
  O  O279  1  0.57978925  0.77370305  0.08897445  1
  O  O280  1  0.57657718  0.77106952  0.42777622  1
  O  O281  1  0.57566531  0.76572818  0.76357504  1
  O  O282  1  0.91231734  0.26924076  0.08467877  1
  O  O283  1  0.91779760  0.27327911  0.41353921  1
  O  O284  1  0.92395124  0.26550401  0.74356578  1
  O  O285  1  0.91591206  0.77178622  0.08403702  1
  O  O286  1  0.91502229  0.77011826  0.41393665  1
  O  O287  1  0.91665691  0.75555325  0.75002444  1
  O  O288  1  0.25291437  0.48717855  0.07908935  1
  O  O289  1  0.25100155  0.48317876  0.41627122  1
  O  O290  1  0.24769210  0.48014604  0.75121264  1
  O  O291  1  0.24850687  0.97636973  0.08097942  1
  O  O292  1  0.25277512  0.98990250  0.41307674  1
  O  O293  1  0.24272168  0.98808669  0.75847035  1
  O  O294  1  0.58338605  0.48103926  0.08178034  1
  O  O295  1  0.58899940  0.48890645  0.41494842  1
  O  O296  1  0.58275005  0.47489040  0.75474788  1
  O  O297  1  0.58050104  0.97736497  0.09259338  1
  O  O298  1  0.57838153  0.97565773  0.42505793  1
  O  O299  1  0.57859236  0.98571163  0.75572937  1
  O  O300  1  0.91024972  0.48398496  0.08447848  1
  O  O301  1  0.92169550  0.47778619  0.41361079  1
  O  O302  1  0.92116433  0.48232786  0.74405830  1
  O  O303  1  0.91604823  0.97780952  0.08349709  1
  O  O304  1  0.91234637  0.97931984  0.41408119  1
  O  O305  1  0.91942608  0.99713789  0.74781734  1
  O  O306  1  0.07302021  0.26446050  0.07403243  1
  O  O307  1  0.08374714  0.27174843  0.41660341  1
  O  O308  1  0.08439893  0.27585608  0.74990454  1
  O  O309  1  0.08225218  0.77883711  0.08713489  1
  O  O310  1  0.07680757  0.76494751  0.41065747  1
  O  O311  1  0.08162246  0.76501222  0.75545620  1
  O  O312  1  0.41444701  0.27059660  0.08124618  1
  O  O313  1  0.41003644  0.26487147  0.41191442  1
  O  O314  1  0.41656113  0.26786653  0.75457270  1
  O  O315  1  0.41529230  0.77407987  0.08385827  1
  O  O316  1  0.41626608  0.77294951  0.41379826  1
  O  O317  1  0.41919599  0.76317189  0.75786594  1
  O  O318  1  0.74539956  0.27198451  0.08006168  1
  O  O319  1  0.75243325  0.27502763  0.40914515  1
  O  O320  1  0.74332664  0.26177351  0.74355066  1
  O  O321  1  0.74824564  0.77330745  0.07720141  1
  O  O322  1  0.74960134  0.76876655  0.41033977  1
  O  O323  1  0.74826728  0.74561767  0.74996984  1
  O  O324  1  0.25163194  0.00616216  0.24942795  1
  O  O325  1  0.25073178  0.02391602  0.58658093  1
  O  O326  1  0.24828160  0.02263737  0.91853110  1
  O  O327  1  0.25492788  0.51900816  0.25813106  1
  O  O328  1  0.24446920  0.51200418  0.57536381  1
  O  O329  1  0.25669508  0.50831576  0.92047480  1
  O  O330  1  0.59510402  0.01293935  0.26502469  1
  O  O331  1  0.58397567  0.02336463  0.58609119  1
  O  O332  1  0.58262738  0.00081084  0.92215074  1
  O  O333  1  0.59391694  0.51546461  0.25766834  1
  O  O334  1  0.58466783  0.52072401  0.58884591  1
  O  O335  1  0.58602922  0.52058694  0.92027098  1
  O  O336  1  0.91845938  0.02260012  0.25212998  1
  O  O337  1  0.92240602  0.01892636  0.58557488  1
  O  O338  1  0.91852232  0.02680728  0.91414608  1
  O  O339  1  0.91977501  0.52720401  0.25020921  1
  O  O340  1  0.91741573  0.49998258  0.58014968  1
  O  O341  1  0.91375281  0.51973707  0.91862219  1
  O  O342  1  0.07712305  0.24028770  0.25557307  1
  O  O343  1  0.08721810  0.22379318  0.58344008  1
  O  O344  1  0.08325311  0.22728964  0.91340417  1
  O  O345  1  0.07904685  0.73631778  0.25301052  1
  O  O346  1  0.08317198  0.73458117  0.57876767  1
  O  O347  1  0.07397063  0.74050574  0.92527211  1
  O  O348  1  0.41922929  0.24370477  0.25287801  1
  O  O349  1  0.41652879  0.22977295  0.58227755  1
  O  O350  1  0.40410614  0.23862500  0.92321064  1
  O  O351  1  0.41644519  0.73663208  0.25555750  1
  O  O352  1  0.42538076  0.73612629  0.57508747  1
  O  O353  1  0.41963914  0.73255934  0.91935054  1
  O  O354  1  0.75644363  0.24098034  0.24372187  1
  O  O355  1  0.74537835  0.23197259  0.58436772  1
  O  O356  1  0.75589260  0.23279152  0.91049768  1
  O  O357  1  0.75551048  0.72873186  0.24375701  1
  O  O358  1  0.74793765  0.73431085  0.58310096  1
  O  O359  1  0.74966229  0.72232141  0.91393471  1
