# generated using pymatgen
data_Ba17Sr5La8Pr42Mn72O216
_symmetry_space_group_name_H-M   'P 1'
_cell_length_a   16.67638542
_cell_length_b   15.70191327
_cell_length_c   16.81415230
_cell_angle_alpha   89.99563774
_cell_angle_beta   89.99350598
_cell_angle_gamma   90.03232560
_symmetry_Int_Tables_number   1
_chemical_formula_structural   Ba17Sr5La8Pr42Mn72O216
_chemical_formula_sum   'Ba17 Sr5 La8 Pr42 Mn72 O216'
_cell_volume   4402.80449802
_cell_formula_units_Z   1
loop_
 _symmetry_equiv_pos_site_id
 _symmetry_equiv_pos_as_xyz
  1  'x, y, z'
loop_
 _atom_site_type_symbol
 _atom_site_label
 _atom_site_symmetry_multiplicity
 _atom_site_fract_x
 _atom_site_fract_y
 _atom_site_fract_z
 _atom_site_occupancy
  Ba  Ba0  1  0.00227512  0.87539465  0.00518212  1
  Ba  Ba1  1  0.83517797  0.37484784  0.16889043  1
  Ba  Ba2  1  0.82951634  0.62421443  0.83369019  1
  Ba  Ba3  1  0.00051795  0.12311079  1.00371410  1
  Ba  Ba4  1  0.66674257  0.62480090  0.66387453  1
  Ba  Ba5  1  0.16805407  0.87517968  0.83409181  1
  Ba  Ba6  1  0.83402249  0.37410884  0.83429964  1
  Ba  Ba7  1  0.66385460  0.87568139  0.66598855  1
  Ba  Ba8  1  0.66378489  0.62514739  0.99703904  1
  Ba  Ba9  1  0.00118868  0.87456445  0.33747872  1
  Ba  Ba10  1  0.66496594  0.12360594  0.33145025  1
  Ba  Ba11  1  0.00160190  0.37534796  0.33775588  1
  Ba  Ba12  1  0.66348782  0.62604256  0.33095159  1
  Ba  Ba13  1  0.00118975  0.37359678  0.67077821  1
  Ba  Ba14  1  0.32933021  0.62517846  0.66584177  1
  Ba  Ba15  1  0.00176883  0.37454393  0.00477908  1
  Ba  Ba16  1  0.33173080  0.12533475  0.66239023  1
  Sr  Sr17  1  0.49990067  0.87594995  0.50060977  1
  Sr  Sr18  1  0.17476285  0.87473325  0.16145897  1
  Sr  Sr19  1  0.49780478  0.12453011  0.50080135  1
  Sr  Sr20  1  0.50168066  0.87568762  0.83009922  1
  Sr  Sr21  1  0.50881415  0.37293848  0.16359808  1
  La  La22  1  0.66497102  0.12847337  0.99966981  1
  La  La23  1  0.83291126  0.87474493  0.83301327  1
  La  La24  1  0.83374201  0.62342497  0.16680149  1
  La  La25  1  0.33202904  0.12428638  0.99633049  1
  La  La26  1  -0.00110955  0.12453590  0.33363957  1
  La  La27  1  0.83115762  0.37700151  0.49651601  1
  La  La28  1  0.33977662  0.37550464  0.32999814  1
  La  La29  1  0.33641126  0.87470218  0.33178730  1
  Pr  Pr30  1  0.15484780  0.62442860  0.50275312  1
  Pr  Pr31  1  -0.00599154  0.62495539  0.33561504  1
  Pr  Pr32  1  0.15648891  0.62433228  0.83710206  1
  Pr  Pr33  1  0.17231027  0.87459292  0.49834447  1
  Pr  Pr34  1  0.34129587  0.87501169  0.00124939  1
  Pr  Pr35  1  0.84157118  0.12591232  0.17120043  1
  Pr  Pr36  1  0.66775394  0.37319378  0.66559806  1
  Pr  Pr37  1  0.66611681  0.37367401  0.33290614  1
  Pr  Pr38  1  0.83647524  0.12402824  0.50289415  1
  Pr  Pr39  1  0.50457195  0.37589797  0.83202277  1
  Pr  Pr40  1  0.34393930  0.37450443  0.00273163  1
  Pr  Pr41  1  0.82947578  0.87543640  0.16522736  1
  Pr  Pr42  1  0.33026332  0.12417390  0.33032042  1
  Pr  Pr43  1  0.15768796  0.62756506  0.16800767  1
  Pr  Pr44  1  0.17156772  0.37304457  0.83189965  1
  Pr  Pr45  1  0.15978107  0.12232895  0.16922441  1
  Pr  Pr46  1  0.49522731  0.62580348  0.50379581  1
  Pr  Pr47  1  0.49561705  0.62339595  0.16782318  1
  Pr  Pr48  1  0.50349786  0.37478858  0.49765835  1
  Pr  Pr49  1  -0.00427652  0.62431274  0.67213097  1
  Pr  Pr50  1  0.16242524  0.12541790  0.83650573  1
  Pr  Pr51  1  0.83672947  0.62671113  0.50653290  1
  Pr  Pr52  1  0.00250490  0.12453881  0.67282713  1
  Pr  Pr53  1  0.32778598  0.62487455  0.33039519  1
  Pr  Pr54  1  -0.00798700  0.62574431  1.00036512  1
  Pr  Pr55  1  0.50743077  0.87629777  0.16470086  1
  Pr  Pr56  1  0.49645172  0.12657942  0.17254426  1
  Pr  Pr57  1  0.66310257  0.87583768  0.33719447  1
  Pr  Pr58  1  0.33859970  0.37427191  0.66694401  1
  Pr  Pr59  1  0.66644494  0.12406628  0.65877442  1
  Pr  Pr60  1  0.82483257  0.87446633  0.49853966  1
  Pr  Pr61  1  0.66688207  0.87409975  -0.00446167  1
  Pr  Pr62  1  0.16115235  0.12550066  0.50094263  1
  Pr  Pr63  1  0.34118554  0.87685698  0.66903420  1
  Pr  Pr64  1  0.67470362  0.37679645  0.00275781  1
  Pr  Pr65  1  0.82931336  0.12621013  0.83434178  1
  Pr  Pr66  1  0.32967649  0.62511161  0.99260151  1
  Pr  Pr67  1  0.00041922  0.87450981  0.67520609  1
  Pr  Pr68  1  0.17341755  0.37529139  0.16143224  1
  Pr  Pr69  1  0.50005956  0.63390154  0.83245323  1
  Pr  Pr70  1  0.17517395  0.37548018  0.49734438  1
  Pr  Pr71  1  0.49600240  0.11945203  0.83175573  1
  Mn  Mn72  1  0.00139050  -0.00238114  0.17099710  1
  Mn  Mn73  1  0.00027919  0.00000456  0.50509555  1
  Mn  Mn74  1  -0.00042591  0.00031918  0.83527611  1
  Mn  Mn75  1  0.00271050  0.50180306  0.16972535  1
  Mn  Mn76  1  0.00006055  0.49904355  0.50359270  1
  Mn  Mn77  1  0.00100938  0.49879334  0.83731261  1
  Mn  Mn78  1  0.33516019  0.00019490  0.16487350  1
  Mn  Mn79  1  0.33308249  -0.00092983  0.49783197  1
  Mn  Mn80  1  0.33342750  0.00051297  0.83224759  1
  Mn  Mn81  1  0.33496336  0.50160926  0.16361610  1
  Mn  Mn82  1  0.33296354  0.50000308  0.49766464  1
  Mn  Mn83  1  0.33329641  0.49834365  0.83360353  1
  Mn  Mn84  1  0.66656467  -0.00029105  0.16421725  1
  Mn  Mn85  1  0.66473428  0.00042698  0.49777674  1
  Mn  Mn86  1  0.66562457  0.00310260  0.83192442  1
  Mn  Mn87  1  0.66496121  0.50111331  0.16550834  1
  Mn  Mn88  1  0.66569731  0.50034163  0.49743883  1
  Mn  Mn89  1  0.66296883  0.49785562  0.83245216  1
  Mn  Mn90  1  0.00310656  0.25041329  0.17100689  1
  Mn  Mn91  1  0.00006289  0.24917225  0.50340580  1
  Mn  Mn92  1  0.00148097  0.24908332  0.83636851  1
  Mn  Mn93  1  0.00017626  0.75065390  0.16979668  1
  Mn  Mn94  1  0.00006786  0.75281625  0.50533206  1
  Mn  Mn95  1  -0.00093703  0.75085859  0.83652829  1
  Mn  Mn96  1  0.33414615  0.24954432  0.16446512  1
  Mn  Mn97  1  0.33372067  0.25041427  0.49716955  1
  Mn  Mn98  1  0.33452703  0.24976796  0.83271638  1
  Mn  Mn99  1  0.33518355  0.74819967  0.16432139  1
  Mn  Mn100  1  0.33226277  0.75021092  0.49787215  1
  Mn  Mn101  1  0.33252653  0.75041082  0.83199982  1
  Mn  Mn102  1  0.66645496  0.24862459  0.16488472  1
  Mn  Mn103  1  0.66660143  0.24901975  0.49910360  1
  Mn  Mn104  1  0.66423126  0.24845591  0.83075874  1
  Mn  Mn105  1  0.66530473  0.75046376  0.16510447  1
  Mn  Mn106  1  0.66412536  0.75025144  0.49662941  1
  Mn  Mn107  1  0.66473176  0.75154800  0.83204045  1
  Mn  Mn108  1  0.17063975  0.24997701  0.00022638  1
  Mn  Mn109  1  0.16948456  0.25056991  0.33310198  1
  Mn  Mn110  1  0.16764582  0.25032164  0.66602963  1
  Mn  Mn111  1  0.17013001  0.74957631  0.00171802  1
  Mn  Mn112  1  0.16798150  0.74989584  0.33381217  1
  Mn  Mn113  1  0.16533544  0.74970406  0.66536984  1
  Mn  Mn114  1  0.50149819  0.24759967  -0.00068093  1
  Mn  Mn115  1  0.49832683  0.25057079  0.33270675  1
  Mn  Mn116  1  0.50054129  0.25118590  0.66521262  1
  Mn  Mn117  1  0.49913920  0.75215488  0.00057723  1
  Mn  Mn118  1  0.49669560  0.74970234  0.33277010  1
  Mn  Mn119  1  0.49802028  0.74989481  0.66559810  1
  Mn  Mn120  1  0.83292069  0.24690503  0.00257457  1
  Mn  Mn121  1  0.83232352  0.24906167  0.33603362  1
  Mn  Mn122  1  0.83276619  0.24714707  0.66652669  1
  Mn  Mn123  1  0.83154010  0.75327492  0.00100559  1
  Mn  Mn124  1  0.83177790  0.75021274  0.33400672  1
  Mn  Mn125  1  0.83419837  0.75193524  0.66581403  1
  Mn  Mn126  1  0.17072482  -0.00070466  0.00156315  1
  Mn  Mn127  1  0.16888300  -0.00190620  0.33420306  1
  Mn  Mn128  1  0.16615816  -0.00066971  0.66481078  1
  Mn  Mn129  1  0.16994314  0.50093572  0.00044197  1
  Mn  Mn130  1  0.16868037  0.50108960  0.33225760  1
  Mn  Mn131  1  0.16708766  0.49982619  0.66730796  1
  Mn  Mn132  1  0.50150869  0.00120571  0.00062456  1
  Mn  Mn133  1  0.49712515  0.00052096  0.33272612  1
  Mn  Mn134  1  0.49956042  0.00156919  0.66552562  1
  Mn  Mn135  1  0.49857538  0.49887762  -0.00022433  1
  Mn  Mn136  1  0.49808913  0.49916766  0.33256516  1
  Mn  Mn137  1  0.49944222  0.49856908  0.66546395  1
  Mn  Mn138  1  0.83033435  0.00148817  0.00107759  1
  Mn  Mn139  1  0.83286710  -0.00120030  0.33419756  1
  Mn  Mn140  1  0.83463881  0.00117630  0.66719006  1
  Mn  Mn141  1  0.83301693  0.49968432  0.00188714  1
  Mn  Mn142  1  0.83115871  0.50131204  0.33537353  1
  Mn  Mn143  1  0.83338193  0.49893224  0.66548181  1
  O  O144  1  0.17814797  0.12595079  0.02382185  1
  O  O145  1  0.17659650  0.12414294  0.35789651  1
  O  O146  1  0.16537734  0.12531131  0.69135985  1
  O  O147  1  0.18052980  0.62442110  0.02404468  1
  O  O148  1  0.17720023  0.62589164  0.35997457  1
  O  O149  1  0.16444577  0.62445387  0.69234271  1
  O  O150  1  0.50150018  0.12399035  0.02965384  1
  O  O151  1  0.49131611  0.12576021  0.35074400  1
  O  O152  1  0.50372627  0.13030237  0.68678456  1
  O  O153  1  0.49339083  0.62518861  0.02344141  1
  O  O154  1  0.49283298  0.62250960  0.36008298  1
  O  O155  1  0.49760149  0.62026166  0.68701273  1
  O  O156  1  0.82095810  0.12175542  0.02692473  1
  O  O157  1  0.83643147  0.12358621  0.35755822  1
  O  O158  1  0.81792991  0.12394722  0.68908081  1
  O  O159  1  0.83453203  0.62815497  0.01845262  1
  O  O160  1  0.83521932  0.62732332  0.36131335  1
  O  O161  1  0.83527201  0.62609311  0.67445908  1
  O  O162  1  0.17146464  0.37616286  0.30497339  1
  O  O163  1  0.16936874  0.37577679  0.64086329  1
  O  O164  1  0.17231874  0.37628245  0.97745634  1
  O  O165  1  0.17198438  0.87386647  0.31183572  1
  O  O166  1  0.15517127  0.87385212  0.64091275  1
  O  O167  1  0.17667723  0.87341298  0.99140101  1
  O  O168  1  0.49739077  0.37550849  0.31179901  1
  O  O169  1  0.49929467  0.37474448  0.64189805  1
  O  O170  1  0.49597617  0.37031473  0.97486882  1
  O  O171  1  0.49492924  0.87615727  0.30730094  1
  O  O172  1  0.49272338  0.87497469  0.65275700  1
  O  O173  1  0.49710397  0.87985321  0.97872618  1
  O  O174  1  0.82888679  0.37406563  0.32574223  1
  O  O175  1  0.83210117  0.37110390  0.64313441  1
  O  O176  1  0.82936389  0.37182844  0.99385637  1
  O  O177  1  0.82907336  0.87425607  0.31005469  1
  O  O178  1  0.84752551  0.87873637  0.64239684  1
  O  O179  1  0.83133947  0.87994330  0.97872030  1
  O  O180  1  0.01102891  0.37630451  0.17999636  1
  O  O181  1  -0.00273241  0.37366143  0.51419716  1
  O  O182  1  0.00577738  0.37404586  0.84714840  1
  O  O183  1  -0.00664960  0.87295853  0.18048440  1
  O  O184  1  0.00552002  0.87787629  0.53106606  1
  O  O185  1  -0.00853998  0.87779176  0.84491344  1
  O  O186  1  0.32473464  0.37604534  0.18822539  1
  O  O187  1  0.32462745  0.37701210  0.52248673  1
  O  O188  1  0.32656729  0.37258824  0.85912240  1
  O  O189  1  0.33538373  0.87454561  0.18892905  1
  O  O190  1  0.32425850  0.87335747  0.52414182  1
  O  O191  1  0.33542254  0.87799003  0.85688556  1
  O  O192  1  0.66493870  0.37459384  0.18821667  1
  O  O193  1  0.66407395  0.37391028  0.52130415  1
  O  O194  1  0.65489369  0.37021876  0.85911197  1
  O  O195  1  0.66416958  0.87532679  0.19330881  1
  O  O196  1  0.66811558  0.87657570  0.50875466  1
  O  O197  1  0.66441141  0.88161107  0.85160971  1
  O  O198  1  0.00252476  0.12372635  0.16269747  1
  O  O199  1  0.00289905  0.12423008  0.47648970  1
  O  O200  1  0.01066199  0.12327882  0.81813839  1
  O  O201  1  0.00377162  0.62757875  0.14712769  1
  O  O202  1  -0.00015226  0.62574186  0.47887591  1
  O  O203  1  0.00620774  0.62484831  0.81786431  1
  O  O204  1  0.34138814  0.12501193  0.14032603  1
  O  O205  1  0.32966947  0.12488105  0.47455987  1
  O  O206  1  0.33936916  0.12664774  0.81829042  1
  O  O207  1  0.34606276  0.62425261  0.13674974  1
  O  O208  1  0.34220238  0.62399297  0.47366521  1
  O  O209  1  0.34612105  0.62102651  0.82284690  1
  O  O210  1  0.65868300  0.12212872  0.14357650  1
  O  O211  1  0.67162875  0.12444838  0.48802043  1
  O  O212  1  0.67297644  0.12702295  0.80433630  1
  O  O213  1  0.66115896  0.62804921  0.15303638  1
  O  O214  1  0.66788609  0.62567706  0.48718028  1
  O  O215  1  0.65924082  0.62132138  0.82298707  1
  O  O216  1  0.08436772  0.01978274  0.25966910  1
  O  O217  1  0.08060742  0.02737848  0.58688501  1
  O  O218  1  0.08773786  0.01187547  0.91551765  1
  O  O219  1  0.08003586  0.52651626  0.25991320  1
  O  O220  1  0.07781338  0.52253922  0.59369034  1
  O  O221  1  0.07995359  0.52534754  0.93023239  1
  O  O222  1  0.41120611  0.02206908  0.25155482  1
  O  O223  1  0.41402525  0.00783826  0.58008953  1
  O  O224  1  0.41670701  0.02194906  0.92280986  1
  O  O225  1  0.40770842  0.51969475  0.25718123  1
  O  O226  1  0.41412306  0.51007217  0.58202069  1
  O  O227  1  0.40289405  0.50756666  0.93048047  1
  O  O228  1  0.75568807  0.01460108  0.23762936  1
  O  O229  1  0.75491847  0.01337168  0.58056948  1
  O  O230  1  0.74459878  0.02241712  0.91811659  1
  O  O231  1  0.75234836  0.51486500  0.24853640  1
  O  O232  1  0.75684411  0.50790614  0.57245836  1
  O  O233  1  0.74331809  0.49977470  0.91818107  1
  O  O234  1  0.24698564  0.22599489  0.24169719  1
  O  O235  1  0.24048871  0.23685940  0.57094643  1
  O  O236  1  0.24773624  0.22889848  0.91116720  1
  O  O237  1  0.24869394  0.72620632  0.23955788  1
  O  O238  1  0.23803260  0.73440637  0.56795277  1
  O  O239  1  0.24577609  0.72712734  0.90846286  1
  O  O240  1  0.57619346  0.23577583  0.24288309  1
  O  O241  1  0.58939414  0.23597857  0.58697708  1
  O  O242  1  0.57880420  0.22142592  0.90898818  1
  O  O243  1  0.57036437  0.73806591  0.23915007  1
  O  O244  1  0.57609672  0.73736627  0.57404267  1
  O  O245  1  0.57327548  0.74019042  0.91280758  1
  O  O246  1  0.91820841  0.23189737  0.25797890  1
  O  O247  1  0.91598395  0.22172693  0.58888377  1
  O  O248  1  0.90988403  0.23107465  0.91598684  1
  O  O249  1  0.91657344  0.72636460  0.25742515  1
  O  O250  1  0.92100643  0.72922609  0.58812497  1
  O  O251  1  0.91923474  0.73732009  0.92398489  1
  O  O252  1  0.10220082  0.49140322  0.09543645  1
  O  O253  1  0.09249650  0.48890438  0.43093927  1
  O  O254  1  0.09566453  0.48754801  0.76716379  1
  O  O255  1  0.09282183  0.99393881  0.09314893  1
  O  O256  1  0.09121757  0.98734324  0.42781250  1
  O  O257  1  0.08009487  0.98762120  0.74491749  1
  O  O258  1  0.42423282  0.47809180  0.09077543  1
  O  O259  1  0.42123382  0.47577859  0.42168990  1
  O  O260  1  0.41908126  0.47390003  0.75677948  1
  O  O261  1  0.42367413  0.97847260  0.08831079  1
  O  O262  1  0.41358757  0.98094844  0.41364649  1
  O  O263  1  0.41742205  0.98748570  0.75185863  1
  O  O264  1  0.75008701  0.49117967  0.08312242  1
  O  O265  1  0.74462192  0.47869184  0.41364539  1
  O  O266  1  0.74592985  0.48210418  0.74114242  1
  O  O267  1  0.74534122  0.97307273  0.08039827  1
  O  O268  1  0.74766657  0.97922018  0.41118500  1
  O  O269  1  0.75923480  0.98248132  0.75561565  1
  O  O270  1  0.25831135  0.27175553  0.07677327  1
  O  O271  1  0.25698986  0.27359528  0.40664820  1
  O  O272  1  0.25450871  0.27291444  0.74306528  1
  O  O273  1  0.26602018  0.76411512  0.07192980  1
  O  O274  1  0.25679013  0.77033106  0.40833708  1
  O  O275  1  0.25461392  0.76876855  0.73636816  1
  O  O276  1  0.58916966  0.26719475  0.07126829  1
  O  O277  1  0.58310681  0.27091519  0.41609415  1
  O  O278  1  0.58198475  0.27345779  0.74851860  1
  O  O279  1  0.58646471  0.77523010  0.07814172  1
  O  O280  1  0.58278228  0.76782424  0.40708933  1
  O  O281  1  0.57873764  0.75507329  0.75125237  1
  O  O282  1  0.91753214  0.24979288  0.09092701  1
  O  O283  1  0.90897716  0.25839489  0.42759499  1
  O  O284  1  0.91575738  0.24417077  0.75114904  1
  O  O285  1  0.90718457  0.75999281  0.09163256  1
  O  O286  1  0.91049232  0.76686739  0.43061564  1
  O  O287  1  0.91608493  0.76636899  0.74954176  1
  O  O288  1  0.26257714  0.48031550  0.07092921  1
  O  O289  1  0.25922347  0.47954667  0.40469845  1
  O  O290  1  0.25670006  0.47590578  0.74214896  1
  O  O291  1  0.26451938  0.98477322  0.07527271  1
  O  O292  1  0.25490984  0.97667318  0.41000161  1
  O  O293  1  0.25447549  0.98130771  0.73729708  1
  O  O294  1  0.58882904  0.47972914  0.07093761  1
  O  O295  1  0.58479232  0.47645845  0.40994900  1
  O  O296  1  0.58560157  0.47433078  0.74345199  1
  O  O297  1  0.58730032  0.97645099  0.07787343  1
  O  O298  1  0.58207652  0.98334331  0.40905276  1
  O  O299  1  0.58191524  0.99791876  0.75223356  1
  O  O300  1  0.92086797  0.50135124  0.08588238  1
  O  O301  1  0.91058722  0.49106663  0.42430166  1
  O  O302  1  0.92100065  0.49677963  0.74795288  1
  O  O303  1  0.90762514  0.99156459  0.09251744  1
  O  O304  1  0.91093888  0.98461187  0.43150447  1
  O  O305  1  0.91946945  0.99167921  0.74714768  1
  O  O306  1  0.09841366  0.25866346  0.09433173  1
  O  O307  1  0.09547872  0.26201410  0.42576998  1
  O  O308  1  0.09490883  0.26174890  0.75738024  1
  O  O309  1  0.09427234  0.75605235  0.09139885  1
  O  O310  1  0.08957710  0.76315182  0.43048638  1
  O  O311  1  0.07935353  0.76165975  0.74922580  1
  O  O312  1  0.41981153  0.26761611  0.08566362  1
  O  O313  1  0.41825308  0.27305695  0.41791466  1
  O  O314  1  0.41866741  0.27349846  0.75183689  1
  O  O315  1  0.42517502  0.77373187  0.09108038  1
  O  O316  1  0.41604069  0.77115553  0.41620793  1
  O  O317  1  0.41566196  0.76594632  0.75232948  1
  O  O318  1  0.74463131  0.26091457  0.07806265  1
  O  O319  1  0.74512955  0.27021845  0.41429389  1
  O  O320  1  0.74219625  0.26779774  0.74183225  1
  O  O321  1  0.74756671  0.77562228  0.08139695  1
  O  O322  1  0.74614060  0.77196326  0.41036085  1
  O  O323  1  0.75469307  0.76680994  0.74963564  1
  O  O324  1  0.24928886  0.02221734  0.24327341  1
  O  O325  1  0.23920403  0.01260315  0.57024932  1
  O  O326  1  0.24930297  0.02232051  0.91090531  1
  O  O327  1  0.24623950  0.52463765  0.23625267  1
  O  O328  1  0.23975381  0.51640021  0.56650956  1
  O  O329  1  0.24014237  0.51943237  0.90411539  1
  O  O330  1  0.57392011  0.01252550  0.23976253  1
  O  O331  1  0.58470135  0.01744391  0.58421271  1
  O  O332  1  0.58064604  0.02579854  0.91645633  1
  O  O333  1  0.57137042  0.51500796  0.24092439  1
  O  O334  1  0.57569355  0.51208276  0.57054766  1
  O  O335  1  0.56240357  0.51324075  0.90282437  1
  O  O336  1  0.91814296  0.01865150  0.25788621  1
  O  O337  1  0.91825664  0.03021554  0.58909307  1
  O  O338  1  0.90662829  0.01775181  0.91042232  1
  O  O339  1  0.91519668  0.52220405  0.25552609  1
  O  O340  1  0.91768609  0.52056886  0.58325569  1
  O  O341  1  0.91878024  0.51370977  0.92201402  1
  O  O342  1  0.08418467  0.22782652  0.25843853  1
  O  O343  1  0.08021528  0.22699052  0.59010044  1
  O  O344  1  0.08933169  0.23600136  0.91871438  1
  O  O345  1  0.08096422  0.72569227  0.26066817  1
  O  O346  1  0.07872524  0.72404691  0.58980945  1
  O  O347  1  0.08307684  0.73000419  0.92420175  1
  O  O348  1  0.40885626  0.23162327  0.25273469  1
  O  O349  1  0.41854658  0.24390392  0.57987542  1
  O  O350  1  0.41647961  0.22936001  0.92060490  1
  O  O351  1  0.41026533  0.72570110  0.25390779  1
  O  O352  1  0.41484631  0.73623844  0.57928621  1
  O  O353  1  0.41103169  0.73518587  0.92640728  1
  O  O354  1  0.75492253  0.23217089  0.24474333  1
  O  O355  1  0.75393161  0.23278816  0.57819385  1
  O  O356  1  0.74607949  0.22985013  0.91332371  1
  O  O357  1  0.75488249  0.73739540  0.23944510  1
  O  O358  1  0.75960770  0.74434998  0.57356458  1
  O  O359  1  0.74859136  0.75209694  0.91669131  1
