# generated using pymatgen
data_Ba17Sr5La8Pr42Mn72O216
_symmetry_space_group_name_H-M   'P 1'
_cell_length_a   16.68260557
_cell_length_b   15.71857401
_cell_length_c   16.82894686
_cell_angle_alpha   89.98578723
_cell_angle_beta   90.01277417
_cell_angle_gamma   90.02257129
_symmetry_Int_Tables_number   1
_chemical_formula_structural   Ba17Sr5La8Pr42Mn72O216
_chemical_formula_sum   'Ba17 Sr5 La8 Pr42 Mn72 O216'
_cell_volume   4412.99979594
_cell_formula_units_Z   1
loop_
 _symmetry_equiv_pos_site_id
 _symmetry_equiv_pos_as_xyz
  1  'x, y, z'
loop_
 _atom_site_type_symbol
 _atom_site_label
 _atom_site_symmetry_multiplicity
 _atom_site_fract_x
 _atom_site_fract_y
 _atom_site_fract_z
 _atom_site_occupancy
  Ba  Ba0  1  0.49819677  0.37390857  0.83437812  1
  Ba  Ba1  1  0.83110413  0.37630841  0.16678092  1
  Ba  Ba2  1  0.83091158  0.37570724  0.83266268  1
  Ba  Ba3  1  0.16377854  0.37583536  0.83231690  1
  Ba  Ba4  1  0.00283881  0.12553535  0.33030558  1
  Ba  Ba5  1  0.50064934  0.62745263  0.83459197  1
  Ba  Ba6  1  0.00055842  0.12179795  0.99845289  1
  Ba  Ba7  1  0.33630652  0.62622137  0.66388298  1
  Ba  Ba8  1  0.83434443  0.12447960  0.83628627  1
  Ba  Ba9  1  0.66457671  0.37589684  0.33599361  1
  Ba  Ba10  1  0.33123159  0.37593135  -0.00058764  1
  Ba  Ba11  1  0.33599929  0.12383224  0.66556652  1
  Ba  Ba12  1  0.83517423  0.12453620  0.16737737  1
  Ba  Ba13  1  0.83300337  0.37707858  0.50018790  1
  Ba  Ba14  1  0.66587524  0.12256949  1.00063143  1
  Ba  Ba15  1  0.33638107  0.62620305  0.99890836  1
  Ba  Ba16  1  0.16373155  0.87294188  0.49958255  1
  Sr  Sr17  1  0.49675133  0.37369082  0.49863652  1
  Sr  Sr18  1  0.33865420  0.12223756  0.33326976  1
  Sr  Sr19  1  0.17591775  0.62585698  0.50045872  1
  Sr  Sr20  1  0.50080975  0.12307993  0.83548072  1
  Sr  Sr21  1  0.32480795  0.87492559  0.66622507  1
  La  La22  1  -0.00647154  0.37235029  -0.00144499  1
  La  La23  1  0.33581506  0.12456452  0.99495846  1
  La  La24  1  0.16146873  0.37408375  0.15933458  1
  La  La25  1  0.49739073  0.37355979  0.16274560  1
  La  La26  1  0.49093109  0.87655033  0.16676326  1
  La  La27  1  0.83825838  0.62885332  0.83557715  1
  La  La28  1  0.66431208  0.37134479  0.00059250  1
  La  La29  1  0.66962158  0.12755204  0.67127202  1
  Pr  Pr30  1  0.67736654  0.62395934  0.33440378  1
  Pr  Pr31  1  0.17334633  0.12657073  0.17031720  1
  Pr  Pr32  1  0.67179173  0.12927863  0.33199220  1
  Pr  Pr33  1  0.48936221  0.87759974  0.83286142  1
  Pr  Pr34  1  0.32397466  0.87268853  -0.00391751  1
  Pr  Pr35  1  0.17682702  0.62450338  0.83186075  1
  Pr  Pr36  1  0.17082077  0.12397508  0.83422462  1
  Pr  Pr37  1  -0.00979553  0.87525305  0.33805723  1
  Pr  Pr38  1  -0.00479998  0.37365905  0.33240239  1
  Pr  Pr39  1  0.01085341  0.62253729  0.33116982  1
  Pr  Pr40  1  0.34455564  0.62948931  0.33385888  1
  Pr  Pr41  1  0.50642879  0.62408215  0.50652010  1
  Pr  Pr42  1  0.50616799  0.12662092  0.16913907  1
  Pr  Pr43  1  0.32244420  0.87572569  0.33785208  1
  Pr  Pr44  1  0.82560196  0.87808701  0.16799175  1
  Pr  Pr45  1  0.33208930  0.37493622  0.33407613  1
  Pr  Pr46  1  0.16000425  0.87420511  0.16542969  1
  Pr  Pr47  1  0.50788227  0.62526177  0.16863868  1
  Pr  Pr48  1  0.67234989  0.62441314  0.99886508  1
  Pr  Pr49  1  0.82452993  0.87936576  0.83398731  1
  Pr  Pr50  1  0.82750377  0.87349657  0.49949551  1
  Pr  Pr51  1  0.17379728  0.12363299  0.50020530  1
  Pr  Pr52  1  -0.01113706  0.87387218  0.00058767  1
  Pr  Pr53  1  0.83835171  0.12867399  0.50286084  1
  Pr  Pr54  1  0.67037455  0.62201116  0.66710951  1
  Pr  Pr55  1  0.00225831  0.12879684  0.66308376  1
  Pr  Pr56  1  0.32541588  0.37579167  0.67163595  1
  Pr  Pr57  1  0.16155734  0.87403447  0.82518379  1
  Pr  Pr58  1  0.84048597  0.62314704  0.50245710  1
  Pr  Pr59  1  0.65994615  0.87739083  0.34087530  1
  Pr  Pr60  1  0.66108060  0.37486586  0.67032023  1
  Pr  Pr61  1  0.18122082  0.62407239  0.16841169  1
  Pr  Pr62  1  0.65942374  0.87760583  0.00212296  1
  Pr  Pr63  1  -0.00764568  0.87134802  0.66860971  1
  Pr  Pr64  1  0.16807532  0.37580922  0.49942082  1
  Pr  Pr65  1  -0.00653736  0.37679418  0.67006140  1
  Pr  Pr66  1  0.51102460  0.12492644  0.50333870  1
  Pr  Pr67  1  0.00775552  0.62268014  0.99608842  1
  Pr  Pr68  1  0.48703642  0.87699111  0.49883679  1
  Pr  Pr69  1  0.65813112  0.87477867  0.67195711  1
  Pr  Pr70  1  0.00771214  0.62169152  0.66198575  1
  Pr  Pr71  1  0.84427209  0.62590920  0.17010083  1
  Mn  Mn72  1  0.00166526  -0.00357076  0.16769605  1
  Mn  Mn73  1  -0.00132532  -0.00019226  0.50021798  1
  Mn  Mn74  1  0.00066036  -0.00369251  0.83103635  1
  Mn  Mn75  1  0.00278050  0.50357409  0.16363616  1
  Mn  Mn76  1  0.00500164  0.50008909  0.49742221  1
  Mn  Mn77  1  -0.00053745  0.50436459  0.83087378  1
  Mn  Mn78  1  0.33213503  -0.00196401  0.16532774  1
  Mn  Mn79  1  0.33277910  0.00161777  0.49793913  1
  Mn  Mn80  1  0.33034600  -0.00059477  0.83260298  1
  Mn  Mn81  1  0.33653409  0.50219304  0.17039906  1
  Mn  Mn82  1  0.33620425  0.49769697  0.49879479  1
  Mn  Mn83  1  0.33422026  0.49930698  0.83193955  1
  Mn  Mn84  1  0.66433805  -0.00230047  0.17233653  1
  Mn  Mn85  1  0.66801759  -0.00196229  0.50280128  1
  Mn  Mn86  1  0.66287415  -0.00271205  0.83502500  1
  Mn  Mn87  1  0.66603657  0.50358271  0.16662407  1
  Mn  Mn88  1  0.66605474  0.50182493  0.50087056  1
  Mn  Mn89  1  0.66708711  0.50274651  0.83367250  1
  Mn  Mn90  1  0.00136006  0.24977013  0.16562478  1
  Mn  Mn91  1  0.00293291  0.25084750  0.49845530  1
  Mn  Mn92  1  0.00039151  0.24934158  0.83117927  1
  Mn  Mn93  1  0.00182375  0.75021574  0.16705498  1
  Mn  Mn94  1  -0.00101707  0.74878140  0.49955221  1
  Mn  Mn95  1  0.00012059  0.74928188  0.83360118  1
  Mn  Mn96  1  0.33419587  0.24737885  0.16806808  1
  Mn  Mn97  1  0.33536562  0.25036362  0.49861814  1
  Mn  Mn98  1  0.33307890  0.24902254  0.83131364  1
  Mn  Mn99  1  0.33432135  0.75226923  0.16765535  1
  Mn  Mn100  1  0.33410051  0.75042043  0.49824455  1
  Mn  Mn101  1  0.33102143  0.75207969  0.83201438  1
  Mn  Mn102  1  0.66565175  0.24973866  0.16851632  1
  Mn  Mn103  1  0.66746498  0.24880242  0.50100499  1
  Mn  Mn104  1  0.66432181  0.25014676  0.83456916  1
  Mn  Mn105  1  0.66658609  0.75147800  0.17002838  1
  Mn  Mn106  1  0.66600735  0.75130022  0.50226422  1
  Mn  Mn107  1  0.66673161  0.75085731  0.83534496  1
  Mn  Mn108  1  0.16503688  0.24781615  0.00019822  1
  Mn  Mn109  1  0.17047116  0.25235349  0.33163391  1
  Mn  Mn110  1  0.16478000  0.24872967  0.66416211  1
  Mn  Mn111  1  0.16372945  0.75103559  -0.00172501  1
  Mn  Mn112  1  0.16649773  0.74699853  0.33136058  1
  Mn  Mn113  1  0.16481053  0.74967234  0.66434709  1
  Mn  Mn114  1  0.49839246  0.24776458  0.00150289  1
  Mn  Mn115  1  0.49880282  0.24891463  0.33467118  1
  Mn  Mn116  1  0.50087639  0.24932946  0.66441423  1
  Mn  Mn117  1  0.50101281  0.75250174  0.00222511  1
  Mn  Mn118  1  0.50257032  0.75142220  0.33520919  1
  Mn  Mn119  1  0.50063408  0.75281669  0.66664253  1
  Mn  Mn120  1  0.83227527  0.25059427  0.00001991  1
  Mn  Mn121  1  0.83450291  0.25098897  0.33493906  1
  Mn  Mn122  1  0.83329034  0.24905437  0.66666353  1
  Mn  Mn123  1  0.83213609  0.75063916  0.00339602  1
  Mn  Mn124  1  0.83373533  0.74903069  0.33424462  1
  Mn  Mn125  1  0.83179786  0.74983464  0.66739605  1
  Mn  Mn126  1  0.16518250  -0.00331537  -0.00104463  1
  Mn  Mn127  1  0.16663251  0.00043751  0.33102965  1
  Mn  Mn128  1  0.16254233  -0.00021768  0.66540957  1
  Mn  Mn129  1  0.16520216  0.50108573  -0.00091810  1
  Mn  Mn130  1  0.17114164  0.49910109  0.33182951  1
  Mn  Mn131  1  0.16637277  0.50066152  0.66292192  1
  Mn  Mn132  1  0.49617983  -0.00431276  0.00086306  1
  Mn  Mn133  1  0.49934799  -0.00025735  0.33351852  1
  Mn  Mn134  1  0.50053839  -0.00011802  0.66639545  1
  Mn  Mn135  1  0.50151839  0.50161645  0.00365621  1
  Mn  Mn136  1  0.50101068  0.50204055  0.33559364  1
  Mn  Mn137  1  0.50115861  0.49898479  0.66454126  1
  Mn  Mn138  1  0.83161876  -0.00282770  0.00051790  1
  Mn  Mn139  1  0.83172035  -0.00242321  0.33585389  1
  Mn  Mn140  1  0.83329690  -0.00125380  0.66543085  1
  Mn  Mn141  1  0.83259890  0.50359385  0.00097539  1
  Mn  Mn142  1  0.83684233  0.50269458  0.33447415  1
  Mn  Mn143  1  0.83252675  0.50250002  0.66692849  1
  O  O144  1  0.16885455  0.11922489  0.02615917  1
  O  O145  1  0.16707419  0.13126544  0.35654001  1
  O  O146  1  0.15431336  0.12328201  0.68947261  1
  O  O147  1  0.15775687  0.62939207  0.02555130  1
  O  O148  1  0.15947666  0.62268284  0.35299726  1
  O  O149  1  0.15828261  0.62611013  0.68641878  1
  O  O150  1  0.48922612  0.11634404  0.02301548  1
  O  O151  1  0.50033258  0.12187437  0.36015480  1
  O  O152  1  0.50647854  0.12050453  0.68436860  1
  O  O153  1  0.50425995  0.63101977  0.02292370  1
  O  O154  1  0.49325063  0.63048732  0.36302560  1
  O  O155  1  0.50457574  0.63014970  0.67581844  1
  O  O156  1  0.83358113  0.11811494  0.00890418  1
  O  O157  1  0.82877719  0.11917240  0.35617001  1
  O  O158  1  0.83585079  0.12213309  0.67972822  1
  O  O159  1  0.82627009  0.62989995  0.02780812  1
  O  O160  1  0.83330995  0.62791155  0.35738253  1
  O  O161  1  0.82631064  0.62906952  0.69303162  1
  O  O162  1  0.17896601  0.37772877  0.30235412  1
  O  O163  1  0.16749069  0.37481144  0.64491716  1
  O  O164  1  0.16048670  0.37410277  0.99126797  1
  O  O165  1  0.17228251  0.86904122  0.30982750  1
  O  O166  1  0.16116551  0.87407097  0.65714613  1
  O  O167  1  0.17118744  0.87387358  0.97122952  1
  O  O168  1  0.49527019  0.37637608  0.30847913  1
  O  O169  1  0.51261879  0.37280785  0.64674841  1
  O  O170  1  0.51201089  0.37800401  0.99989860  1
  O  O171  1  0.51085269  0.87373602  0.30879853  1
  O  O172  1  0.50844746  0.87656273  0.64178251  1
  O  O173  1  0.51064986  0.87330398  0.98028092  1
  O  O174  1  0.83970777  0.38220543  0.32447203  1
  O  O175  1  0.83706317  0.37623733  0.65528589  1
  O  O176  1  0.83434847  0.38309102  0.99114225  1
  O  O177  1  0.83444822  0.86993693  0.31239369  1
  O  O178  1  0.83662696  0.87239341  0.64060756  1
  O  O179  1  0.83634463  0.87009286  0.97904644  1
  O  O180  1  0.00942871  0.38152215  0.18664964  1
  O  O181  1  0.01105534  0.37406856  0.52681756  1
  O  O182  1  -0.00006484  0.38399869  0.85288562  1
  O  O183  1  0.01086621  0.86967059  0.19549020  1
  O  O184  1  -0.00629259  0.87274771  0.52418026  1
  O  O185  1  0.01327998  0.86811091  0.85844991  1
  O  O186  1  0.33867431  0.37921379  0.19104680  1
  O  O187  1  0.33559245  0.37186682  0.52539286  1
  O  O188  1  0.33082423  0.37212891  0.83704862  1
  O  O189  1  0.33253976  0.87444414  0.19610134  1
  O  O190  1  0.33790543  0.87644220  0.51371663  1
  O  O191  1  0.32099696  0.87663837  0.84968768  1
  O  O192  1  0.65590711  0.37678561  0.17612055  1
  O  O193  1  0.66661041  0.37573084  0.52472067  1
  O  O194  1  0.66588445  0.38195432  0.85270212  1
  O  O195  1  0.67040923  0.87193200  0.19922701  1
  O  O196  1  0.67764331  0.87429575  0.53000757  1
  O  O197  1  0.67223127  0.87162254  0.85741808  1
  O  O198  1  0.00761431  0.12045911  0.15644283  1
  O  O199  1  -0.00827579  0.12413710  0.48554055  1
  O  O200  1  0.00428925  0.11838753  0.80871935  1
  O  O201  1  -0.00577345  0.63031434  0.13908863  1
  O  O202  1  -0.00622884  0.62766497  0.47493484  1
  O  O203  1  -0.00908555  0.63006069  0.80539582  1
  O  O204  1  0.32778342  0.11658698  0.13889886  1
  O  O205  1  0.32513680  0.12688546  0.48167912  1
  O  O206  1  0.33068008  0.12272103  0.82500931  1
  O  O207  1  0.33488435  0.62943061  0.15419450  1
  O  O208  1  0.34054736  0.62490349  0.47867005  1
  O  O209  1  0.32997738  0.62756567  0.82321501  1
  O  O210  1  0.66118206  0.12099064  0.15910069  1
  O  O211  1  0.66177393  0.11784172  0.47550959  1
  O  O212  1  0.66248005  0.11853371  0.81611624  1
  O  O213  1  0.66176610  0.63152995  0.14228682  1
  O  O214  1  0.65454100  0.63139380  0.47684954  1
  O  O215  1  0.67066535  0.62888292  0.81109783  1
  O  O216  1  0.09666436  0.00964921  0.23712314  1
  O  O217  1  0.08510581  0.02256461  0.57635657  1
  O  O218  1  0.09570061  0.01268438  0.90243865  1
  O  O219  1  0.09279074  0.52290720  0.23845525  1
  O  O220  1  0.08723058  0.52084195  0.57627954  1
  O  O221  1  0.08425108  0.52807791  0.90602421  1
  O  O222  1  0.42463589  0.01492491  0.23585696  1
  O  O223  1  0.42959710  0.01297861  0.56989964  1
  O  O224  1  0.41516489  0.00148061  0.91542782  1
  O  O225  1  0.42560847  0.52666743  0.24824122  1
  O  O226  1  0.42932799  0.51188022  0.57025625  1
  O  O227  1  0.42218938  0.50500357  0.91737752  1
  O  O228  1  0.74751984  0.01056270  0.25769949  1
  O  O229  1  0.75764765  0.02159782  0.57453795  1
  O  O230  1  0.74903840  -0.00081941  0.91593713  1
  O  O231  1  0.75538583  0.52464016  0.24263438  1
  O  O232  1  0.75464332  0.52666503  0.58007747  1
  O  O233  1  0.75731126  0.52596992  0.91208272  1
  O  O234  1  0.25729335  0.22926776  0.25444285  1
  O  O235  1  0.24669432  0.23787552  0.57891671  1
  O  O236  1  0.24921460  0.22875974  0.92236366  1
  O  O237  1  0.25720371  0.72879589  0.25509480  1
  O  O238  1  0.25321504  0.74198010  0.58237663  1
  O  O239  1  0.24675602  0.73672984  0.91818752  1
  O  O240  1  0.58484442  0.22872439  0.25652269  1
  O  O241  1  0.59119709  0.22601811  0.58742104  1
  O  O242  1  0.58125800  0.24122457  0.92020929  1
  O  O243  1  0.59291381  0.72577802  0.26243480  1
  O  O244  1  0.59606191  0.73534041  0.59434082  1
  O  O245  1  0.59825551  0.73761843  0.92938915  1
  O  O246  1  0.92289162  0.24902546  0.25159853  1
  O  O247  1  0.91995509  0.23446976  0.58507986  1
  O  O248  1  0.92156294  0.24832490  0.91811976  1
  O  O249  1  0.92950378  0.72865509  0.25835398  1
  O  O250  1  0.92138514  0.72671658  0.59083931  1
  O  O251  1  0.92868504  0.73160933  0.92512369  1
  O  O252  1  0.07406857  0.48598460  0.07291825  1
  O  O253  1  0.08551423  0.47489092  0.40580409  1
  O  O254  1  0.07379485  0.48865043  0.73608736  1
  O  O255  1  0.07754496  0.97090455  0.07392901  1
  O  O256  1  0.07204558  0.98187110  0.40751609  1
  O  O257  1  0.07232945  0.97623687  0.74073799  1
  O  O258  1  0.41686811  0.48943632  0.08903234  1
  O  O259  1  0.40742738  0.48331895  0.40515098  1
  O  O260  1  0.41173892  0.48401132  0.73516982  1
  O  O261  1  0.40705067  0.97016342  0.07636673  1
  O  O262  1  0.41183127  0.97773665  0.40492242  1
  O  O263  1  0.41293217  0.97994981  0.74803407  1
  O  O264  1  0.73561268  0.49145219  0.07196972  1
  O  O265  1  0.74528991  0.50187856  0.41790380  1
  O  O266  1  0.74118325  0.48768763  0.73799776  1
  O  O267  1  0.74329693  0.97550179  0.08757612  1
  O  O268  1  0.74475598  0.97394319  0.41680523  1
  O  O269  1  0.74433479  0.97929212  0.74420817  1
  O  O270  1  0.24002187  0.26074595  0.09378867  1
  O  O271  1  0.24718521  0.27593084  0.41885553  1
  O  O272  1  0.24616873  0.25778478  0.74537716  1
  O  O273  1  0.24198031  0.76952686  0.08925194  1
  O  O274  1  0.25103111  0.75817165  0.41327528  1
  O  O275  1  0.23947989  0.76040893  0.75624110  1
  O  O276  1  0.57563186  0.25446871  0.09264372  1
  O  O277  1  0.57776406  0.25780537  0.42374037  1
  O  O278  1  0.58516610  0.26035491  0.74584486  1
  O  O279  1  0.57650204  0.77279034  0.09920894  1
  O  O280  1  0.57613029  0.77689250  0.42873178  1
  O  O281  1  0.57803707  0.77519588  0.76010519  1
  O  O282  1  0.91807594  0.26285438  0.08164719  1
  O  O283  1  0.92263695  0.26513843  0.41641220  1
  O  O284  1  0.91871188  0.26097250  0.74516157  1
  O  O285  1  0.90839256  0.77351877  0.09796279  1
  O  O286  1  0.90718171  0.77095235  0.42580723  1
  O  O287  1  0.91063856  0.77461089  0.76345850  1
  O  O288  1  0.24231255  0.49203188  0.09958144  1
  O  O289  1  0.24868034  0.47663784  0.42110377  1
  O  O290  1  0.24647525  0.49249661  0.74590493  1
  O  O291  1  0.24305573  0.97134249  0.08698900  1
  O  O292  1  0.24674824  0.98785035  0.41370113  1
  O  O293  1  0.23651857  0.99059078  0.75886043  1
  O  O294  1  0.57328878  0.49497266  0.09894757  1
  O  O295  1  0.57407501  0.49075290  0.42506670  1
  O  O296  1  0.58356103  0.49076850  0.74747759  1
  O  O297  1  0.57632694  0.97928464  0.09191751  1
  O  O298  1  0.57968115  0.97524570  0.42888933  1
  O  O299  1  0.57895550  0.97502880  0.75481378  1
  O  O300  1  0.91495592  0.49434588  0.08435233  1
  O  O301  1  0.92666056  0.48848290  0.41384188  1
  O  O302  1  0.91586811  0.49190022  0.74795390  1
  O  O303  1  0.91302835  0.97448165  0.08934040  1
  O  O304  1  0.90830405  0.97698592  0.42433282  1
  O  O305  1  0.91187344  0.97118653  0.75390611  1
  O  O306  1  0.07714890  0.26775451  0.07719298  1
  O  O307  1  0.08487699  0.27724365  0.41011560  1
  O  O308  1  0.07350767  0.26617607  0.73577108  1
  O  O309  1  0.07416389  0.77399608  0.07362093  1
  O  O310  1  0.07034049  0.76296649  0.40114979  1
  O  O311  1  0.07114007  0.76637250  0.74497978  1
  O  O312  1  0.41470693  0.26015079  0.08563921  1
  O  O313  1  0.40880348  0.26782554  0.40686643  1
  O  O314  1  0.41215824  0.26460700  0.73500636  1
  O  O315  1  0.40844077  0.77627318  0.08080722  1
  O  O316  1  0.41078678  0.77419678  0.40457998  1
  O  O317  1  0.41362704  0.77241716  0.74514250  1
  O  O318  1  0.74190126  0.26194108  0.08111762  1
  O  O319  1  0.74941138  0.25121032  0.41931632  1
  O  O320  1  0.74221928  0.25965402  0.74078337  1
  O  O321  1  0.73949687  0.77612397  0.08187843  1
  O  O322  1  0.73859172  0.76798450  0.41106381  1
  O  O323  1  0.74291066  0.77348852  0.74516433  1
  O  O324  1  0.25470417  0.01824423  0.24926284  1
  O  O325  1  0.24557923  0.01304119  0.58370506  1
  O  O326  1  0.25400289  0.01774932  0.92584590  1
  O  O327  1  0.26144902  0.52538023  0.26096814  1
  O  O328  1  0.25307710  0.50600932  0.58146810  1
  O  O329  1  0.24517206  0.51412679  0.91715229  1
  O  O330  1  0.58682902  0.02014836  0.25990830  1
  O  O331  1  0.59496288  0.01820731  0.59075584  1
  O  O332  1  0.57923204  0.00524769  0.91873891  1
  O  O333  1  0.58960822  0.52805710  0.25968166  1
  O  O334  1  0.59235061  0.52087613  0.58912146  1
  O  O335  1  0.59474004  0.51583325  0.93161462  1
  O  O336  1  0.91921770  -0.00183126  0.25468118  1
  O  O337  1  0.92316672  0.01665833  0.58944811  1
  O  O338  1  0.92317529  -0.00427109  0.91524991  1
  O  O339  1  0.92669859  0.52359359  0.25038413  1
  O  O340  1  0.91895048  0.52107575  0.58687934  1
  O  O341  1  0.92055969  0.52559365  0.92102088  1
  O  O342  1  0.09642735  0.24100362  0.23950991  1
  O  O343  1  0.08798701  0.22514565  0.57492078  1
  O  O344  1  0.08990223  0.23244853  0.90663552  1
  O  O345  1  0.09340293  0.72523859  0.23684604  1
  O  O346  1  0.08289962  0.73012067  0.57882589  1
  O  O347  1  0.08707466  0.72273295  0.90525663  1
  O  O348  1  0.42470349  0.22826883  0.24354355  1
  O  O349  1  0.42892748  0.23182611  0.57011544  1
  O  O350  1  0.41647859  0.23502900  0.91889183  1
  O  O351  1  0.42812182  0.73400782  0.24486518  1
  O  O352  1  0.42973995  0.74206076  0.56809611  1
  O  O353  1  0.41693058  0.75649748  0.91161029  1
  O  O354  1  0.74733900  0.23861937  0.25405649  1
  O  O355  1  0.75361047  0.22703904  0.58086406  1
  O  O356  1  0.74749015  0.24805719  0.91849265  1
  O  O357  1  0.75921270  0.72674064  0.24299025  1
  O  O358  1  0.75608881  0.72536926  0.57190600  1
  O  O359  1  0.75817793  0.73157317  0.90951325  1
