# generated using pymatgen
data_Ba17Sr5La8Pr42Mn72O216
_symmetry_space_group_name_H-M   'P 1'
_cell_length_a   16.66946520
_cell_length_b   15.70595730
_cell_length_c   16.80975040
_cell_angle_alpha   90.00313852
_cell_angle_beta   90.07046557
_cell_angle_gamma   90.02015720
_symmetry_Int_Tables_number   1
_chemical_formula_structural   Ba17Sr5La8Pr42Mn72O216
_chemical_formula_sum   'Ba17 Sr5 La8 Pr42 Mn72 O216'
_cell_volume   4400.95560968
_cell_formula_units_Z   1
loop_
 _symmetry_equiv_pos_site_id
 _symmetry_equiv_pos_as_xyz
  1  'x, y, z'
loop_
 _atom_site_type_symbol
 _atom_site_label
 _atom_site_symmetry_multiplicity
 _atom_site_fract_x
 _atom_site_fract_y
 _atom_site_fract_z
 _atom_site_occupancy
  Ba  Ba0  1  0.33383012  0.62472548  0.33126105  1
  Ba  Ba1  1  0.83113344  0.37558974  0.83133536  1
  Ba  Ba2  1  0.83441460  0.12647660  0.16173912  1
  Ba  Ba3  1  0.00117684  0.12523491  0.66936790  1
  Ba  Ba4  1  0.33256994  0.12572154  0.99877102  1
  Ba  Ba5  1  0.16533084  0.12500495  0.83662393  1
  Ba  Ba6  1  0.66200780  0.62384364  0.66602994  1
  Ba  Ba7  1  0.83514664  0.87464198  0.49693762  1
  Ba  Ba8  1  0.83477901  0.37480547  0.49777680  1
  Ba  Ba9  1  0.50069173  0.12593376  0.16728149  1
  Ba  Ba10  1  -0.00024219  0.37451305  0.66857009  1
  Ba  Ba11  1  0.16361031  0.62579999  0.17010144  1
  Ba  Ba12  1  0.49733185  0.62471259  0.50105979  1
  Ba  Ba13  1  0.33329832  0.12543609  0.33078095  1
  Ba  Ba14  1  0.50264805  0.87591161  0.83425901  1
  Ba  Ba15  1  0.32900343  0.62458296  0.99855717  1
  Ba  Ba16  1  0.66918473  0.87637730  0.33385781  1
  Sr  Sr17  1  0.16193797  0.62389782  0.83786968  1
  Sr  Sr18  1  0.66629327  0.87300781  0.00445533  1
  Sr  Sr19  1  0.83437121  0.37444637  0.16038088  1
  Sr  Sr20  1  0.66506056  0.37653739  0.00222095  1
  Sr  Sr21  1  0.49608512  0.37647907  0.83500491  1
  La  La22  1  0.66389149  0.62192009  0.99811409  1
  La  La23  1  0.49837472  0.62463591  0.83424741  1
  La  La24  1  0.66719092  0.37052174  0.33176990  1
  La  La25  1  0.82693143  0.62148988  0.83156491  1
  La  La26  1  0.50230926  0.12703210  0.84043841  1
  La  La27  1  -0.00506014  0.12626216  0.99711299  1
  La  La28  1  0.33841829  0.12533071  0.66412305  1
  La  La29  1  0.16924903  0.12450495  0.50709349  1
  Pr  Pr30  1  0.49356473  0.37548364  0.16202690  1
  Pr  Pr31  1  0.34033898  0.87520553  0.66698630  1
  Pr  Pr32  1  -0.00669992  0.62360151  0.99793219  1
  Pr  Pr33  1  0.82892353  0.62410200  0.16389855  1
  Pr  Pr34  1  0.17098822  0.37735591  0.16788326  1
  Pr  Pr35  1  0.66905841  0.12838749  0.99680796  1
  Pr  Pr36  1  0.33183665  0.37435814  -0.00134357  1
  Pr  Pr37  1  0.17613840  0.87272941  0.16756462  1
  Pr  Pr38  1  -0.01151348  0.62361109  0.66615069  1
  Pr  Pr39  1  0.67033835  0.12427690  0.66902947  1
  Pr  Pr40  1  0.00351281  0.37437100  0.00218783  1
  Pr  Pr41  1  0.83563921  0.12802402  0.83698945  1
  Pr  Pr42  1  0.49907232  0.37766700  0.49991473  1
  Pr  Pr43  1  0.83449680  0.87545929  0.16012785  1
  Pr  Pr44  1  0.67046486  0.87105815  0.66990515  1
  Pr  Pr45  1  0.33991421  0.87539037  0.33326527  1
  Pr  Pr46  1  -0.00425241  0.12545354  0.33419218  1
  Pr  Pr47  1  0.33032730  0.62531891  0.66191028  1
  Pr  Pr48  1  0.01012117  0.87415332  0.67203256  1
  Pr  Pr49  1  0.50493670  0.62518203  0.17199586  1
  Pr  Pr50  1  0.33306673  0.37524511  0.66704043  1
  Pr  Pr51  1  0.17202717  0.87788619  0.50196780  1
  Pr  Pr52  1  0.17767877  0.87450433  0.83394370  1
  Pr  Pr53  1  0.66994745  0.62447992  0.33418064  1
  Pr  Pr54  1  0.66117649  0.37714942  0.67283149  1
  Pr  Pr55  1  0.33665752  0.37482446  0.33339646  1
  Pr  Pr56  1  0.83719401  0.87454817  0.82775957  1
  Pr  Pr57  1  0.16066234  0.62585330  0.50520570  1
  Pr  Pr58  1  0.16981821  0.37651672  0.83354447  1
  Pr  Pr59  1  0.33505905  0.87611818  -0.00065926  1
  Pr  Pr60  1  -0.00808297  0.62473112  0.33199218  1
  Pr  Pr61  1  0.49446015  0.87559786  0.16265480  1
  Pr  Pr62  1  0.00258767  0.37372923  0.33593715  1
  Pr  Pr63  1  0.50194588  0.87324320  0.49817183  1
  Pr  Pr64  1  0.00738983  0.87527132  0.00375953  1
  Pr  Pr65  1  0.83598517  0.12202842  0.49882980  1
  Pr  Pr66  1  0.16723629  0.37232087  0.49968351  1
  Pr  Pr67  1  0.50882008  0.12682283  0.49910783  1
  Pr  Pr68  1  0.82387268  0.62601715  0.50090515  1
  Pr  Pr69  1  0.16324276  0.12354954  0.17122830  1
  Pr  Pr70  1  0.67402528  0.12436954  0.32923435  1
  Pr  Pr71  1  0.00339176  0.87533913  0.33518906  1
  Mn  Mn72  1  0.00086132  -0.00101870  0.16817336  1
  Mn  Mn73  1  0.00254060  -0.00142256  0.50105518  1
  Mn  Mn74  1  -0.00076466  -0.00323027  0.83617936  1
  Mn  Mn75  1  -0.00073223  0.49961748  0.16761392  1
  Mn  Mn76  1  0.00117809  0.50169933  0.49918075  1
  Mn  Mn77  1  -0.00012782  0.50207923  0.83399402  1
  Mn  Mn78  1  0.33221075  0.00022073  0.16661196  1
  Mn  Mn79  1  0.33683441  0.00083947  0.49881964  1
  Mn  Mn80  1  0.33505202  0.00017552  0.83203237  1
  Mn  Mn81  1  0.33335157  0.49992681  0.16584322  1
  Mn  Mn82  1  0.32995193  0.49894437  0.49931907  1
  Mn  Mn83  1  0.33240850  0.50032508  0.83083317  1
  Mn  Mn84  1  0.66760495  -0.00107038  0.16550042  1
  Mn  Mn85  1  0.66689483  0.00299436  0.50101667  1
  Mn  Mn86  1  0.66895361  -0.00144304  0.83373475  1
  Mn  Mn87  1  0.66725876  0.49954958  0.16685676  1
  Mn  Mn88  1  0.66552124  0.49575869  0.49919736  1
  Mn  Mn89  1  0.66275736  0.49889740  0.83447810  1
  Mn  Mn90  1  0.00170693  0.25051288  0.16787060  1
  Mn  Mn91  1  0.00157539  0.24973693  0.49936685  1
  Mn  Mn92  1  -0.00037516  0.25080862  0.83541082  1
  Mn  Mn93  1  -0.00160405  0.75089706  0.16757835  1
  Mn  Mn94  1  0.00153299  0.74974710  0.50139740  1
  Mn  Mn95  1  0.00022249  0.75003647  0.83458627  1
  Mn  Mn96  1  0.33130699  0.25111610  0.16624455  1
  Mn  Mn97  1  0.33593076  0.25011408  0.49933967  1
  Mn  Mn98  1  0.33346976  0.25164579  0.83184897  1
  Mn  Mn99  1  0.33404127  0.74928525  0.16629938  1
  Mn  Mn100  1  0.33060747  0.75145486  0.49905621  1
  Mn  Mn101  1  0.33355616  0.74875277  0.83091217  1
  Mn  Mn102  1  0.66688595  0.25112890  0.16549700  1
  Mn  Mn103  1  0.66753800  0.24945958  0.50131365  1
  Mn  Mn104  1  0.66396738  0.25152510  0.83208167  1
  Mn  Mn105  1  0.66773205  0.75051878  0.16656162  1
  Mn  Mn106  1  0.66534312  0.75110276  0.50015412  1
  Mn  Mn107  1  0.66750910  0.75007791  0.83620929  1
  Mn  Mn108  1  0.16511907  0.25179737  0.00311836  1
  Mn  Mn109  1  0.16526136  0.24944515  0.33403770  1
  Mn  Mn110  1  0.16978581  0.25136920  0.66777096  1
  Mn  Mn111  1  0.16371626  0.74964572  -0.00029299  1
  Mn  Mn112  1  0.16533335  0.75222649  0.33707412  1
  Mn  Mn113  1  0.16672175  0.74877831  0.66984350  1
  Mn  Mn114  1  0.50107948  0.25247686  -0.00046948  1
  Mn  Mn115  1  0.50193058  0.25148998  0.33381519  1
  Mn  Mn116  1  0.50050216  0.24795912  0.66759612  1
  Mn  Mn117  1  0.49910517  0.74928381  0.00192970  1
  Mn  Mn118  1  0.50294897  0.74995495  0.33251450  1
  Mn  Mn119  1  0.49894994  0.75159797  0.66673083  1
  Mn  Mn120  1  0.83280341  0.25227452  -0.00163068  1
  Mn  Mn121  1  0.83472193  0.25172553  0.33021103  1
  Mn  Mn122  1  0.83093822  0.24755601  0.66581364  1
  Mn  Mn123  1  0.83292942  0.75032177  -0.00306141  1
  Mn  Mn124  1  0.83503111  0.74854329  0.33026256  1
  Mn  Mn125  1  0.83386670  0.75087058  0.66482080  1
  Mn  Mn126  1  0.16519808  -0.00187125  0.00316759  1
  Mn  Mn127  1  0.16568244  -0.00075970  0.33536650  1
  Mn  Mn128  1  0.17041518  -0.00100019  0.66814095  1
  Mn  Mn129  1  0.16346776  0.50010476  0.00010159  1
  Mn  Mn130  1  0.16558188  0.49941454  0.33625593  1
  Mn  Mn131  1  0.16567946  0.50226157  0.66913061  1
  Mn  Mn132  1  0.50188903  -0.00035065  0.00038665  1
  Mn  Mn133  1  0.50221752  0.00024184  0.33347980  1
  Mn  Mn134  1  0.50306991  0.00318787  0.66537168  1
  Mn  Mn135  1  0.49826385  0.49985097  0.00104903  1
  Mn  Mn136  1  0.50345531  0.49828144  0.33180978  1
  Mn  Mn137  1  0.49579555  0.49783011  0.66761274  1
  Mn  Mn138  1  0.83209713  -0.00303466  -0.00397719  1
  Mn  Mn139  1  0.83575173  0.00025958  0.33054439  1
  Mn  Mn140  1  0.83439668  -0.00056186  0.66624732  1
  Mn  Mn141  1  0.83331734  0.49941208  -0.00022025  1
  Mn  Mn142  1  0.83412687  0.49902759  0.32940491  1
  Mn  Mn143  1  0.83023461  0.49911361  0.66454335  1
  O  O144  1  0.16208393  0.12371026  0.02665491  1
  O  O145  1  0.16547325  0.12348704  0.36242044  1
  O  O146  1  0.18001923  0.12462893  0.67719607  1
  O  O147  1  0.15896965  0.62568421  0.01296558  1
  O  O148  1  0.16559989  0.62906261  0.35953320  1
  O  O149  1  0.18121133  0.62688935  0.68920215  1
  O  O150  1  0.50838398  0.12606299  0.00958208  1
  O  O151  1  0.50363662  0.12712827  0.35567373  1
  O  O152  1  0.50454943  0.12545812  0.69552957  1
  O  O153  1  0.50397860  0.62442065  0.02653567  1
  O  O154  1  0.50721105  0.62279072  0.34521552  1
  O  O155  1  0.49086639  0.62228235  0.68746827  1
  O  O156  1  0.83782448  0.12407509  0.00586063  1
  O  O157  1  0.83634554  0.12774963  0.35283509  1
  O  O158  1  0.82751137  0.12147315  0.69149400  1
  O  O159  1  0.84034714  0.62630364  0.02147900  1
  O  O160  1  0.83930388  0.62261441  0.35687696  1
  O  O161  1  0.83746183  0.62894528  0.68465291  1
  O  O162  1  0.15341230  0.37161831  0.31137749  1
  O  O163  1  0.16926923  0.37735253  0.64439284  1
  O  O164  1  0.15733671  0.37705613  0.97814257  1
  O  O165  1  0.15382676  0.87660356  0.31018914  1
  O  O166  1  0.16020244  0.87273004  0.64633901  1
  O  O167  1  0.15818895  0.87349071  0.97797401  1
  O  O168  1  0.50645205  0.37545472  0.30801059  1
  O  O169  1  0.49617636  0.36943794  0.64338292  1
  O  O170  1  0.49484890  0.37689078  0.98370038  1
  O  O171  1  0.49788115  0.87434673  0.31072123  1
  O  O172  1  0.49517083  0.88257393  0.64202201  1
  O  O173  1  0.49357659  0.87352492  0.99007240  1
  O  O174  1  0.83396172  0.37669547  0.31176597  1
  O  O175  1  0.82283443  0.37144309  0.65527709  1
  O  O176  1  0.83695508  0.37740752  0.98832732  1
  O  O177  1  0.83981565  0.87225867  0.30731597  1
  O  O178  1  0.82482641  0.87438508  0.65322708  1
  O  O179  1  0.82995704  0.87186012  0.97164984  1
  O  O180  1  0.00249444  0.37285637  0.19314098  1
  O  O181  1  0.00732162  0.37630559  0.51170013  1
  O  O182  1  0.00458813  0.37638083  0.85518902  1
  O  O183  1  -0.01118609  0.87284273  0.19267163  1
  O  O184  1  0.00457922  0.87259434  0.52800517  1
  O  O185  1  -0.00850449  0.87207973  0.85904030  1
  O  O186  1  0.33345882  0.37579988  0.18732687  1
  O  O187  1  0.33801630  0.37364577  0.52302929  1
  O  O188  1  0.33255804  0.37673244  0.85396870  1
  O  O189  1  0.33498516  0.87460157  0.18675233  1
  O  O190  1  0.34006828  0.87722788  0.52306813  1
  O  O191  1  0.33256400  0.87389183  0.85348982  1
  O  O192  1  0.66947313  0.37851546  0.18869131  1
  O  O193  1  0.66528750  0.36995129  0.52736826  1
  O  O194  1  0.66397033  0.37601979  0.85008464  1
  O  O195  1  0.67659946  0.87280881  0.17854571  1
  O  O196  1  0.66277418  0.88245040  0.52440133  1
  O  O197  1  0.67857126  0.87430716  0.85342346  1
  O  O198  1  0.01012698  0.12544755  0.14043628  1
  O  O199  1  0.00569440  0.12375560  0.47900481  1
  O  O200  1  -0.00584753  0.12184064  0.82791821  1
  O  O201  1  -0.00314379  0.62876254  0.14119357  1
  O  O202  1  0.00912852  0.62692168  0.47531411  1
  O  O203  1  0.00422646  0.62921888  0.81053488  1
  O  O204  1  0.32221653  0.12497662  0.15550666  1
  O  O205  1  0.32605207  0.12502991  0.48592012  1
  O  O206  1  0.33521129  0.12561597  0.81165284  1
  O  O207  1  0.33911427  0.62470093  0.15669224  1
  O  O208  1  0.32157125  0.62572586  0.48747585  1
  O  O209  1  0.33429794  0.62401649  0.80667562  1
  O  O210  1  0.66530980  0.12314198  0.14211296  1
  O  O211  1  0.65879240  0.12767763  0.47269915  1
  O  O212  1  0.66140989  0.12367472  0.81247092  1
  O  O213  1  0.66262445  0.62576621  0.14274467  1
  O  O214  1  0.66759468  0.62036215  0.47959855  1
  O  O215  1  0.66127584  0.62474917  0.82331054  1
  O  O216  1  0.08108179  0.02363478  0.25890639  1
  O  O217  1  0.09089227  0.01213896  0.58182729  1
  O  O218  1  0.07113253  0.01017389  0.93308915  1
  O  O219  1  0.07251082  0.51504407  0.26451054  1
  O  O220  1  0.07867888  0.52692487  0.59474747  1
  O  O221  1  0.07028893  0.51478789  0.92882739  1
  O  O222  1  0.41600854  0.00361943  0.24921777  1
  O  O223  1  0.42414618  0.02652843  0.57916584  1
  O  O224  1  0.42082693  0.01412168  0.91031243  1
  O  O225  1  0.42810465  0.50805496  0.24263067  1
  O  O226  1  0.40466318  0.51211739  0.58945117  1
  O  O227  1  0.41892662  0.51740010  0.90868497  1
  O  O228  1  0.75005263  0.01553540  0.25119684  1
  O  O229  1  0.74881384  0.02459806  0.58334810  1
  O  O230  1  0.74745829  0.02512867  0.91633450  1
  O  O231  1  0.75011362  0.52576610  0.24842142  1
  O  O232  1  0.75146151  0.51453873  0.57523747  1
  O  O233  1  0.74903984  0.51938193  0.91871661  1
  O  O234  1  0.23992260  0.24129601  0.24463396  1
  O  O235  1  0.25860562  0.23874597  0.58644302  1
  O  O236  1  0.24788750  0.24877560  0.91873147  1
  O  O237  1  0.24709053  0.74968734  0.24923497  1
  O  O238  1  0.23808222  0.73975754  0.57476040  1
  O  O239  1  0.24202995  0.74394654  0.90680334  1
  O  O240  1  0.59236044  0.23670425  0.26332186  1
  O  O241  1  0.58984833  0.22768490  0.59179066  1
  O  O242  1  0.58930306  0.23313269  0.92045244  1
  O  O243  1  0.58902396  0.72965806  0.25282443  1
  O  O244  1  0.57749668  0.74927746  0.58341641  1
  O  O245  1  0.58215384  0.73214874  0.92120385  1
  O  O246  1  0.92353405  0.23505982  0.25219359  1
  O  O247  1  0.91542430  0.23355287  0.57580497  1
  O  O248  1  0.91523285  0.23670745  0.91610674  1
  O  O249  1  0.90967905  0.72503005  0.24080949  1
  O  O250  1  0.91260317  0.72619672  0.57425438  1
  O  O251  1  0.90804828  0.72699037  0.90567779  1
  O  O252  1  0.08609031  0.47794336  0.09181515  1
  O  O253  1  0.09427376  0.48422625  0.42924538  1
  O  O254  1  0.09256328  0.48744733  0.76148458  1
  O  O255  1  0.08877853  0.97450434  0.09521125  1
  O  O256  1  0.08725483  0.97631198  0.42162782  1
  O  O257  1  0.08567495  0.97817425  0.75971076  1
  O  O258  1  0.41266242  0.47853304  0.07937428  1
  O  O259  1  0.41842474  0.47835679  0.41361878  1
  O  O260  1  0.41329801  0.47826626  0.74707768  1
  O  O261  1  0.41356485  0.98272552  0.08234172  1
  O  O262  1  0.41692363  0.97859216  0.41558220  1
  O  O263  1  0.41314519  0.98936942  0.73887108  1
  O  O264  1  0.75018789  0.49351198  0.08414149  1
  O  O265  1  0.74577455  0.48771639  0.40722447  1
  O  O266  1  0.74235990  0.49085133  0.74676454  1
  O  O267  1  0.75522645  0.98196326  0.08096408  1
  O  O268  1  0.75232590  0.99983658  0.41809753  1
  O  O269  1  0.75455652  0.98123230  0.75352766  1
  O  O270  1  0.24963860  0.27632025  0.08165040  1
  O  O271  1  0.24904401  0.27513905  0.41339744  1
  O  O272  1  0.24915385  0.27525016  0.75153217  1
  O  O273  1  0.25080897  0.77165583  0.07762701  1
  O  O274  1  0.25336586  0.78016253  0.41345577  1
  O  O275  1  0.25638105  0.77434163  0.74147991  1
  O  O276  1  0.57843735  0.27117032  0.09010909  1
  O  O277  1  0.57756322  0.27128857  0.42812746  1
  O  O278  1  0.57580512  0.26995732  0.75361526  1
  O  O279  1  0.57809219  0.76588629  0.09240166  1
  O  O280  1  0.57993768  0.76685038  0.42049423  1
  O  O281  1  0.59198038  0.76603501  0.74785649  1
  O  O282  1  0.92515987  0.26491459  0.08027862  1
  O  O283  1  0.92280159  0.26044188  0.40981174  1
  O  O284  1  0.91085998  0.25320440  0.75148258  1
  O  O285  1  0.91947263  0.77348183  0.07457320  1
  O  O286  1  0.92905445  0.76297588  0.40232675  1
  O  O287  1  0.92723474  0.76901393  0.74088427  1
  O  O288  1  0.24931879  0.47820773  0.07852676  1
  O  O289  1  0.25274434  0.47205016  0.41382093  1
  O  O290  1  0.25339892  0.47728085  0.74429622  1
  O  O291  1  0.25121706  0.97414759  0.08058072  1
  O  O292  1  0.25194594  0.97461065  0.41324899  1
  O  O293  1  0.25311048  0.97585626  0.74854499  1
  O  O294  1  0.57818207  0.48366270  0.09220798  1
  O  O295  1  0.58365433  0.47329645  0.41709485  1
  O  O296  1  0.57845398  0.48326711  0.74965530  1
  O  O297  1  0.58011486  0.97963372  0.08860932  1
  O  O298  1  0.57590816  0.98567011  0.42730578  1
  O  O299  1  0.59407646  0.98219985  0.74127873  1
  O  O300  1  0.92489911  0.48486711  0.07505867  1
  O  O301  1  0.92780858  0.48759270  0.40201830  1
  O  O302  1  0.91890981  0.49860478  0.74692210  1
  O  O303  1  0.91943038  0.97870115  0.07542047  1
  O  O304  1  0.92547855  0.98850658  0.40889461  1
  O  O305  1  0.92214386  0.97599226  0.74480490  1
  O  O306  1  0.08865295  0.27421940  0.09225410  1
  O  O307  1  0.08515625  0.26864423  0.41661394  1
  O  O308  1  0.08714632  0.26283813  0.75874017  1
  O  O309  1  0.08552078  0.77525997  0.09453417  1
  O  O310  1  0.09326838  0.77143920  0.43162445  1
  O  O311  1  0.09053254  0.77361434  0.76190987  1
  O  O312  1  0.41259189  0.26962132  0.07944637  1
  O  O313  1  0.41660184  0.27352194  0.41389437  1
  O  O314  1  0.40746135  0.26204044  0.73625836  1
  O  O315  1  0.41351118  0.77041761  0.08134545  1
  O  O316  1  0.41703061  0.76997432  0.41536718  1
  O  O317  1  0.41668642  0.76568462  0.74664470  1
  O  O318  1  0.74654525  0.25968619  0.07448703  1
  O  O319  1  0.74296163  0.26170996  0.40950941  1
  O  O320  1  0.73441487  0.25868080  0.73876227  1
  O  O321  1  0.75749297  0.76170326  0.08745081  1
  O  O322  1  0.75365007  0.75147111  0.41489050  1
  O  O323  1  0.75833668  0.76309554  0.75618942  1
  O  O324  1  0.23970164  0.00768557  0.24275632  1
  O  O325  1  0.25703737  0.00891427  0.58136698  1
  O  O326  1  0.24704828  0.00145461  0.91691581  1
  O  O327  1  0.24660275  0.50115659  0.25017690  1
  O  O328  1  0.23930493  0.51574168  0.57858762  1
  O  O329  1  0.24195155  0.50528201  0.90937713  1
  O  O330  1  0.58883074  0.01560122  0.25902290  1
  O  O331  1  0.58576500  0.02797076  0.58481644  1
  O  O332  1  0.58710351  0.01627899  0.91606280  1
  O  O333  1  0.59043758  0.52043854  0.25390468  1
  O  O334  1  0.57705533  0.50030420  0.58277581  1
  O  O335  1  0.58181939  0.51897847  0.92123842  1
  O  O336  1  0.92095447  0.01795988  0.24950582  1
  O  O337  1  0.91318424  0.01636551  0.57625858  1
  O  O338  1  0.90676042  0.01118876  0.90660487  1
  O  O339  1  0.91135638  0.52255575  0.24090148  1
  O  O340  1  0.91412879  0.52199222  0.57420877  1
  O  O341  1  0.91257592  0.52336633  0.91102885  1
  O  O342  1  0.08184956  0.22257044  0.25440319  1
  O  O343  1  0.09421233  0.23751487  0.57742565  1
  O  O344  1  0.07487354  0.23688407  0.93178750  1
  O  O345  1  0.07170382  0.73728670  0.26602822  1
  O  O346  1  0.07587444  0.72739294  0.59921203  1
  O  O347  1  0.06826147  0.73715538  0.93007198  1
  O  O348  1  0.41661067  0.24866186  0.24784927  1
  O  O349  1  0.42743749  0.22571517  0.57877602  1
  O  O350  1  0.42286186  0.23859363  0.90678258  1
  O  O351  1  0.42713627  0.73975817  0.24336923  1
  O  O352  1  0.40272244  0.73773104  0.58877810  1
  O  O353  1  0.41817668  0.73208159  0.91122830  1
  O  O354  1  0.74925007  0.23661425  0.25096454  1
  O  O355  1  0.75343899  0.22002640  0.57622348  1
  O  O356  1  0.75032212  0.22993409  0.90895559  1
  O  O357  1  0.75033669  0.72392540  0.25004224  1
  O  O358  1  0.74854848  0.73676727  0.58110935  1
  O  O359  1  0.74683288  0.72438618  0.92143642  1
