# generated using pymatgen
data_Ba17Sr5La8Pr42Mn72O216
_symmetry_space_group_name_H-M   'P 1'
_cell_length_a   16.67367738
_cell_length_b   15.70621121
_cell_length_c   16.81749274
_cell_angle_alpha   90.01137572
_cell_angle_beta   90.02831327
_cell_angle_gamma   90.00680337
_symmetry_Int_Tables_number   1
_chemical_formula_structural   Ba17Sr5La8Pr42Mn72O216
_chemical_formula_sum   'Ba17 Sr5 La8 Pr42 Mn72 O216'
_cell_volume   4404.16936422
_cell_formula_units_Z   1
loop_
 _symmetry_equiv_pos_site_id
 _symmetry_equiv_pos_as_xyz
  1  'x, y, z'
loop_
 _atom_site_type_symbol
 _atom_site_label
 _atom_site_symmetry_multiplicity
 _atom_site_fract_x
 _atom_site_fract_y
 _atom_site_fract_z
 _atom_site_occupancy
  Ba  Ba0  1  0.50088025  0.87799844  0.49847496  1
  Ba  Ba1  1  0.66609108  0.62588250  0.33877461  1
  Ba  Ba2  1  0.66940454  0.37373440  0.67156224  1
  Ba  Ba3  1  0.83495068  0.87580505  0.83396938  1
  Ba  Ba4  1  0.83355192  0.12335942  0.83839136  1
  Ba  Ba5  1  0.33472209  0.62396784  0.66461271  1
  Ba  Ba6  1  0.33035056  0.62521727  0.33186996  1
  Ba  Ba7  1  0.66716245  0.87560824  0.33624919  1
  Ba  Ba8  1  0.66682333  0.37418968  0.33655097  1
  Ba  Ba9  1  0.16756762  0.62512881  0.50163601  1
  Ba  Ba10  1  0.33056533  0.12454940  0.32795060  1
  Ba  Ba11  1  0.83376423  0.62439937  0.50116846  1
  Ba  Ba12  1  0.66728368  0.37525019  0.00487574  1
  Ba  Ba13  1  0.16493021  0.62506278  0.83263967  1
  Ba  Ba14  1  0.16316203  0.12557510  0.16722572  1
  Ba  Ba15  1  0.50080977  0.62484297  0.83086244  1
  Ba  Ba16  1  0.49826090  0.12388071  0.83441281  1
  Sr  Sr17  1  0.00446821  0.37694273  0.66683365  1
  Sr  Sr18  1  -0.00422828  0.12405097  0.99902643  1
  Sr  Sr19  1  0.33792322  0.37599425  -0.00191923  1
  Sr  Sr20  1  -0.00092203  0.62437504  0.66277303  1
  Sr  Sr21  1  0.49802085  0.37639843  0.16459144  1
  La  La22  1  0.33485428  0.37723950  0.66663297  1
  La  La23  1  0.50013752  0.12533715  0.50163864  1
  La  La24  1  0.16820793  0.87628108  0.82983460  1
  La  La25  1  0.33472745  0.87120062  0.66578237  1
  La  La26  1  0.16970285  0.87156009  0.49906153  1
  La  La27  1  0.33488821  0.37333538  0.32985492  1
  La  La28  1  0.50554680  0.62559020  0.50410470  1
  La  La29  1  -0.00450231  0.62457783  0.33073007  1
  Pr  Pr30  1  0.66964451  0.62763461  0.66222901  1
  Pr  Pr31  1  0.16110020  0.12666821  0.50029388  1
  Pr  Pr32  1  0.00664460  0.87798072  -0.00023215  1
  Pr  Pr33  1  0.16176875  0.12720826  0.83783214  1
  Pr  Pr34  1  0.84297797  0.37186348  0.83151697  1
  Pr  Pr35  1  0.82494017  0.12745269  0.50316189  1
  Pr  Pr36  1  0.83718101  0.37819702  0.16454953  1
  Pr  Pr37  1  0.50173980  0.37424116  0.83180900  1
  Pr  Pr38  1  0.17320560  0.87816954  0.16476552  1
  Pr  Pr39  1  0.65768012  0.12352974  0.33430900  1
  Pr  Pr40  1  0.00574939  0.37381300  0.33527987  1
  Pr  Pr41  1  0.17573022  0.37275497  0.16336356  1
  Pr  Pr42  1  0.66242418  0.12602326  0.99911912  1
  Pr  Pr43  1  0.66845109  0.87300440  0.67032680  1
  Pr  Pr44  1  0.84440682  0.37656358  0.49915545  1
  Pr  Pr45  1  0.33035423  0.12841345  0.99489178  1
  Pr  Pr46  1  0.66540471  0.12305057  0.67078558  1
  Pr  Pr47  1  0.33282665  0.87710699  0.33499831  1
  Pr  Pr48  1  0.66254648  0.62540768  1.00238531  1
  Pr  Pr49  1  -0.00483617  0.62604987  0.99417309  1
  Pr  Pr50  1  0.32940758  0.12441165  0.65929754  1
  Pr  Pr51  1  0.66634730  0.87779255  0.00432961  1
  Pr  Pr52  1  0.49765222  0.87187702  0.16754945  1
  Pr  Pr53  1  0.50228459  0.61957237  0.16893457  1
  Pr  Pr54  1  0.50005102  0.37634154  0.49567591  1
  Pr  Pr55  1  0.82352843  0.62366370  0.17281153  1
  Pr  Pr56  1  0.82598589  0.12429858  0.16822709  1
  Pr  Pr57  1  0.00415059  0.87726337  0.33454698  1
  Pr  Pr58  1  0.83907345  0.87366254  0.49878604  1
  Pr  Pr59  1  0.83075835  0.62207216  0.83210467  1
  Pr  Pr60  1  0.16276049  0.62357322  0.16996907  1
  Pr  Pr61  1  -0.00679327  0.12629013  0.32691030  1
  Pr  Pr62  1  0.49885245  0.13011741  0.16647619  1
  Pr  Pr63  1  0.00498344  0.37247667  -0.00002938  1
  Pr  Pr64  1  0.33598951  0.87307910  -0.00409416  1
  Pr  Pr65  1  0.83476008  0.86875304  0.16205088  1
  Pr  Pr66  1  -0.00946024  0.12542278  0.66624923  1
  Pr  Pr67  1  0.00338986  0.87138107  0.66759320  1
  Pr  Pr68  1  0.17189295  0.37423019  0.83031562  1
  Pr  Pr69  1  0.50184782  0.87442193  0.82721874  1
  Pr  Pr70  1  0.17188375  0.38033426  0.50021463  1
  Pr  Pr71  1  0.33397793  0.62050974  0.99250129  1
  Mn  Mn72  1  -0.00282828  -0.00077628  0.16695622  1
  Mn  Mn73  1  0.00033270  0.00267223  0.49872459  1
  Mn  Mn74  1  0.00183742  -0.00089845  0.83332944  1
  Mn  Mn75  1  0.00001908  0.49985824  0.16373582  1
  Mn  Mn76  1  0.00177535  0.49830760  0.50033337  1
  Mn  Mn77  1  0.00088741  0.50038080  0.83307280  1
  Mn  Mn78  1  0.33494786  -0.00259845  0.16269243  1
  Mn  Mn79  1  0.33030833  0.00193353  0.49741335  1
  Mn  Mn80  1  0.33179213  0.00043119  0.83051740  1
  Mn  Mn81  1  0.33224519  0.50145431  0.16193555  1
  Mn  Mn82  1  0.33619325  0.49783985  0.49866632  1
  Mn  Mn83  1  0.33313530  0.49834478  0.83355211  1
  Mn  Mn84  1  0.66592398  -0.00037908  0.16878166  1
  Mn  Mn85  1  0.66872631  0.00245814  0.50223333  1
  Mn  Mn86  1  0.66640153  -0.00093346  0.83726593  1
  Mn  Mn87  1  0.66630748  0.49838910  0.16886384  1
  Mn  Mn88  1  0.66810618  0.49728605  0.50530265  1
  Mn  Mn89  1  0.66843474  0.50011933  0.83646503  1
  Mn  Mn90  1  -0.00307096  0.25099335  0.16669510  1
  Mn  Mn91  1  0.00199645  0.24828668  0.49891638  1
  Mn  Mn92  1  0.00208859  0.25032999  0.83414076  1
  Mn  Mn93  1  0.00034069  0.75039507  0.16366367  1
  Mn  Mn94  1  0.00052116  0.75200940  0.49961108  1
  Mn  Mn95  1  -0.00003979  0.74922150  0.83296206  1
  Mn  Mn96  1  0.33445886  0.25068322  0.16228960  1
  Mn  Mn97  1  0.33189421  0.24921892  0.49804076  1
  Mn  Mn98  1  0.33298087  0.25017977  0.83000943  1
  Mn  Mn99  1  0.33209819  0.74973897  0.16263426  1
  Mn  Mn100  1  0.33509921  0.75112936  0.49826647  1
  Mn  Mn101  1  0.33277089  0.75008186  0.83426423  1
  Mn  Mn102  1  0.66720400  0.24882204  0.16899059  1
  Mn  Mn103  1  0.66689790  0.25000115  0.50311773  1
  Mn  Mn104  1  0.66770405  0.25079609  0.83777691  1
  Mn  Mn105  1  0.66453752  0.75181734  0.16748728  1
  Mn  Mn106  1  0.66904127  0.75298180  0.50290183  1
  Mn  Mn107  1  0.66791062  0.74855787  0.83578076  1
  Mn  Mn108  1  0.16638219  0.25010637  -0.00123346  1
  Mn  Mn109  1  0.16514826  0.25195572  0.33373360  1
  Mn  Mn110  1  0.16598867  0.24820924  0.66730856  1
  Mn  Mn111  1  0.16682281  0.75076434  0.00225745  1
  Mn  Mn112  1  0.16379673  0.74994489  0.33029571  1
  Mn  Mn113  1  0.16623044  0.75111603  0.66525470  1
  Mn  Mn114  1  0.49851976  0.24973067  0.00065228  1
  Mn  Mn115  1  0.49873668  0.25026660  0.33271923  1
  Mn  Mn116  1  0.49916381  0.24790815  0.66640103  1
  Mn  Mn117  1  0.49954770  0.75188547  -0.00021822  1
  Mn  Mn118  1  0.49743576  0.74850402  0.33276957  1
  Mn  Mn119  1  0.50216998  0.75175272  0.66615945  1
  Mn  Mn120  1  0.83456395  0.25065943  0.00271575  1
  Mn  Mn121  1  0.83401627  0.24942637  0.33421180  1
  Mn  Mn122  1  0.83468142  0.25006388  0.66772868  1
  Mn  Mn123  1  0.83322104  0.74845275  0.00017363  1
  Mn  Mn124  1  0.83520376  0.75241875  0.33110126  1
  Mn  Mn125  1  0.83518074  0.75174261  0.66680918  1
  Mn  Mn126  1  0.16754016  0.00050980  -0.00224218  1
  Mn  Mn127  1  0.16400933  -0.00067791  0.33326963  1
  Mn  Mn128  1  0.16548137  0.00238868  0.66607724  1
  Mn  Mn129  1  0.16579631  0.49888806  0.00173172  1
  Mn  Mn130  1  0.16464717  0.49971536  0.33100862  1
  Mn  Mn131  1  0.16588659  0.49798166  0.66618054  1
  Mn  Mn132  1  0.49778506  -0.00257782  0.00065840  1
  Mn  Mn133  1  0.49795342  0.00115122  0.33108595  1
  Mn  Mn134  1  0.49891769  0.00095162  0.66712979  1
  Mn  Mn135  1  0.49990440  0.50064726  0.00014455  1
  Mn  Mn136  1  0.49828986  0.50000577  0.33324006  1
  Mn  Mn137  1  0.50269205  0.49691281  0.66591333  1
  Mn  Mn138  1  0.83386709  -0.00253976  0.00396546  1
  Mn  Mn139  1  0.83417379  0.00118879  0.33457762  1
  Mn  Mn140  1  0.83344792  0.00154706  0.66529820  1
  Mn  Mn141  1  0.83502755  0.50216799  0.00035511  1
  Mn  Mn142  1  0.83468053  0.49820149  0.33244765  1
  Mn  Mn143  1  0.83629174  0.49784172  0.66896857  1
  O  O144  1  0.17703575  0.12406258  0.01258433  1
  O  O145  1  0.16051011  0.12595294  0.35507883  1
  O  O146  1  0.17526619  0.12487744  0.69473628  1
  O  O147  1  0.16785738  0.62560023  0.02673856  1
  O  O148  1  0.15928766  0.62538165  0.34425598  1
  O  O149  1  0.16423313  0.62635172  0.67445928  1
  O  O150  1  0.49598308  0.11886370  0.02319229  1
  O  O151  1  0.50029971  0.12622281  0.35341968  1
  O  O152  1  0.49241603  0.12388034  0.68009573  1
  O  O153  1  0.49629305  0.63052621  0.02369920  1
  O  O154  1  0.49593931  0.62390249  0.35570247  1
  O  O155  1  0.50744044  0.62678277  0.67303692  1
  O  O156  1  0.83566700  0.11998238  0.02479925  1
  O  O157  1  0.84326945  0.12507753  0.36080856  1
  O  O158  1  0.83881702  0.12597054  0.68159727  1
  O  O159  1  0.84624335  0.62669115  0.02990404  1
  O  O160  1  0.84119125  0.62548067  0.34204972  1
  O  O161  1  0.83234847  0.62506772  0.68755431  1
  O  O162  1  0.15922742  0.37674919  0.30742619  1
  O  O163  1  0.16612206  0.36821212  0.64423574  1
  O  O164  1  0.15819176  0.37318699  0.97422304  1
  O  O165  1  0.15962144  0.87288408  0.30824714  1
  O  O166  1  0.15950771  0.88145497  0.64217880  1
  O  O167  1  0.16345166  0.87777873  0.97375253  1
  O  O168  1  0.49613431  0.37373573  0.31648444  1
  O  O169  1  0.49703965  0.36864145  0.64025051  1
  O  O170  1  0.49897427  0.37531831  0.97820579  1
  O  O171  1  0.49380620  0.87535429  0.31199479  1
  O  O172  1  0.50420465  0.87865038  0.65499286  1
  O  O173  1  0.50056569  0.87490835  0.97067171  1
  O  O174  1  0.84041954  0.37213520  0.30845761  1
  O  O175  1  0.83687009  0.36997169  0.64412202  1
  O  O176  1  0.83502622  0.38196215  0.97557885  1
  O  O177  1  0.83977661  0.87846702  0.30618693  1
  O  O178  1  0.83109175  0.88098597  0.64315361  1
  O  O179  1  0.82012046  0.87136172  0.98905179  1
  O  O180  1  -0.00993166  0.37616646  0.19266803  1
  O  O181  1  -0.00528625  0.37088042  0.51713993  1
  O  O182  1  -0.00034726  0.37658392  0.85634434  1
  O  O183  1  -0.00506743  0.87365243  0.19206876  1
  O  O184  1  -0.00479366  0.88374681  0.52461801  1
  O  O185  1  0.00826901  0.87394467  0.85434881  1
  O  O186  1  0.33201373  0.37815322  0.18420878  1
  O  O187  1  0.33539891  0.36996797  0.52184357  1
  O  O188  1  0.33073992  0.37345716  0.84941805  1
  O  O189  1  0.33583026  0.87232107  0.19128980  1
  O  O190  1  0.32730260  0.88098201  0.51917186  1
  O  O191  1  0.33126285  0.87672667  0.85287105  1
  O  O192  1  0.67036614  0.37102803  0.17893260  1
  O  O193  1  0.65582285  0.37083948  0.51438203  1
  O  O194  1  0.66225604  0.37514826  0.84918751  1
  O  O195  1  0.66684968  0.87615763  0.18050559  1
  O  O196  1  0.67401919  0.88128910  0.52536559  1
  O  O197  1  0.66145815  0.87324953  0.85929929  1
  O  O198  1  -0.00709519  0.12520020  0.14755281  1
  O  O199  1  0.00965409  0.12415705  0.46941961  1
  O  O200  1  0.00741281  0.12428401  0.81093430  1
  O  O201  1  0.01057139  0.62570131  0.13573417  1
  O  O202  1  0.00164402  0.62235339  0.47697932  1
  O  O203  1  -0.00551026  0.62450763  0.81395157  1
  O  O204  1  0.33950395  0.12049629  0.13939707  1
  O  O205  1  0.32712238  0.12618058  0.48293594  1
  O  O206  1  0.32685839  0.12466665  0.80384706  1
  O  O207  1  0.32122034  0.62812889  0.13657991  1
  O  O208  1  0.34146823  0.62227302  0.49019047  1
  O  O209  1  0.33238292  0.62372729  0.82408779  1
  O  O210  1  0.66967103  0.12168321  0.14335468  1
  O  O211  1  0.67533681  0.12691396  0.47708846  1
  O  O212  1  0.66750488  0.12445216  0.81613016  1
  O  O213  1  0.66625696  0.62836143  0.14807733  1
  O  O214  1  0.66396197  0.62408379  0.49819391  1
  O  O215  1  0.67305548  0.62494359  0.80774393  1
  O  O216  1  0.07056067  0.01276349  0.25924176  1
  O  O217  1  0.07824549  0.02825250  0.58889117  1
  O  O218  1  0.08476587  0.01822972  0.91762183  1
  O  O219  1  0.07380672  0.51982982  0.25218598  1
  O  O220  1  0.08272547  0.50330228  0.58295281  1
  O  O221  1  0.07308780  0.51526742  0.92924801  1
  O  O222  1  0.42208868  0.01294040  0.23787095  1
  O  O223  1  0.40997802  0.01825839  0.58230859  1
  O  O224  1  0.40544528  0.01426640  0.92498607  1
  O  O225  1  0.41574311  0.51647894  0.24143860  1
  O  O226  1  0.42845641  0.50541405  0.57327586  1
  O  O227  1  0.41514644  0.51107161  0.91799969  1
  O  O228  1  0.74596239  0.02522268  0.26056382  1
  O  O229  1  0.74574639  0.02617109  0.58844559  1
  O  O230  1  0.74263631  0.01233047  0.93035911  1
  O  O231  1  0.75121931  0.51086611  0.25066295  1
  O  O232  1  0.74689461  0.51187973  0.59603217  1
  O  O233  1  0.74969830  0.52947121  0.92702786  1
  O  O234  1  0.24813383  0.24763662  0.24524404  1
  O  O235  1  0.24385739  0.22910627  0.57937709  1
  O  O236  1  0.24562346  0.23314952  0.90628504  1
  O  O237  1  0.23841325  0.73886331  0.23877699  1
  O  O238  1  0.25118899  0.75129175  0.58437232  1
  O  O239  1  0.25115247  0.73806940  0.92451424  1
  O  O240  1  0.58357715  0.22712301  0.25090807  1
  O  O241  1  0.58177164  0.22257888  0.58543688  1
  O  O242  1  0.58350043  0.23366620  0.92303830  1
  O  O243  1  0.57628566  0.73626835  0.24368627  1
  O  O244  1  0.59034433  0.74133042  0.59085255  1
  O  O245  1  0.58910927  0.73299643  0.92524684  1
  O  O246  1  0.90667055  0.22829194  0.24246125  1
  O  O247  1  0.91380463  0.22815207  0.57167795  1
  O  O248  1  0.91725489  0.24455723  0.91568346  1
  O  O249  1  0.91510945  0.72873792  0.23725005  1
  O  O250  1  0.91620945  0.74665729  0.58082078  1
  O  O251  1  0.91254765  0.73064631  0.91386463  1
  O  O252  1  0.08815799  0.47370125  0.09105615  1
  O  O253  1  0.08612527  0.47657613  0.41808998  1
  O  O254  1  0.08797543  0.48051262  0.75867330  1
  O  O255  1  0.08586692  0.97912651  0.08572887  1
  O  O256  1  0.08696383  0.97714841  0.42477697  1
  O  O257  1  0.08928284  0.98047139  0.75188673  1
  O  O258  1  0.41473521  0.49345376  0.08008130  1
  O  O259  1  0.41340046  0.47516282  0.41290548  1
  O  O260  1  0.41761366  0.47815954  0.74536073  1
  O  O261  1  0.41813985  0.96863061  0.08163990  1
  O  O262  1  0.41096486  0.98748802  0.40947281  1
  O  O263  1  0.41668354  0.97800112  0.75338206  1
  O  O264  1  0.76231515  0.49197267  0.09172809  1
  O  O265  1  0.75664396  0.48178308  0.42979223  1
  O  O266  1  0.76242928  0.48556273  0.76527579  1
  O  O267  1  0.75541999  0.98211608  0.09406421  1
  O  O268  1  0.76330418  0.98683655  0.42813584  1
  O  O269  1  0.74449167  0.98702214  0.74728991  1
  O  O270  1  0.25060942  0.26770686  0.07811060  1
  O  O271  1  0.25222502  0.27567875  0.41524630  1
  O  O272  1  0.25498986  0.27167652  0.74232182  1
  O  O273  1  0.25112391  0.77976844  0.08080887  1
  O  O274  1  0.24827180  0.77047702  0.41022067  1
  O  O275  1  0.24944902  0.77253782  0.74852287  1
  O  O276  1  0.58242382  0.25091851  0.08799134  1
  O  O277  1  0.57942906  0.25512301  0.42273123  1
  O  O278  1  0.57955085  0.26091403  0.75467800  1
  O  O279  1  0.58179921  0.77221962  0.08255148  1
  O  O280  1  0.58393275  0.75544827  0.42397476  1
  O  O281  1  0.58354567  0.77061411  0.75328751  1
  O  O282  1  0.92053125  0.27559185  0.08038041  1
  O  O283  1  0.92672840  0.26773674  0.40590048  1
  O  O284  1  0.92544232  0.26454120  0.74628210  1
  O  O285  1  0.92266912  0.77473310  0.07634665  1
  O  O286  1  0.92194599  0.77238061  0.41058350  1
  O  O287  1  0.92249977  0.76732963  0.74181277  1
  O  O288  1  0.24860801  0.47815588  0.08131759  1
  O  O289  1  0.25173961  0.47801208  0.41304854  1
  O  O290  1  0.25035829  0.47857813  0.75002730  1
  O  O291  1  0.25425964  0.97614840  0.07646582  1
  O  O292  1  0.24859929  0.97828595  0.41373235  1
  O  O293  1  0.25349665  0.97604852  0.74062525  1
  O  O294  1  0.58160838  0.49773298  0.08648394  1
  O  O295  1  0.57609146  0.49079689  0.42806792  1
  O  O296  1  0.57682235  0.48321510  0.75606617  1
  O  O297  1  0.58178459  0.97813908  0.08285042  1
  O  O298  1  0.58713161  0.99987318  0.41754407  1
  O  O299  1  0.58513538  0.98171076  0.75341790  1
  O  O300  1  0.92562875  0.47752304  0.07433384  1
  O  O301  1  0.92300360  0.47944767  0.40958911  1
  O  O302  1  0.91940590  0.47920397  0.75113949  1
  O  O303  1  0.91853596  0.97229207  0.08337505  1
  O  O304  1  0.92404923  0.97875736  0.40976292  1
  O  O305  1  0.92640999  0.98711944  0.73776766  1
  O  O306  1  0.08407887  0.27199345  0.09020418  1
  O  O307  1  0.09157986  0.27225128  0.42729942  1
  O  O308  1  0.09425803  0.26534242  0.76015547  1
  O  O309  1  0.08803678  0.77678110  0.08889642  1
  O  O310  1  0.08378094  0.77309857  0.41646745  1
  O  O311  1  0.08724309  0.77090447  0.75123196  1
  O  O312  1  0.41699044  0.26169938  0.08142517  1
  O  O313  1  0.41660947  0.26890561  0.41721938  1
  O  O314  1  0.41788483  0.27312590  0.75042765  1
  O  O315  1  0.41666328  0.77532071  0.08002280  1
  O  O316  1  0.40957002  0.76812493  0.40730274  1
  O  O317  1  0.41847181  0.76988220  0.74868137  1
  O  O318  1  0.76204243  0.25968947  0.09942724  1
  O  O319  1  0.76497339  0.26538201  0.43027893  1
  O  O320  1  0.75876453  0.26491756  0.76388403  1
  O  O321  1  0.74896636  0.76269066  0.08413450  1
  O  O322  1  0.75676006  0.76767513  0.42572945  1
  O  O323  1  0.74718789  0.76566710  0.74795976  1
  O  O324  1  0.24770311  0.00250784  0.24417668  1
  O  O325  1  0.24271286  0.02277005  0.57922560  1
  O  O326  1  0.24631866  0.01919249  0.90707422  1
  O  O327  1  0.24010557  0.51094436  0.23971393  1
  O  O328  1  0.25431588  0.49839253  0.58137890  1
  O  O329  1  0.24903622  0.51160482  0.92205506  1
  O  O330  1  0.58154385  0.02281001  0.24763583  1
  O  O331  1  0.58424063  0.02476754  0.58368016  1
  O  O332  1  0.58470916  0.01468084  0.92487572  1
  O  O333  1  0.57816690  0.51437036  0.24964040  1
  O  O334  1  0.58782463  0.51520624  0.58936795  1
  O  O335  1  0.58795847  0.51939963  0.92343498  1
  O  O336  1  0.90864343  0.02279950  0.24621811  1
  O  O337  1  0.91310802  0.02531499  0.57224529  1
  O  O338  1  0.91945751  0.00294011  0.92306844  1
  O  O339  1  0.91367174  0.52227807  0.23586833  1
  O  O340  1  0.91667408  0.50643182  0.58125732  1
  O  O341  1  0.91086430  0.52217110  0.91188794  1
  O  O342  1  0.06803082  0.23901488  0.26029679  1
  O  O343  1  0.07906641  0.22336279  0.59042983  1
  O  O344  1  0.08071285  0.23091030  0.92071025  1
  O  O345  1  0.07593458  0.72926682  0.25147043  1
  O  O346  1  0.08018174  0.74704360  0.58544715  1
  O  O347  1  0.07606411  0.73631027  0.92886127  1
  O  O348  1  0.41983875  0.23738005  0.24282416  1
  O  O349  1  0.41209657  0.22781471  0.58231702  1
  O  O350  1  0.40840763  0.23422384  0.91913494  1
  O  O351  1  0.41727215  0.73115381  0.23604388  1
  O  O352  1  0.42444439  0.74277494  0.57970608  1
  O  O353  1  0.41310382  0.73851588  0.92274319  1
  O  O354  1  0.74498777  0.22384671  0.26132743  1
  O  O355  1  0.74419957  0.22740508  0.59182297  1
  O  O356  1  0.74468745  0.23287218  0.93168825  1
  O  O357  1  0.75299436  0.74035575  0.24538017  1
  O  O358  1  0.74710401  0.74114811  0.59174691  1
  O  O359  1  0.75085952  0.72206264  0.91982472  1
