# generated using pymatgen
data_Ba17Sr5La8Pr42Mn72O216
_symmetry_space_group_name_H-M   'P 1'
_cell_length_a   16.67521198
_cell_length_b   15.70277260
_cell_length_c   16.81596814
_cell_angle_alpha   90.00360436
_cell_angle_beta   90.02447521
_cell_angle_gamma   90.00526750
_symmetry_Int_Tables_number   1
_chemical_formula_structural   Ba17Sr5La8Pr42Mn72O216
_chemical_formula_sum   'Ba17 Sr5 La8 Pr42 Mn72 O216'
_cell_volume   4403.21141881
_cell_formula_units_Z   1
loop_
 _symmetry_equiv_pos_site_id
 _symmetry_equiv_pos_as_xyz
  1  'x, y, z'
loop_
 _atom_site_type_symbol
 _atom_site_label
 _atom_site_symmetry_multiplicity
 _atom_site_fract_x
 _atom_site_fract_y
 _atom_site_fract_z
 _atom_site_occupancy
  Ba  Ba0  1  0.83184864  0.62596224  0.83405977  1
  Ba  Ba1  1  0.00189210  0.12672193  0.33290402  1
  Ba  Ba2  1  0.16675887  0.12565940  0.50326551  1
  Ba  Ba3  1  0.83239833  0.37376407  0.83170370  1
  Ba  Ba4  1  0.16877828  0.12474918  0.83458736  1
  Ba  Ba5  1  0.50111992  0.37353197  0.49827223  1
  Ba  Ba6  1  0.16424581  0.87358413  0.16697907  1
  Ba  Ba7  1  0.49827523  0.87534717  0.16454499  1
  Ba  Ba8  1  -0.00056384  0.62361274  0.33266334  1
  Ba  Ba9  1  0.66512878  0.62506534  0.99852725  1
  Ba  Ba10  1  0.16587939  0.62499179  0.50334714  1
  Ba  Ba11  1  -0.00179575  0.12367069  0.66584827  1
  Ba  Ba12  1  0.83517339  0.87514390  0.16633440  1
  Ba  Ba13  1  -0.00233699  0.62691872  0.66540817  1
  Ba  Ba14  1  0.50393081  0.12475236  0.50096317  1
  Ba  Ba15  1  0.33456522  0.62622774  0.66580940  1
  Ba  Ba16  1  0.66826839  0.37551996  0.33524677  1
  Sr  Sr17  1  0.49815006  0.37667302  0.83028858  1
  Sr  Sr18  1  -0.00113148  0.87550467  0.66498429  1
  Sr  Sr19  1  0.83458881  0.12258439  0.83446717  1
  Sr  Sr20  1  0.16732323  0.62587439  0.83343248  1
  Sr  Sr21  1  0.83159744  0.87500880  0.83200101  1
  La  La22  1  0.33558502  0.62315796  0.33180790  1
  La  La23  1  0.50278437  0.12704944  0.83211898  1
  La  La24  1  0.50496427  0.62270934  0.50131920  1
  La  La25  1  0.00154302  0.12088853  0.99418153  1
  La  La26  1  0.66656621  0.87512701  0.33838271  1
  La  La27  1  0.49939928  0.62299076  0.83431741  1
  La  La28  1  0.83488167  0.12429855  0.16842877  1
  La  La29  1  0.32680234  0.87656363  0.33577937  1
  Pr  Pr30  1  0.49595567  0.87343750  0.49506188  1
  Pr  Pr31  1  -0.00423235  0.87553183  -0.00134342  1
  Pr  Pr32  1  0.15704118  0.87269056  0.49959291  1
  Pr  Pr33  1  0.66746262  0.12801222  0.33358006  1
  Pr  Pr34  1  0.00680828  0.37491062  0.66842002  1
  Pr  Pr35  1  0.67148985  0.87284882  0.00370256  1
  Pr  Pr36  1  0.00338003  0.37547484  -0.00423838  1
  Pr  Pr37  1  0.00158712  0.63003009  0.99209870  1
  Pr  Pr38  1  0.83179039  0.12498674  0.50234489  1
  Pr  Pr39  1  0.67088016  0.12136480  0.99934833  1
  Pr  Pr40  1  0.15954748  0.87397794  0.83283639  1
  Pr  Pr41  1  0.66411458  0.62283867  0.33153607  1
  Pr  Pr42  1  0.32861314  0.37526642  0.00031215  1
  Pr  Pr43  1  0.00222285  0.37505784  0.33599137  1
  Pr  Pr44  1  0.83880061  0.87537652  0.49721183  1
  Pr  Pr45  1  0.83645848  0.37410201  0.49904441  1
  Pr  Pr46  1  0.16057145  0.37745189  0.16823743  1
  Pr  Pr47  1  0.67272722  0.12629087  0.66846280  1
  Pr  Pr48  1  0.50771807  0.12377214  0.17076563  1
  Pr  Pr49  1  0.16694426  0.37771810  0.50445269  1
  Pr  Pr50  1  0.82937591  0.62423285  0.50471578  1
  Pr  Pr51  1  0.50436425  0.62547186  0.16714921  1
  Pr  Pr52  1  0.49690863  0.87245168  0.83305267  1
  Pr  Pr53  1  0.16901009  0.62307442  0.17126258  1
  Pr  Pr54  1  0.32657880  0.87582438  0.66675036  1
  Pr  Pr55  1  0.33982334  0.12649864  0.33173736  1
  Pr  Pr56  1  0.00029937  0.87519957  0.33598341  1
  Pr  Pr57  1  0.66801816  0.62349934  0.67012430  1
  Pr  Pr58  1  0.16687457  0.37619869  0.83010793  1
  Pr  Pr59  1  0.66280018  0.37214813  0.67024120  1
  Pr  Pr60  1  0.82658303  0.62588062  0.16650867  1
  Pr  Pr61  1  0.32702583  0.87582300  0.00450963  1
  Pr  Pr62  1  0.66311932  0.87832468  0.67104415  1
  Pr  Pr63  1  0.32999313  0.37332217  0.33752947  1
  Pr  Pr64  1  0.33111353  0.37445476  0.66915895  1
  Pr  Pr65  1  0.34023785  0.12217267  0.99890795  1
  Pr  Pr66  1  0.17214414  0.12689003  0.17308860  1
  Pr  Pr67  1  0.33734076  0.12628030  0.66308279  1
  Pr  Pr68  1  0.83867078  0.37565469  0.16296731  1
  Pr  Pr69  1  0.67161809  0.37541358  0.00347457  1
  Pr  Pr70  1  0.49756138  0.37420516  0.16212662  1
  Pr  Pr71  1  0.33524882  0.62900488  0.99553864  1
  Mn  Mn72  1  0.00183303  0.00094335  0.16434787  1
  Mn  Mn73  1  -0.00130098  0.00030821  0.49958584  1
  Mn  Mn74  1  -0.00119781  -0.00105598  0.83186711  1
  Mn  Mn75  1  -0.00029705  0.50051470  0.16308308  1
  Mn  Mn76  1  -0.00260720  0.49799720  0.50025097  1
  Mn  Mn77  1  0.00131541  0.50042049  0.83302055  1
  Mn  Mn78  1  0.33352525  0.00132419  0.16578565  1
  Mn  Mn79  1  0.33345290  -0.00079259  0.50127727  1
  Mn  Mn80  1  0.33479934  -0.00167314  0.83388213  1
  Mn  Mn81  1  0.33421399  0.49890308  0.16533976  1
  Mn  Mn82  1  0.33452455  0.49928683  0.49956832  1
  Mn  Mn83  1  0.33303902  0.50076815  0.83530248  1
  Mn  Mn84  1  0.66755076  0.00020517  0.16703447  1
  Mn  Mn85  1  0.66732957  -0.00190279  0.50341278  1
  Mn  Mn86  1  0.66486788  0.00020334  0.83538319  1
  Mn  Mn87  1  0.66702747  0.49871737  0.16771013  1
  Mn  Mn88  1  0.66846441  0.50067313  0.50140850  1
  Mn  Mn89  1  0.66411133  0.49756741  0.83460608  1
  Mn  Mn90  1  0.00149827  0.25159048  0.16332962  1
  Mn  Mn91  1  -0.00128916  0.25184497  0.50017656  1
  Mn  Mn92  1  0.00004757  0.24951856  0.83348985  1
  Mn  Mn93  1  -0.00008672  0.74786894  0.16395680  1
  Mn  Mn94  1  -0.00283372  0.74988377  0.49908458  1
  Mn  Mn95  1  -0.00037308  0.75109681  0.83108762  1
  Mn  Mn96  1  0.33427242  0.25254720  0.16607981  1
  Mn  Mn97  1  0.33389231  0.25017151  0.50074194  1
  Mn  Mn98  1  0.33459484  0.24949421  0.83525920  1
  Mn  Mn99  1  0.33305403  0.74760955  0.16502738  1
  Mn  Mn100  1  0.33405152  0.75131463  0.49915017  1
  Mn  Mn101  1  0.33270831  0.75145363  0.83422532  1
  Mn  Mn102  1  0.66798544  0.25069876  0.16646601  1
  Mn  Mn103  1  0.66924019  0.24896718  0.50158611  1
  Mn  Mn104  1  0.66470654  0.24832195  0.83636951  1
  Mn  Mn105  1  0.66604577  0.75025817  0.16846587  1
  Mn  Mn106  1  0.66686348  0.75108155  0.50268407  1
  Mn  Mn107  1  0.66395241  0.75334638  0.83377649  1
  Mn  Mn108  1  0.16755290  0.25155269  0.00339743  1
  Mn  Mn109  1  0.16918195  0.25135389  0.33495044  1
  Mn  Mn110  1  0.16872511  0.24972669  0.66869985  1
  Mn  Mn111  1  0.16663432  0.74918326  -0.00033659  1
  Mn  Mn112  1  0.16714200  0.74856145  0.33278034  1
  Mn  Mn113  1  0.16602657  0.75206207  0.66686898  1
  Mn  Mn114  1  0.50010511  0.25078820  -0.00037760  1
  Mn  Mn115  1  0.50041169  0.24972058  0.33029830  1
  Mn  Mn116  1  0.49953614  0.25058800  0.66891430  1
  Mn  Mn117  1  0.49888116  0.75102412  -0.00163550  1
  Mn  Mn118  1  0.49867164  0.75053600  0.33276333  1
  Mn  Mn119  1  0.50108473  0.75155230  0.66459456  1
  Mn  Mn120  1  0.83466289  0.24952689  -0.00004310  1
  Mn  Mn121  1  0.83447774  0.25034463  0.33224124  1
  Mn  Mn122  1  0.83186470  0.25020942  0.66555167  1
  Mn  Mn123  1  0.83398900  0.75056808  -0.00032400  1
  Mn  Mn124  1  0.83231311  0.74893677  0.33328945  1
  Mn  Mn125  1  0.82999218  0.75266812  0.66586742  1
  Mn  Mn126  1  0.16733038  0.00112844  0.00162757  1
  Mn  Mn127  1  0.16792641  0.00109786  0.33447021  1
  Mn  Mn128  1  0.16734950  -0.00136225  0.66773773  1
  Mn  Mn129  1  0.16713182  0.50028413  0.00106285  1
  Mn  Mn130  1  0.16816486  0.49937789  0.33405823  1
  Mn  Mn131  1  0.16801087  0.50073197  0.66824382  1
  Mn  Mn132  1  0.50055347  0.00147195  -0.00119904  1
  Mn  Mn133  1  0.50063727  -0.00071727  0.33276694  1
  Mn  Mn134  1  0.49934948  -0.00236780  0.66723598  1
  Mn  Mn135  1  0.49828699  0.49655673  -0.00128786  1
  Mn  Mn136  1  0.49836052  0.50007948  0.33104352  1
  Mn  Mn137  1  0.50061245  0.49979281  0.66694946  1
  Mn  Mn138  1  0.83414648  0.00037399  -0.00084783  1
  Mn  Mn139  1  0.83290468  0.00023600  0.33315924  1
  Mn  Mn140  1  0.83133224  -0.00161622  0.66694109  1
  Mn  Mn141  1  0.83528289  0.49828667  0.00040916  1
  Mn  Mn142  1  0.83366281  0.50084046  0.33274500  1
  Mn  Mn143  1  0.83060041  0.49862802  0.66465710  1
  O  O144  1  0.16275215  0.13020455  0.02922233  1
  O  O145  1  0.17585929  0.12756697  0.34645470  1
  O  O146  1  0.17360073  0.12428896  0.67775442  1
  O  O147  1  0.16419990  0.62151830  0.02811061  1
  O  O148  1  0.17453405  0.62151091  0.34653656  1
  O  O149  1  0.16630775  0.62603226  0.68073207  1
  O  O150  1  0.49399993  0.12777943  0.02882806  1
  O  O151  1  0.49923429  0.12385631  0.34389179  1
  O  O152  1  0.49245208  0.12170691  0.68944639  1
  O  O153  1  0.49233694  0.61937261  0.02455874  1
  O  O154  1  0.49953590  0.62820172  0.35600750  1
  O  O155  1  0.50583759  0.62735103  0.69054723  1
  O  O156  1  0.83688225  0.12687772  0.02306512  1
  O  O157  1  0.82854195  0.12312992  0.35788715  1
  O  O158  1  0.82785165  0.12397016  0.68496692  1
  O  O159  1  0.84446901  0.62188234  0.02039863  1
  O  O160  1  0.82744469  0.62517984  0.36025290  1
  O  O161  1  0.82868825  0.62639712  0.67730795  1
  O  O162  1  0.17007074  0.37556510  0.31105127  1
  O  O163  1  0.17309421  0.37377609  0.65195128  1
  O  O164  1  0.17093375  0.37622437  0.97339762  1
  O  O165  1  0.16646493  0.87523302  0.32246939  1
  O  O166  1  0.17440868  0.87640601  0.64632309  1
  O  O167  1  0.17521544  0.87389457  0.97766152  1
  O  O168  1  0.49320793  0.37344680  0.30731271  1
  O  O169  1  0.50342924  0.37625008  0.65410470  1
  O  O170  1  0.49657067  0.37236616  0.97807133  1
  O  O171  1  0.50335977  0.87501541  0.32068709  1
  O  O172  1  0.50707986  0.87429395  0.63782731  1
  O  O173  1  0.49906280  0.88046999  0.97695414  1
  O  O174  1  0.83766011  0.37659593  0.30688095  1
  O  O175  1  0.81843847  0.37420692  0.64272060  1
  O  O176  1  0.82260081  0.37246595  0.98990666  1
  O  O177  1  0.83081933  0.87565808  0.32056694  1
  O  O178  1  0.81831702  0.87589960  0.64156004  1
  O  O179  1  0.82982328  0.87795137  0.98570638  1
  O  O180  1  -0.00147502  0.37590615  0.19291676  1
  O  O181  1  -0.01108286  0.37447092  0.52167603  1
  O  O182  1  0.00851526  0.37479677  0.85186092  1
  O  O183  1  -0.00017084  0.87048917  0.19247923  1
  O  O184  1  -0.00436601  0.87557663  0.50986789  1
  O  O185  1  0.00566954  0.87467767  0.85466538  1
  O  O186  1  0.34471351  0.37592157  0.19541272  1
  O  O187  1  0.33288692  0.37385937  0.52152041  1
  O  O188  1  0.33067378  0.37761480  0.85817293  1
  O  O189  1  0.33422706  0.87064162  0.19017966  1
  O  O190  1  0.34437270  0.87547509  0.52064110  1
  O  O191  1  0.34196685  0.87593889  0.86336970  1
  O  O192  1  0.67285873  0.37455016  0.17907210  1
  O  O193  1  0.67380663  0.37385564  0.52465689  1
  O  O194  1  0.66123022  0.36803924  0.85919313  1
  O  O195  1  0.66738569  0.87337040  0.19133707  1
  O  O196  1  0.66251120  0.87184007  0.52862052  1
  O  O197  1  0.65737682  0.87968530  0.86097905  1
  O  O198  1  0.00364490  0.13208838  0.13975550  1
  O  O199  1  -0.00629716  0.12634262  0.49021086  1
  O  O200  1  -0.00267549  0.12530671  0.82523379  1
  O  O201  1  0.00680555  0.62105379  0.13725448  1
  O  O202  1  -0.00793541  0.62340443  0.49106640  1
  O  O203  1  0.00113234  0.62536375  0.82457892  1
  O  O204  1  0.32251095  0.13251324  0.14130776  1
  O  O205  1  0.33213915  0.12410780  0.47788274  1
  O  O206  1  0.33815023  0.11945136  0.80622360  1
  O  O207  1  0.32503272  0.62011371  0.13846045  1
  O  O208  1  0.33725169  0.62643180  0.47736576  1
  O  O209  1  0.33620536  0.62590913  0.82105469  1
  O  O210  1  0.66241140  0.12784274  0.14359200  1
  O  O211  1  0.67456364  0.12140147  0.47681265  1
  O  O212  1  0.66185651  0.12298826  0.81137624  1
  O  O213  1  0.66302263  0.62396295  0.15544994  1
  O  O214  1  0.67076459  0.63212031  0.47415407  1
  O  O215  1  0.65834955  0.62948911  0.81452009  1
  O  O216  1  0.09147769  0.01815650  0.24191298  1
  O  O217  1  0.08469962  -0.00102488  0.57833955  1
  O  O218  1  0.08532956  0.00909696  0.91939476  1
  O  O219  1  0.08910273  0.51075615  0.24279359  1
  O  O220  1  0.08014026  0.49585659  0.58527568  1
  O  O221  1  0.08500057  0.51621502  0.92287297  1
  O  O222  1  0.41903759  0.02300587  0.24123762  1
  O  O223  1  0.41764186  0.01304774  0.58426862  1
  O  O224  1  0.42343500  0.02394625  0.91051891  1
  O  O225  1  0.41879916  0.52707299  0.23989963  1
  O  O226  1  0.42460176  0.51546947  0.57508083  1
  O  O227  1  0.41447803  0.51954942  0.91888153  1
  O  O228  1  0.74997508  0.02334086  0.25218704  1
  O  O229  1  0.75008152  0.02270660  0.58290326  1
  O  O230  1  0.74878570  0.01793375  0.91909817  1
  O  O231  1  0.74714573  0.52257479  0.25664052  1
  O  O232  1  0.74482890  0.52436193  0.58542852  1
  O  O233  1  0.74580253  0.50417119  0.92208754  1
  O  O234  1  0.26124858  0.23519914  0.25637733  1
  O  O235  1  0.25892006  0.23977997  0.59419989  1
  O  O236  1  0.25896777  0.23461562  0.93159391  1
  O  O237  1  0.25495960  0.72871041  0.25099469  1
  O  O238  1  0.25551782  0.74838711  0.58500106  1
  O  O239  1  0.25396153  0.73267665  0.92198258  1
  O  O240  1  0.58548806  0.23133732  0.24765717  1
  O  O241  1  0.59157072  0.23674392  0.59553548  1
  O  O242  1  0.58463980  0.22357467  0.92381741  1
  O  O243  1  0.58352860  0.72966999  0.25368679  1
  O  O244  1  0.58896748  0.72411592  0.58421620  1
  O  O245  1  0.57447096  0.73791039  0.90863553  1
  O  O246  1  0.91125254  0.23527168  0.23928827  1
  O  O247  1  0.90598803  0.23950143  0.57263734  1
  O  O248  1  0.91725563  0.23854677  0.91986586  1
  O  O249  1  0.91171447  0.72780132  0.23983778  1
  O  O250  1  0.90533418  0.74471851  0.57227657  1
  O  O251  1  0.92283887  0.74247423  0.92019785  1
  O  O252  1  0.08384066  0.47307889  0.08152907  1
  O  O253  1  0.08306718  0.47633726  0.41921564  1
  O  O254  1  0.08680649  0.47947407  0.75158402  1
  O  O255  1  0.07706592  0.98325904  0.07469842  1
  O  O256  1  0.08016518  0.98213339  0.41256324  1
  O  O257  1  0.08455792  0.98209790  0.75090401  1
  O  O258  1  0.41511510  0.47427689  0.08177790  1
  O  O259  1  0.40861787  0.48666020  0.40378013  1
  O  O260  1  0.41414964  0.48438489  0.74642241  1
  O  O261  1  0.40837029  0.98818577  0.07122708  1
  O  O262  1  0.41105225  0.98291057  0.41086428  1
  O  O263  1  0.41363127  0.97236869  0.74603905  1
  O  O264  1  0.75680125  0.48786067  0.09075837  1
  O  O265  1  0.75989611  0.48600188  0.42677754  1
  O  O266  1  0.74345615  0.48779153  0.74492498  1
  O  O267  1  0.74604390  0.99095007  0.07876306  1
  O  O268  1  0.74822779  0.97697812  0.42015047  1
  O  O269  1  0.73998652  0.98404024  0.74701890  1
  O  O270  1  0.24646013  0.27935202  0.09252481  1
  O  O271  1  0.24638790  0.27413113  0.42259523  1
  O  O272  1  0.24911792  0.27055377  0.75733867  1
  O  O273  1  0.25096476  0.76203465  0.08152579  1
  O  O274  1  0.24961548  0.77144174  0.42060509  1
  O  O275  1  0.24896125  0.77437337  0.75721796  1
  O  O276  1  0.58099683  0.27234579  0.08384591  1
  O  O277  1  0.58937937  0.25442946  0.41618051  1
  O  O278  1  0.57803315  0.26121843  0.75600756  1
  O  O279  1  0.58571511  0.76524577  0.07802220  1
  O  O280  1  0.58312784  0.76980325  0.42469867  1
  O  O281  1  0.58049302  0.77604491  0.74981116  1
  O  O282  1  0.91983334  0.27471475  0.08032430  1
  O  O283  1  0.92059881  0.27205240  0.40894134  1
  O  O284  1  0.92004391  0.26748618  0.73815479  1
  O  O285  1  0.92191226  0.76388866  0.07786760  1
  O  O286  1  0.91744394  0.76976686  0.41044219  1
  O  O287  1  0.91330901  0.76730643  0.74669557  1
  O  O288  1  0.24834015  0.47311463  0.08833564  1
  O  O289  1  0.24934236  0.47766276  0.41890246  1
  O  O290  1  0.25001850  0.47976280  0.75482585  1
  O  O291  1  0.24933536  0.98801933  0.08589576  1
  O  O292  1  0.24670362  0.97692967  0.42582481  1
  O  O293  1  0.24898705  0.97353686  0.75971809  1
  O  O294  1  0.58256094  0.47696001  0.08084538  1
  O  O295  1  0.58653223  0.49741764  0.41851495  1
  O  O296  1  0.58497062  0.48383057  0.74695530  1
  O  O297  1  0.58549845  0.98772643  0.07880151  1
  O  O298  1  0.58369051  0.97909561  0.42366525  1
  O  O299  1  0.57467369  0.97917592  0.75698028  1
  O  O300  1  0.92048401  0.47320341  0.08001242  1
  O  O301  1  0.92127918  0.47765350  0.40774294  1
  O  O302  1  0.92018910  0.48214229  0.73702156  1
  O  O303  1  0.92038927  0.98899536  0.07735471  1
  O  O304  1  0.91672648  0.98083825  0.41215766  1
  O  O305  1  0.91174811  0.98325560  0.74735649  1
  O  O306  1  0.08369809  0.28046758  0.08292688  1
  O  O307  1  0.08253514  0.27366210  0.41708318  1
  O  O308  1  0.08642647  0.26959570  0.75081110  1
  O  O309  1  0.07662419  0.76642845  0.07227180  1
  O  O310  1  0.07991914  0.76741022  0.41409533  1
  O  O311  1  0.08423296  0.76922050  0.75177157  1
  O  O312  1  0.41185158  0.27344447  0.07881137  1
  O  O313  1  0.40716516  0.26081659  0.40372005  1
  O  O314  1  0.41082076  0.26650841  0.74436458  1
  O  O315  1  0.40896002  0.76280859  0.07494635  1
  O  O316  1  0.41105515  0.77031583  0.40911810  1
  O  O317  1  0.41408798  0.77315552  0.74673375  1
  O  O318  1  0.75203379  0.26364607  0.08689684  1
  O  O319  1  0.75963099  0.26320041  0.42366045  1
  O  O320  1  0.74057267  0.26207943  0.74404726  1
  O  O321  1  0.74940850  0.75835637  0.08468255  1
  O  O322  1  0.74684657  0.77505748  0.42307951  1
  O  O323  1  0.74134659  0.76776155  0.74665017  1
  O  O324  1  0.25815053  0.01759314  0.25824508  1
  O  O325  1  0.26141121  0.01064015  0.59505635  1
  O  O326  1  0.26073816  0.01608025  0.92741354  1
  O  O327  1  0.25592707  0.51588600  0.24991915  1
  O  O328  1  0.25155348  0.50262165  0.58545434  1
  O  O329  1  0.25310165  0.51905716  0.92572615  1
  O  O330  1  0.58844107  0.01974977  0.25391875  1
  O  O331  1  0.59273042  0.01631197  0.59677047  1
  O  O332  1  0.58445221  0.02683643  0.92041328  1
  O  O333  1  0.58006284  0.51747993  0.24857430  1
  O  O334  1  0.58626236  0.52127424  0.58559930  1
  O  O335  1  0.57389208  0.51336012  0.91178563  1
  O  O336  1  0.91516148  0.01816736  0.24366476  1
  O  O337  1  0.90828510  0.00755982  0.57445559  1
  O  O338  1  0.91890947  0.01105444  0.91929369  1
  O  O339  1  0.90736007  0.51753580  0.23674021  1
  O  O340  1  0.90297075  0.50784565  0.57041812  1
  O  O341  1  0.92190636  0.50696859  0.92139527  1
  O  O342  1  0.09296667  0.23987136  0.24173258  1
  O  O343  1  0.08340110  0.25376349  0.58433477  1
  O  O344  1  0.08202836  0.23823446  0.92612700  1
  O  O345  1  0.08791364  0.73024564  0.24082094  1
  O  O346  1  0.08228976  0.75137015  0.57952460  1
  O  O347  1  0.08778786  0.73554523  0.91589372  1
  O  O348  1  0.42170306  0.22590310  0.23760944  1
  O  O349  1  0.41686577  0.23594233  0.58522330  1
  O  O350  1  0.41999599  0.22609192  0.91442017  1
  O  O351  1  0.41757729  0.72321493  0.24158571  1
  O  O352  1  0.42822821  0.73706698  0.57094189  1
  O  O353  1  0.41809796  0.73035590  0.91350209  1
  O  O354  1  0.74915772  0.22667123  0.25308452  1
  O  O355  1  0.74924399  0.22482976  0.58327840  1
  O  O356  1  0.74713555  0.22897009  0.92203461  1
  O  O357  1  0.74716982  0.72790641  0.25567119  1
  O  O358  1  0.74576556  0.72717876  0.58261512  1
  O  O359  1  0.74622702  0.74813781  0.91815801  1
