# generated using pymatgen
data_Ba17Sr5La8Pr42Mn72O216
_symmetry_space_group_name_H-M   'P 1'
_cell_length_a   16.67472538
_cell_length_b   15.69889916
_cell_length_c   16.81813908
_cell_angle_alpha   90.00132498
_cell_angle_beta   90.00142782
_cell_angle_gamma   89.99254089
_symmetry_Int_Tables_number   1
_chemical_formula_structural   Ba17Sr5La8Pr42Mn72O216
_chemical_formula_sum   'Ba17 Sr5 La8 Pr42 Mn72 O216'
_cell_volume   4402.56549505
_cell_formula_units_Z   1
loop_
 _symmetry_equiv_pos_site_id
 _symmetry_equiv_pos_as_xyz
  1  'x, y, z'
loop_
 _atom_site_type_symbol
 _atom_site_label
 _atom_site_symmetry_multiplicity
 _atom_site_fract_x
 _atom_site_fract_y
 _atom_site_fract_z
 _atom_site_occupancy
  Ba  Ba0  1  0.33415277  0.12393939  0.66330248  1
  Ba  Ba1  1  0.66994323  0.87499414  0.33649806  1
  Ba  Ba2  1  0.00412501  0.87498286  0.66469079  1
  Ba  Ba3  1  0.67008157  0.87411824  0.67020867  1
  Ba  Ba4  1  0.00243699  0.37541951  0.66458806  1
  Ba  Ba5  1  0.16863407  0.37588693  0.49664948  1
  Ba  Ba6  1  0.49812913  0.12448815  0.83606714  1
  Ba  Ba7  1  -0.00137423  0.12491737  0.33089248  1
  Ba  Ba8  1  0.66171305  0.12538525  0.33711326  1
  Ba  Ba9  1  0.66392294  0.62432243  0.67113678  1
  Ba  Ba10  1  0.16586010  0.37579756  0.16264629  1
  Ba  Ba11  1  0.50012577  0.62531359  0.83956025  1
  Ba  Ba12  1  0.83526312  0.37292741  0.83318227  1
  Ba  Ba13  1  -0.00149891  0.62525770  0.66475815  1
  Ba  Ba14  1  0.67122059  0.87362451  0.00338987  1
  Ba  Ba15  1  0.66670998  0.37441459  0.33471943  1
  Ba  Ba16  1  0.33286232  0.37438420  0.00294165  1
  Sr  Sr17  1  0.66384588  0.62335299  0.99750255  1
  Sr  Sr18  1  -0.00519228  0.12627806  0.66142502  1
  Sr  Sr19  1  0.83400839  0.12473876  0.82968297  1
  Sr  Sr20  1  0.17073750  0.87643013  0.16283655  1
  Sr  Sr21  1  0.50122209  0.12502447  0.50572596  1
  La  La22  1  0.82630922  0.12352156  0.16954356  1
  La  La23  1  0.15939120  0.62577895  0.49836308  1
  La  La24  1  0.50781721  0.87587623  0.16998974  1
  La  La25  1  0.49863724  0.62547024  0.50840358  1
  La  La26  1  0.00231699  0.37374217  0.33404543  1
  La  La27  1  0.66867838  0.37412103  0.66929128  1
  La  La28  1  0.16173188  0.12375894  0.82683138  1
  La  La29  1  0.82744675  0.62454935  0.50186199  1
  Pr  Pr30  1  0.50295249  0.37368835  0.16700390  1
  Pr  Pr31  1  0.00016495  0.37451685  -0.00351514  1
  Pr  Pr32  1  0.82389448  0.62535500  0.16645889  1
  Pr  Pr33  1  0.34287422  0.87623949  0.66839110  1
  Pr  Pr34  1  0.15975948  0.12635290  0.16453093  1
  Pr  Pr35  1  0.49350297  0.12357753  0.17417399  1
  Pr  Pr36  1  0.34140549  0.87241726  0.33529591  1
  Pr  Pr37  1  0.82648663  0.12463509  0.50260699  1
  Pr  Pr38  1  0.49473561  0.62685727  0.16871805  1
  Pr  Pr39  1  0.66554010  0.12737732  0.66516076  1
  Pr  Pr40  1  0.00540540  0.87655056  -0.00184899  1
  Pr  Pr41  1  0.17006846  0.37535442  0.82444989  1
  Pr  Pr42  1  0.33656438  0.37692215  0.33570770  1
  Pr  Pr43  1  0.15677959  0.12608696  0.50305560  1
  Pr  Pr44  1  0.66229594  0.12590498  1.00019246  1
  Pr  Pr45  1  0.50911995  0.87788380  0.50471522  1
  Pr  Pr46  1  -0.00221316  0.12640104  0.99585630  1
  Pr  Pr47  1  0.34352365  0.87609688  0.00382398  1
  Pr  Pr48  1  0.83144054  0.62752565  0.83313988  1
  Pr  Pr49  1  0.83885496  0.87557869  0.82924452  1
  Pr  Pr50  1  0.32732552  0.12392744  0.33458374  1
  Pr  Pr51  1  0.32098460  0.12414054  0.99623143  1
  Pr  Pr52  1  0.65728599  0.62416024  0.33349317  1
  Pr  Pr53  1  0.50759509  0.37571958  0.83598909  1
  Pr  Pr54  1  0.83980659  0.87841376  0.16394278  1
  Pr  Pr55  1  0.83094298  0.37030085  0.16183560  1
  Pr  Pr56  1  0.51227185  0.87517988  0.83424803  1
  Pr  Pr57  1  0.33845995  0.37380809  0.67240863  1
  Pr  Pr58  1  0.84134703  0.87322676  0.49896976  1
  Pr  Pr59  1  0.83766593  0.37645512  0.49859047  1
  Pr  Pr60  1  0.32345982  0.62585149  0.33167407  1
  Pr  Pr61  1  0.66541667  0.37633891  0.00421520  1
  Pr  Pr62  1  0.50139832  0.37292275  0.50375449  1
  Pr  Pr63  1  0.32802014  0.62585973  0.66531485  1
  Pr  Pr64  1  0.32425516  0.62559741  0.99638961  1
  Pr  Pr65  1  0.17292028  0.87627453  0.49510001  1
  Pr  Pr66  1  0.17526151  0.87472526  0.82646517  1
  Pr  Pr67  1  0.16060838  0.62638676  0.83066623  1
  Pr  Pr68  1  0.00766358  0.87627353  0.33433360  1
  Pr  Pr69  1  -0.00142077  0.62290290  0.99343566  1
  Pr  Pr70  1  0.15863196  0.62510844  0.16303527  1
  Pr  Pr71  1  -0.00421452  0.62489988  0.32790061  1
  Mn  Mn72  1  0.00103511  -0.00152168  0.16366258  1
  Mn  Mn73  1  -0.00064877  -0.00058360  0.49779110  1
  Mn  Mn74  1  0.00063428  0.00104328  0.83199370  1
  Mn  Mn75  1  -0.00445230  0.50127650  0.16311409  1
  Mn  Mn76  1  -0.00142005  0.50049098  0.49449622  1
  Mn  Mn77  1  0.00161330  0.49980015  0.83252499  1
  Mn  Mn78  1  0.33233720  -0.00107703  0.16693060  1
  Mn  Mn79  1  0.33438048  -0.00178775  0.49860205  1
  Mn  Mn80  1  0.33284938  -0.00082860  0.83568277  1
  Mn  Mn81  1  0.33296774  0.50289189  0.16742578  1
  Mn  Mn82  1  0.33434051  0.50143243  0.50044571  1
  Mn  Mn83  1  0.33332147  0.50098978  0.83377346  1
  Mn  Mn84  1  0.66654418  -0.00067718  0.16853569  1
  Mn  Mn85  1  0.66771511  -0.00045463  0.50372596  1
  Mn  Mn86  1  0.67026352  0.00258386  0.83655726  1
  Mn  Mn87  1  0.66476689  0.50235416  0.16755961  1
  Mn  Mn88  1  0.66605437  0.49950558  0.50043610  1
  Mn  Mn89  1  0.66919873  0.49897555  0.83698662  1
  Mn  Mn90  1  -0.00252614  0.25140998  0.16346301  1
  Mn  Mn91  1  -0.00163351  0.25018954  0.49708503  1
  Mn  Mn92  1  0.00186371  0.24761689  0.83045515  1
  Mn  Mn93  1  -0.00122890  0.75056024  0.16313600  1
  Mn  Mn94  1  0.00085216  0.75042265  0.49454641  1
  Mn  Mn95  1  0.00058480  0.75072663  0.83358999  1
  Mn  Mn96  1  0.33239829  0.24710122  0.16791300  1
  Mn  Mn97  1  0.33432299  0.25038258  0.49894603  1
  Mn  Mn98  1  0.33229331  0.24929292  0.83507294  1
  Mn  Mn99  1  0.33203646  0.75138421  0.16591448  1
  Mn  Mn100  1  0.33436223  0.75001242  0.50014286  1
  Mn  Mn101  1  0.33357831  0.75141629  0.83491694  1
  Mn  Mn102  1  0.66425982  0.24959916  0.16721038  1
  Mn  Mn103  1  0.66698632  0.25107024  0.50292861  1
  Mn  Mn104  1  0.66808603  0.24805256  0.83571313  1
  Mn  Mn105  1  0.66683461  0.74780649  0.16916335  1
  Mn  Mn106  1  0.66757114  0.74974291  0.50081397  1
  Mn  Mn107  1  0.66949446  0.74959599  0.83913193  1
  Mn  Mn108  1  0.16346260  0.24858777  -0.00386349  1
  Mn  Mn109  1  0.16811018  0.24855568  0.33048740  1
  Mn  Mn110  1  0.16846510  0.24940489  0.66350433  1
  Mn  Mn111  1  0.16597294  0.75297855  -0.00258485  1
  Mn  Mn112  1  0.16711921  0.75090425  0.32840477  1
  Mn  Mn113  1  0.17003751  0.75097856  0.66299409  1
  Mn  Mn114  1  0.49852728  0.24873878  0.00448596  1
  Mn  Mn115  1  0.49562911  0.25000537  0.33652131  1
  Mn  Mn116  1  0.50077630  0.25175521  0.66923898  1
  Mn  Mn117  1  0.49945069  0.75081556  0.00435027  1
  Mn  Mn118  1  0.49820113  0.74818037  0.33909927  1
  Mn  Mn119  1  0.49855834  0.74948699  0.67129861  1
  Mn  Mn120  1  0.83290190  0.24855343  -0.00020054  1
  Mn  Mn121  1  0.83255501  0.25074263  0.33167129  1
  Mn  Mn122  1  0.83337470  0.24902828  0.66523008  1
  Mn  Mn123  1  0.83657652  0.74995182  0.00112575  1
  Mn  Mn124  1  0.83504102  0.74804846  0.33159898  1
  Mn  Mn125  1  0.83407564  0.74963201  0.66589531  1
  Mn  Mn126  1  0.16536323  -0.00246759  -0.00280514  1
  Mn  Mn127  1  0.16920412  -0.00097876  0.32938395  1
  Mn  Mn128  1  0.16813851  -0.00137729  0.66251153  1
  Mn  Mn129  1  0.16458548  0.50156553  -0.00384577  1
  Mn  Mn130  1  0.16598556  0.50191377  0.32908816  1
  Mn  Mn131  1  0.16974788  0.50181130  0.66322639  1
  Mn  Mn132  1  0.50004351  0.00100363  0.00505844  1
  Mn  Mn133  1  0.49691242  0.00008618  0.33820612  1
  Mn  Mn134  1  0.50192691  -0.00054493  0.66969333  1
  Mn  Mn135  1  0.49827835  0.49959397  0.00408484  1
  Mn  Mn136  1  0.49643595  0.50154536  0.33729514  1
  Mn  Mn137  1  0.49807777  0.50013204  0.67013108  1
  Mn  Mn138  1  0.83617487  0.00173293  -0.00135928  1
  Mn  Mn139  1  0.83438494  -0.00086136  0.33280084  1
  Mn  Mn140  1  0.83409240  0.00058970  0.66687405  1
  Mn  Mn141  1  0.83351156  0.49912150  0.00145077  1
  Mn  Mn142  1  0.83303050  0.50170199  0.33113219  1
  Mn  Mn143  1  0.83205239  0.50020259  0.66600500  1
  O  O144  1  0.16609241  0.12019725  0.02107467  1
  O  O145  1  0.17399137  0.12031783  0.35815549  1
  O  O146  1  0.16497896  0.12295731  0.68139427  1
  O  O147  1  0.16494540  0.63156258  0.02019127  1
  O  O148  1  0.16730068  0.62792014  0.35380432  1
  O  O149  1  0.17388770  0.62881948  0.68652973  1
  O  O150  1  0.50686979  0.12483253  0.02935108  1
  O  O151  1  0.48831534  0.12277613  0.35450222  1
  O  O152  1  0.50674610  0.12761415  0.67729608  1
  O  O153  1  0.49542420  0.62683141  0.02375417  1
  O  O154  1  0.49996596  0.62460439  0.36453830  1
  O  O155  1  0.48880363  0.62519023  0.68201723  1
  O  O156  1  0.84750940  0.12577797  0.02683879  1
  O  O157  1  0.83396136  0.12218525  0.35513789  1
  O  O158  1  0.83314077  0.12466326  0.67857795  1
  O  O159  1  0.84854993  0.62301162  0.02463277  1
  O  O160  1  0.84377468  0.62490308  0.35862871  1
  O  O161  1  0.83355499  0.62586651  0.68507992  1
  O  O162  1  0.16984615  0.37808715  0.31913238  1
  O  O163  1  0.17707456  0.37611708  0.65563792  1
  O  O164  1  0.15731740  0.37349637  0.97270814  1
  O  O165  1  0.16731989  0.87363767  0.31058902  1
  O  O166  1  0.17547255  0.87254954  0.64031701  1
  O  O167  1  0.15985970  0.87481712  0.96901294  1
  O  O168  1  0.48972523  0.37966755  0.30898345  1
  O  O169  1  0.49585932  0.37729260  0.64827241  1
  O  O170  1  0.50039836  0.37195572  0.98143926  1
  O  O171  1  0.49387290  0.87177426  0.31265687  1
  O  O172  1  0.49628854  0.87199719  0.65051606  1
  O  O173  1  0.49288422  0.87704801  0.97922267  1
  O  O174  1  0.83641936  0.38136155  0.30476818  1
  O  O175  1  0.82621413  0.37414777  0.64484682  1
  O  O176  1  0.81849241  0.37302005  0.98925346  1
  O  O177  1  0.83846923  0.87145679  0.30775179  1
  O  O178  1  0.83400370  0.87480620  0.64556380  1
  O  O179  1  0.83876002  0.87734030  0.97320604  1
  O  O180  1  -0.00583601  0.38114666  0.19136829  1
  O  O181  1  -0.00549559  0.37671239  0.50575074  1
  O  O182  1  0.01298976  0.37390280  0.85166615  1
  O  O183  1  -0.00619776  0.87286387  0.19175862  1
  O  O184  1  -0.00485444  0.87394543  0.50729023  1
  O  O185  1  -0.00518567  0.87545567  0.85535844  1
  O  O186  1  0.33485013  0.37459722  0.19131153  1
  O  O187  1  0.33354293  0.38092534  0.52601032  1
  O  O188  1  0.32075059  0.37557650  0.84668282  1
  O  O189  1  0.32651961  0.87451093  0.19270513  1
  O  O190  1  0.31950070  0.87165828  0.52365685  1
  O  O191  1  0.32316845  0.87494869  0.86125302  1
  O  O192  1  0.66929326  0.37702160  0.17880568  1
  O  O193  1  0.66821172  0.37589235  0.52188190  1
  O  O194  1  0.66548450  0.37166968  0.85915121  1
  O  O195  1  0.66867117  0.87051476  0.18034462  1
  O  O196  1  0.66473882  0.87475417  0.51218660  1
  O  O197  1  0.67058439  0.87693812  0.84697942  1
  O  O198  1  0.00488066  0.12062595  0.14074071  1
  O  O199  1  0.00065295  0.12306161  0.48805575  1
  O  O200  1  0.00563227  0.12336841  0.81163862  1
  O  O201  1  0.00023320  0.62740945  0.13611373  1
  O  O202  1  0.00073419  0.62683399  0.47306765  1
  O  O203  1  0.00041042  0.62553878  0.82299668  1
  O  O204  1  0.34442935  0.12013194  0.13983935  1
  O  O205  1  0.34196608  0.12033699  0.47731579  1
  O  O206  1  0.32909544  0.12250621  0.82177717  1
  O  O207  1  0.34396835  0.63046369  0.14009909  1
  O  O208  1  0.34795334  0.62708153  0.47476627  1
  O  O209  1  0.33210631  0.62827446  0.81003672  1
  O  O210  1  0.66238820  0.12632937  0.14676405  1
  O  O211  1  0.66965604  0.12580201  0.49356003  1
  O  O212  1  0.66745484  0.12692020  0.81075597  1
  O  O213  1  0.66521177  0.62457474  0.14757777  1
  O  O214  1  0.66542059  0.62379412  0.47857289  1
  O  O215  1  0.67247500  0.62373622  0.82830635  1
  O  O216  1  0.08453972  0.01240915  0.24612601  1
  O  O217  1  0.08055559  0.01228058  0.58167776  1
  O  O218  1  0.07641881  0.01903176  0.92250795  1
  O  O219  1  0.07879132  0.52442797  0.24243286  1
  O  O220  1  0.08423407  0.51410616  0.57491160  1
  O  O221  1  0.08449493  0.52358622  0.91525168  1
  O  O222  1  0.40653771  0.01439755  0.26002218  1
  O  O223  1  0.41389629  -0.00154304  0.58575048  1
  O  O224  1  0.40505731  0.01374045  0.93423806  1
  O  O225  1  0.40969092  0.52571152  0.26238654  1
  O  O226  1  0.40732232  0.51815578  0.59143776  1
  O  O227  1  0.40716303  0.51507253  0.92738756  1
  O  O228  1  0.74889428  0.01378656  0.25215085  1
  O  O229  1  0.74516371  0.02006795  0.59206428  1
  O  O230  1  0.74760343  0.02509884  0.92680638  1
  O  O231  1  0.74532900  0.52637695  0.25509370  1
  O  O232  1  0.74816808  0.51345351  0.58029186  1
  O  O233  1  0.75900976  0.51996119  0.91658817  1
  O  O234  1  0.24625640  0.22209499  0.24320033  1
  O  O235  1  0.24339003  0.23103729  0.57011944  1
  O  O236  1  0.24239771  0.22958982  0.91211059  1
  O  O237  1  0.24263604  0.72430720  0.23970964  1
  O  O238  1  0.24714890  0.72325506  0.57110681  1
  O  O239  1  0.24101176  0.72863981  0.90667410  1
  O  O240  1  0.57013760  0.23902115  0.24365577  1
  O  O241  1  0.58976964  0.24373701  0.59269195  1
  O  O242  1  0.58621655  0.23580575  0.92421017  1
  O  O243  1  0.57532362  0.72632693  0.25370633  1
  O  O244  1  0.57097081  0.73822484  0.57942247  1
  O  O245  1  0.58064509  0.74584299  0.92094016  1
  O  O246  1  0.90860820  0.23639579  0.23884531  1
  O  O247  1  0.90696317  0.23968927  0.57147233  1
  O  O248  1  0.92212474  0.24012916  0.92108001  1
  O  O249  1  0.90803236  0.72612260  0.23965872  1
  O  O250  1  0.91027103  0.73851668  0.56731346  1
  O  O251  1  0.91333262  0.72947042  0.91378944  1
  O  O252  1  0.07234538  0.48799961  0.07411491  1
  O  O253  1  0.07846615  0.49256768  0.40564235  1
  O  O254  1  0.09524581  0.49120002  0.75597612  1
  O  O255  1  0.08685441  0.97829086  0.08190033  1
  O  O256  1  0.09156504  0.98041152  0.41718975  1
  O  O257  1  0.09524479  0.98387442  0.76062583  1
  O  O258  1  0.42550390  0.48551388  0.09955506  1
  O  O259  1  0.42187144  0.47511757  0.42634821  1
  O  O260  1  0.42174879  0.47542900  0.75996743  1
  O  O261  1  0.42248727  0.97558746  0.09638523  1
  O  O262  1  0.41931332  0.96929966  0.42309828  1
  O  O263  1  0.42063452  0.97676681  0.76068045  1
  O  O264  1  0.75137398  0.48841373  0.08589777  1
  O  O265  1  0.75869942  0.48811870  0.42047170  1
  O  O266  1  0.74586716  0.48572374  0.74867083  1
  O  O267  1  0.76387112  0.99075355  0.09126079  1
  O  O268  1  0.76164458  0.98730892  0.43048087  1
  O  O269  1  0.76087939  0.98815063  0.75989662  1
  O  O270  1  0.24964082  0.25003490  0.08027417  1
  O  O271  1  0.26173391  0.26170604  0.40384382  1
  O  O272  1  0.25565709  0.26438975  0.74250447  1
  O  O273  1  0.25645510  0.76731099  0.06793722  1
  O  O274  1  0.25996543  0.76532054  0.40815476  1
  O  O275  1  0.26144571  0.77054367  0.74307164  1
  O  O276  1  0.58667524  0.27272398  0.08173574  1
  O  O277  1  0.57868544  0.26403225  0.42556999  1
  O  O278  1  0.58258163  0.27368111  0.75416493  1
  O  O279  1  0.57812301  0.76061862  0.09065747  1
  O  O280  1  0.58324886  0.76057370  0.41783035  1
  O  O281  1  0.58309280  0.76172861  0.75639199  1
  O  O282  1  0.91595753  0.27557368  0.08029882  1
  O  O283  1  0.91822449  0.27157502  0.40815479  1
  O  O284  1  0.91971411  0.25663650  0.74545488  1
  O  O285  1  0.92446378  0.77722474  0.07641168  1
  O  O286  1  0.92868496  0.76704048  0.40042871  1
  O  O287  1  0.91854957  0.76375576  0.75252529  1
  O  O288  1  0.24774224  0.50014974  0.07709199  1
  O  O289  1  0.26304949  0.49296907  0.40729366  1
  O  O290  1  0.26204412  0.48897746  0.74066506  1
  O  O291  1  0.25790305  0.98370210  0.07061859  1
  O  O292  1  0.25910725  0.97822169  0.40418774  1
  O  O293  1  0.25682554  0.97841659  0.74247551  1
  O  O294  1  0.58334378  0.47960922  0.08475790  1
  O  O295  1  0.58157197  0.48553508  0.41842818  1
  O  O296  1  0.58434554  0.47866452  0.75236576  1
  O  O297  1  0.58339742  0.98553780  0.08714518  1
  O  O298  1  0.57997143  0.98816200  0.42240075  1
  O  O299  1  0.58355020  0.98738321  0.75619491  1
  O  O300  1  0.91303519  0.47190294  0.08451610  1
  O  O301  1  0.91865796  0.47958977  0.40754758  1
  O  O302  1  0.91853776  0.49373118  0.75323253  1
  O  O303  1  0.92452975  0.97575323  0.07584361  1
  O  O304  1  0.92307082  0.97759069  0.40667730  1
  O  O305  1  0.91889196  0.98536414  0.74967912  1
  O  O306  1  0.07606236  0.26244727  0.07295738  1
  O  O307  1  0.08451329  0.25806471  0.41259130  1
  O  O308  1  0.09624693  0.26181713  0.75586640  1
  O  O309  1  0.08796613  0.77095812  0.08367214  1
  O  O310  1  0.09090147  0.77116536  0.41555686  1
  O  O311  1  0.09480069  0.76269983  0.76057285  1
  O  O312  1  0.42675488  0.26392738  0.09968401  1
  O  O313  1  0.41756068  0.27756524  0.42008773  1
  O  O314  1  0.42070824  0.27179728  0.75712997  1
  O  O315  1  0.42107005  0.77622351  0.09353513  1
  O  O316  1  0.42302795  0.77647247  0.42892734  1
  O  O317  1  0.42161839  0.77700097  0.76202784  1
  O  O318  1  0.74976092  0.25896652  0.08566353  1
  O  O319  1  0.75767807  0.26415047  0.42593877  1
  O  O320  1  0.74425903  0.26144266  0.74367254  1
  O  O321  1  0.76636544  0.75947229  0.09466798  1
  O  O322  1  0.76567380  0.76129679  0.42375835  1
  O  O323  1  0.76056551  0.75911736  0.76471535  1
  O  O324  1  0.24489797  0.02663037  0.23961268  1
  O  O325  1  0.24034795  0.01585972  0.56488131  1
  O  O326  1  0.23964081  0.01793749  0.90820461  1
  O  O327  1  0.24552138  0.52709155  0.24262399  1
  O  O328  1  0.24779227  0.52817771  0.57389988  1
  O  O329  1  0.24507485  0.52357966  0.90756823  1
  O  O330  1  0.56991371  0.01126814  0.24775686  1
  O  O331  1  0.58325939  0.01036144  0.58581211  1
  O  O332  1  0.58494558  0.01405543  0.92232515  1
  O  O333  1  0.57503355  0.52265223  0.25027525  1
  O  O334  1  0.57285906  0.51029252  0.57994357  1
  O  O335  1  0.58563162  0.50253882  0.92191803  1
  O  O336  1  0.90892823  0.01367151  0.23626002  1
  O  O337  1  0.90534684  0.01086872  0.57176354  1
  O  O338  1  0.91610990  0.02018908  0.91439753  1
  O  O339  1  0.91297928  0.52814122  0.24454702  1
  O  O340  1  0.90955526  0.51129629  0.57096990  1
  O  O341  1  0.92398008  0.50671919  0.92417486  1
  O  O342  1  0.08478929  0.23732506  0.24256659  1
  O  O343  1  0.08153219  0.23615472  0.58346988  1
  O  O344  1  0.08214300  0.22367607  0.91543293  1
  O  O345  1  0.07441814  0.72769201  0.24928326  1
  O  O346  1  0.08469037  0.73825571  0.57463415  1
  O  O347  1  0.07740514  0.73201705  0.92230786  1
  O  O348  1  0.40636615  0.22822377  0.25807428  1
  O  O349  1  0.41894373  0.24655544  0.58352147  1
  O  O350  1  0.40920793  0.23268135  0.93107237  1
  O  O351  1  0.41020098  0.73065407  0.26332871  1
  O  O352  1  0.40489120  0.73813845  0.59410335  1
  O  O353  1  0.40342185  0.73818383  0.93104958  1
  O  O354  1  0.74811039  0.23633116  0.24779816  1
  O  O355  1  0.74802748  0.23081541  0.58611798  1
  O  O356  1  0.74964700  0.22550994  0.92242688  1
  O  O357  1  0.74463030  0.72262635  0.26042733  1
  O  O358  1  0.74890341  0.73556475  0.58257298  1
  O  O359  1  0.75310738  0.73013497  0.92463112  1
