# generated using pymatgen
data_Ba17Sr5La8Pr42Mn72O216
_symmetry_space_group_name_H-M   'P 1'
_cell_length_a   16.67854121
_cell_length_b   15.70161322
_cell_length_c   16.81867423
_cell_angle_alpha   90.00852732
_cell_angle_beta   90.01509817
_cell_angle_gamma   90.01816869
_symmetry_Int_Tables_number   1
_chemical_formula_structural   Ba17Sr5La8Pr42Mn72O216
_chemical_formula_sum   'Ba17 Sr5 La8 Pr42 Mn72 O216'
_cell_volume   4404.47403766
_cell_formula_units_Z   1
loop_
 _symmetry_equiv_pos_site_id
 _symmetry_equiv_pos_as_xyz
  1  'x, y, z'
loop_
 _atom_site_type_symbol
 _atom_site_label
 _atom_site_symmetry_multiplicity
 _atom_site_fract_x
 _atom_site_fract_y
 _atom_site_fract_z
 _atom_site_occupancy
  Ba  Ba0  1  0.16714961  0.12360958  0.16749496  1
  Ba  Ba1  1  0.49938858  0.12530976  0.83340027  1
  Ba  Ba2  1  0.32987183  0.12601849  0.66754646  1
  Ba  Ba3  1  -0.00063359  0.87406025  0.66699023  1
  Ba  Ba4  1  0.50190297  0.37621856  0.16506053  1
  Ba  Ba5  1  0.66641029  0.87442527  0.66824881  1
  Ba  Ba6  1  0.66782336  0.87497268  0.00160853  1
  Ba  Ba7  1  0.16648431  0.87699933  0.17120074  1
  Ba  Ba8  1  0.33211987  0.87597865  0.66261605  1
  Ba  Ba9  1  0.83567344  0.37468880  0.16514582  1
  Ba  Ba10  1  0.16360808  0.12644323  0.83628612  1
  Ba  Ba11  1  0.50138522  0.37516815  0.49551176  1
  Ba  Ba12  1  0.16475701  0.62409041  0.83779899  1
  Ba  Ba13  1  0.83666185  0.87428896  0.49979948  1
  Ba  Ba14  1  0.49758831  0.87454902  0.49743764  1
  Ba  Ba15  1  0.33568208  0.37540192  0.66381661  1
  Ba  Ba16  1  0.33334990  0.62672360  0.99594911  1
  Sr  Sr17  1  0.00736880  0.37423991  0.33473722  1
  Sr  Sr18  1  0.66858724  0.37293190  0.00471134  1
  Sr  Sr19  1  0.00643184  0.87662294  0.34009769  1
  Sr  Sr20  1  0.83528135  0.37571586  0.83475238  1
  Sr  Sr21  1  0.66999230  0.37463416  0.33332073  1
  La  La22  1  0.33568330  0.12400106  0.33118403  1
  La  La23  1  0.00451152  0.37542625  0.67056942  1
  La  La24  1  0.16737146  0.87703151  0.49843615  1
  La  La25  1  0.82872362  0.12510809  0.50058976  1
  La  La26  1  0.83147101  0.62696516  0.83364560  1
  La  La27  1  0.50161727  0.62557887  0.83067432  1
  La  La28  1  -0.00296610  0.62565171  1.00198417  1
  La  La29  1  0.33581343  0.37263812  0.33331628  1
  Pr  Pr30  1  0.82941413  0.12261745  0.83397124  1
  Pr  Pr31  1  0.33332315  0.12592399  0.99418248  1
  Pr  Pr32  1  0.00388870  0.87563057  0.00052086  1
  Pr  Pr33  1  0.17137603  0.37387724  0.16556647  1
  Pr  Pr34  1  -0.00960916  0.62771763  0.33111533  1
  Pr  Pr35  1  0.50579388  0.62405164  0.16330109  1
  Pr  Pr36  1  0.66463150  0.13142906  0.99892363  1
  Pr  Pr37  1  -0.00863736  0.12376641  1.00148342  1
  Pr  Pr38  1  0.66906820  0.37436641  0.66987594  1
  Pr  Pr39  1  0.49819257  0.87196133  0.16448774  1
  Pr  Pr40  1  0.66220256  0.62352391  0.33329449  1
  Pr  Pr41  1  0.17681976  0.37481537  0.49929852  1
  Pr  Pr42  1  0.83945659  0.37552354  0.49060481  1
  Pr  Pr43  1  -0.00795878  0.62295370  0.66582453  1
  Pr  Pr44  1  0.32677396  0.87615626  0.33665061  1
  Pr  Pr45  1  0.50164776  0.12697879  0.50504765  1
  Pr  Pr46  1  0.16249886  0.62336894  0.50513464  1
  Pr  Pr47  1  0.33719485  0.37397300  -0.00236486  1
  Pr  Pr48  1  0.66633598  0.62471009  0.66470520  1
  Pr  Pr49  1  0.84117087  0.87490541  0.16657323  1
  Pr  Pr50  1  -0.00918209  0.12344740  0.33115801  1
  Pr  Pr51  1  0.50379301  0.62312784  0.50042975  1
  Pr  Pr52  1  0.66300740  0.12486387  0.66574600  1
  Pr  Pr53  1  0.33439304  0.62572471  0.32555287  1
  Pr  Pr54  1  0.17020642  0.87484698  0.83256680  1
  Pr  Pr55  1  0.16387599  0.62587447  0.17121755  1
  Pr  Pr56  1  0.82625233  0.12473825  0.16872065  1
  Pr  Pr57  1  0.50185584  0.37740218  0.82888959  1
  Pr  Pr58  1  0.15979234  0.12638173  0.50544076  1
  Pr  Pr59  1  0.00437376  0.37374909  0.00633780  1
  Pr  Pr60  1  0.66587495  0.61806973  0.99873518  1
  Pr  Pr61  1  0.83385138  0.87460408  0.82492847  1
  Pr  Pr62  1  -0.00706713  0.12728646  0.66548372  1
  Pr  Pr63  1  0.49562465  0.87364556  0.82369899  1
  Pr  Pr64  1  0.66107268  0.12535237  0.33468711  1
  Pr  Pr65  1  0.50265355  0.12481210  0.16375386  1
  Pr  Pr66  1  0.33126264  0.62654138  0.66327013  1
  Pr  Pr67  1  0.66807175  0.87408388  0.34129840  1
  Pr  Pr68  1  0.16965616  0.37593459  0.83727158  1
  Pr  Pr69  1  0.83040763  0.62435029  0.50031475  1
  Pr  Pr70  1  0.82590468  0.62475082  0.16764550  1
  Pr  Pr71  1  0.33472344  0.87699311  -0.00512738  1
  Mn  Mn72  1  -0.00194530  -0.00020141  0.16780486  1
  Mn  Mn73  1  -0.00045528  0.00231856  0.49954828  1
  Mn  Mn74  1  -0.00207118  0.00136880  0.83513111  1
  Mn  Mn75  1  0.00136738  0.50130036  0.16922833  1
  Mn  Mn76  1  0.00056850  0.49949220  0.49992330  1
  Mn  Mn77  1  -0.00210140  0.49826811  0.83621627  1
  Mn  Mn78  1  0.33680056  -0.00193631  0.16443895  1
  Mn  Mn79  1  0.33107752  0.00104074  0.49686383  1
  Mn  Mn80  1  0.33229939  -0.00009317  0.83306303  1
  Mn  Mn81  1  0.33227218  0.50192441  0.16422579  1
  Mn  Mn82  1  0.33257647  0.50291332  0.49455097  1
  Mn  Mn83  1  0.33477805  0.49950113  0.83174329  1
  Mn  Mn84  1  0.66643456  -0.00149978  0.16969470  1
  Mn  Mn85  1  0.66652388  -0.00011170  0.49923543  1
  Mn  Mn86  1  0.66657008  0.00092443  0.83651071  1
  Mn  Mn87  1  0.66770776  0.49985625  0.16555676  1
  Mn  Mn88  1  0.66948674  0.49944370  0.49941767  1
  Mn  Mn89  1  0.66884620  0.49798318  0.83328465  1
  Mn  Mn90  1  0.00049242  0.24896349  0.16924034  1
  Mn  Mn91  1  -0.00058982  0.25215624  0.50048030  1
  Mn  Mn92  1  -0.00261482  0.25148468  0.83591834  1
  Mn  Mn93  1  -0.00090580  0.75103651  0.16750315  1
  Mn  Mn94  1  0.00090603  0.74744091  0.49906208  1
  Mn  Mn95  1  -0.00138593  0.74860014  0.83549482  1
  Mn  Mn96  1  0.33542939  0.24893235  0.16509494  1
  Mn  Mn97  1  0.33223111  0.24894374  0.49627627  1
  Mn  Mn98  1  0.33372291  0.25246125  0.83403096  1
  Mn  Mn99  1  0.33311974  0.75044040  0.16369692  1
  Mn  Mn100  1  0.33125199  0.74657434  0.49508761  1
  Mn  Mn101  1  0.33329719  0.74879763  0.82974394  1
  Mn  Mn102  1  0.66709777  0.24859499  0.16687331  1
  Mn  Mn103  1  0.66870930  0.25092536  0.50043988  1
  Mn  Mn104  1  0.66887212  0.25306735  0.83427558  1
  Mn  Mn105  1  0.66720595  0.75146371  0.16879400  1
  Mn  Mn106  1  0.66716027  0.74919304  0.49842027  1
  Mn  Mn107  1  0.66707247  0.74839294  0.83604224  1
  Mn  Mn108  1  0.16609721  0.25039525  0.00250752  1
  Mn  Mn109  1  0.16629028  0.25002462  0.33526361  1
  Mn  Mn110  1  0.16343429  0.25182802  0.66836360  1
  Mn  Mn111  1  0.16581181  0.75204815  0.00264638  1
  Mn  Mn112  1  0.16586878  0.74680753  0.33748187  1
  Mn  Mn113  1  0.16510715  0.74794267  0.66816038  1
  Mn  Mn114  1  0.50003152  0.25015624  -0.00053206  1
  Mn  Mn115  1  0.50131668  0.24798222  0.33213466  1
  Mn  Mn116  1  0.50143677  0.25142952  0.66576430  1
  Mn  Mn117  1  0.50166233  0.75097532  -0.00309405  1
  Mn  Mn118  1  0.49940183  0.74842155  0.32928297  1
  Mn  Mn119  1  0.49985934  0.74706448  0.66470356  1
  Mn  Mn120  1  0.83441345  0.24959924  -0.00056375  1
  Mn  Mn121  1  0.83383665  0.25074434  0.33388327  1
  Mn  Mn122  1  0.83231468  0.25281336  0.66544432  1
  Mn  Mn123  1  0.83391886  0.75141743  0.00012370  1
  Mn  Mn124  1  0.83231345  0.74916050  0.33209838  1
  Mn  Mn125  1  0.83259555  0.74754870  0.66769156  1
  Mn  Mn126  1  0.16602083  -0.00042500  0.00013363  1
  Mn  Mn127  1  0.16621458  0.00308091  0.33727272  1
  Mn  Mn128  1  0.16245471  0.00037428  0.66785113  1
  Mn  Mn129  1  0.16632315  0.49913173  0.00441641  1
  Mn  Mn130  1  0.16609007  0.50066184  0.33485675  1
  Mn  Mn131  1  0.16608222  0.49985666  0.66883190  1
  Mn  Mn132  1  0.50029518  -0.00276061  0.00009215  1
  Mn  Mn133  1  0.50045996  0.00040893  0.33026994  1
  Mn  Mn134  1  0.49973724  0.00077007  0.66617554  1
  Mn  Mn135  1  0.50086330  0.50089414  -0.00304873  1
  Mn  Mn136  1  0.50027120  0.50097616  0.33130572  1
  Mn  Mn137  1  0.50209574  0.50058331  0.66486769  1
  Mn  Mn138  1  0.83281854  -0.00183419  0.00037825  1
  Mn  Mn139  1  0.83206786  0.00066657  0.33299705  1
  Mn  Mn140  1  0.83213539  0.00253958  0.66837376  1
  Mn  Mn141  1  0.83525454  0.50029870  -0.00046656  1
  Mn  Mn142  1  0.83406458  0.49943161  0.33322527  1
  Mn  Mn143  1  0.83282329  0.49720154  0.66464524  1
  O  O144  1  0.18400169  0.12610172  0.00843498  1
  O  O145  1  0.17597630  0.12566383  0.35927276  1
  O  O146  1  0.15883128  0.12964820  0.67785530  1
  O  O147  1  0.16641909  0.62538904  0.02393023  1
  O  O148  1  0.17611721  0.62194126  0.36106992  1
  O  O149  1  0.17798213  0.62266550  0.68135811  1
  O  O150  1  0.49629602  0.12079579  0.02012518  1
  O  O151  1  0.50373506  0.12344824  0.35891929  1
  O  O152  1  0.50934352  0.12728552  0.67429205  1
  O  O153  1  0.50544216  0.62763835  0.01984523  1
  O  O154  1  0.50220663  0.62558228  0.35568001  1
  O  O155  1  0.51192816  0.62280353  0.68509285  1
  O  O156  1  0.83866660  0.12057044  0.02579939  1
  O  O157  1  0.83899964  0.12742386  0.35541896  1
  O  O158  1  0.83719538  0.13101982  0.69032373  1
  O  O159  1  0.83768637  0.62860422  0.02502791  1
  O  O160  1  0.83768820  0.62334238  0.35535551  1
  O  O161  1  0.83786209  0.62073184  0.68851133  1
  O  O162  1  0.16447524  0.37770151  0.30824017  1
  O  O163  1  0.15777250  0.37663031  0.64351832  1
  O  O164  1  0.15050835  0.37444540  0.98495766  1
  O  O165  1  0.16495863  0.87566204  0.32753898  1
  O  O166  1  0.16282923  0.87081867  0.64368120  1
  O  O167  1  0.15261657  0.87579038  0.98062964  1
  O  O168  1  0.49340929  0.37509965  0.32132756  1
  O  O169  1  0.50651381  0.37712933  0.65266279  1
  O  O170  1  0.49717967  0.37757713  0.97633966  1
  O  O171  1  0.50502972  0.87370762  0.30762058  1
  O  O172  1  0.49867286  0.87268688  0.65925176  1
  O  O173  1  0.49897074  0.87401593  0.96965502  1
  O  O174  1  0.82910180  0.37610986  0.32291002  1
  O  O175  1  0.82585693  0.37550452  0.63439300  1
  O  O176  1  0.83691423  0.37513632  0.98477130  1
  O  O177  1  0.82227336  0.87281041  0.31042997  1
  O  O178  1  0.83154534  0.87270602  0.65970181  1
  O  O179  1  0.83603264  0.87524574  0.96989777  1
  O  O180  1  0.00702667  0.37747756  0.18457718  1
  O  O181  1  -0.00951861  0.37654596  0.52599661  1
  O  O182  1  -0.00352792  0.37427311  0.86286339  1
  O  O183  1  -0.00758901  0.87512701  0.18970436  1
  O  O184  1  0.00723930  0.87413604  0.50906530  1
  O  O185  1  -0.01133335  0.87511545  0.85685096  1
  O  O186  1  0.33063360  0.37970621  0.19092977  1
  O  O187  1  0.33236787  0.37662835  0.50700339  1
  O  O188  1  0.34908280  0.37687421  0.85084275  1
  O  O189  1  0.34493009  0.87388675  0.19363783  1
  O  O190  1  0.33052293  0.87266273  0.50656213  1
  O  O191  1  0.34664187  0.87351956  0.84600642  1
  O  O192  1  0.66823325  0.37262752  0.18145517  1
  O  O193  1  0.67688450  0.37638104  0.52420535  1
  O  O194  1  0.66518609  0.37616723  0.85600095  1
  O  O195  1  0.66301489  0.87464018  0.19726534  1
  O  O196  1  0.66830782  0.87406331  0.50777634  1
  O  O197  1  0.67521323  0.87341768  0.84590222  1
  O  O198  1  -0.00902563  0.12184638  0.14680980  1
  O  O199  1  0.00331511  0.12999835  0.47611247  1
  O  O200  1  -0.00584968  0.12920315  0.80873625  1
  O  O201  1  0.00031486  0.62660259  0.14624295  1
  O  O202  1  0.00197010  0.62119868  0.47487863  1
  O  O203  1  -0.00465914  0.62146580  0.81004109  1
  O  O204  1  0.34181430  0.11971117  0.13876558  1
  O  O205  1  0.32371008  0.12549900  0.47664749  1
  O  O206  1  0.32740832  0.12655350  0.83204416  1
  O  O207  1  0.31892313  0.62589549  0.15038606  1
  O  O208  1  0.32052813  0.62463720  0.46964279  1
  O  O209  1  0.32998044  0.62294773  0.81223645  1
  O  O210  1  0.66886598  0.12019959  0.14268458  1
  O  O211  1  0.66438878  0.12520501  0.47957284  1
  O  O212  1  0.67349368  0.13041749  0.81003833  1
  O  O213  1  0.66828855  0.62969631  0.14259864  1
  O  O214  1  0.66729718  0.62432584  0.47766942  1
  O  O215  1  0.66696050  0.62056015  0.80905365  1
  O  O216  1  0.07555000  0.01676457  0.26372682  1
  O  O217  1  0.07380077  0.02299438  0.58857495  1
  O  O218  1  0.07079233  0.01523867  0.92558843  1
  O  O219  1  0.07860010  0.52769065  0.26016037  1
  O  O220  1  0.07515877  0.52206779  0.59108335  1
  O  O221  1  0.07416961  0.51388925  0.93378818  1
  O  O222  1  0.42308003  0.02287324  0.24329814  1
  O  O223  1  0.41792176  0.01738772  0.57206564  1
  O  O224  1  0.40760506  0.01098763  0.92589741  1
  O  O225  1  0.41510501  0.52550593  0.24379846  1
  O  O226  1  0.41456350  0.52732482  0.57902645  1
  O  O227  1  0.42379701  0.51637275  0.90824745  1
  O  O228  1  0.74480218  0.02391133  0.25496183  1
  O  O229  1  0.74760998  0.02344973  0.58813111  1
  O  O230  1  0.74804150  0.02544067  0.92287283  1
  O  O231  1  0.74658380  0.52227652  0.25435398  1
  O  O232  1  0.74756961  0.52652880  0.58681044  1
  O  O233  1  0.74907162  0.52165267  0.91706795  1
  O  O234  1  0.25782332  0.23720560  0.25033869  1
  O  O235  1  0.23979402  0.24158987  0.57284435  1
  O  O236  1  0.24881984  0.25919280  0.91863946  1
  O  O237  1  0.24853120  0.73415665  0.25483647  1
  O  O238  1  0.25044600  0.72882282  0.58040703  1
  O  O239  1  0.25077122  0.75599339  0.91580046  1
  O  O240  1  0.58276352  0.22585804  0.24853208  1
  O  O241  1  0.58528840  0.23403641  0.58059792  1
  O  O242  1  0.58571051  0.23682788  0.92133685  1
  O  O243  1  0.58341863  0.72401920  0.24958669  1
  O  O244  1  0.58452981  0.72848410  0.58178402  1
  O  O245  1  0.58919701  0.72647111  0.92132843  1
  O  O246  1  0.91153531  0.22929798  0.24538659  1
  O  O247  1  0.90901939  0.22885709  0.57578171  1
  O  O248  1  0.91036564  0.22623717  0.91134346  1
  O  O249  1  0.90893572  0.72997321  0.24244821  1
  O  O250  1  0.91571547  0.72700652  0.58002323  1
  O  O251  1  0.91363165  0.72657297  0.91515672  1
  O  O252  1  0.09504190  0.48837400  0.09978075  1
  O  O253  1  0.09315314  0.48180959  0.42995512  1
  O  O254  1  0.08358123  0.47805482  0.75985938  1
  O  O255  1  0.08028027  0.99167067  0.08371279  1
  O  O256  1  0.09261170  0.99386197  0.42993832  1
  O  O257  1  0.08578265  0.98258342  0.76108586  1
  O  O258  1  0.41443261  0.48956673  0.07598925  1
  O  O259  1  0.41288614  0.49578364  0.40973556  1
  O  O260  1  0.42351759  0.49434681  0.74884567  1
  O  O261  1  0.41985889  0.97097714  0.08266706  1
  O  O262  1  0.41016485  0.98812542  0.40161209  1
  O  O263  1  0.41890798  0.99164781  0.75395826  1
  O  O264  1  0.75434603  0.49646459  0.08300947  1
  O  O265  1  0.76106417  0.48917303  0.42694079  1
  O  O266  1  0.74993745  0.48083955  0.74755685  1
  O  O267  1  0.75886185  0.98224607  0.09580497  1
  O  O268  1  0.75014495  0.99170713  0.41538754  1
  O  O269  1  0.75554478  0.99235609  0.75952587  1
  O  O270  1  0.25166196  0.27374066  0.08088593  1
  O  O271  1  0.25163491  0.27333939  0.41129961  1
  O  O272  1  0.24810537  0.26905223  0.75492403  1
  O  O273  1  0.25406008  0.77244888  0.08030389  1
  O  O274  1  0.24863184  0.77034057  0.41654544  1
  O  O275  1  0.24607330  0.76763564  0.75291274  1
  O  O276  1  0.58442193  0.25254778  0.08189996  1
  O  O277  1  0.59083222  0.25931811  0.41112226  1
  O  O278  1  0.58940245  0.27119441  0.74977621  1
  O  O279  1  0.57836819  0.76547381  0.09242369  1
  O  O280  1  0.58579528  0.76023401  0.40925136  1
  O  O281  1  0.57764698  0.76020644  0.76225075  1
  O  O282  1  0.92680971  0.26093976  0.07208712  1
  O  O283  1  0.92362987  0.26744447  0.41328788  1
  O  O284  1  0.92085687  0.27193187  0.73852789  1
  O  O285  1  0.91945737  0.77367291  0.07718155  1
  O  O286  1  0.92192902  0.75767023  0.40736716  1
  O  O287  1  0.91276195  0.75859751  0.75445984  1
  O  O288  1  0.25188010  0.47273915  0.08178187  1
  O  O289  1  0.25200430  0.47547114  0.40934692  1
  O  O290  1  0.24839507  0.47979936  0.75470247  1
  O  O291  1  0.25887641  0.98182616  0.07703698  1
  O  O292  1  0.25107075  0.98147827  0.41435649  1
  O  O293  1  0.24660933  0.98426119  0.75279717  1
  O  O294  1  0.58732126  0.49452273  0.07745715  1
  O  O295  1  0.59352216  0.49118133  0.41210367  1
  O  O296  1  0.58819986  0.47933443  0.75031911  1
  O  O297  1  0.57790818  0.98385142  0.09311192  1
  O  O298  1  0.58793131  0.98625486  0.40754375  1
  O  O299  1  0.58294995  0.98826134  0.75801795  1
  O  O300  1  0.93029497  0.48928920  0.07384338  1
  O  O301  1  0.92361760  0.48414549  0.41201413  1
  O  O302  1  0.91978812  0.48009783  0.73886194  1
  O  O303  1  0.91894823  0.97546601  0.07684084  1
  O  O304  1  0.92401999  0.99277707  0.40928394  1
  O  O305  1  0.91425544  0.99024072  0.75393122  1
  O  O306  1  0.08980982  0.26490761  0.09459355  1
  O  O307  1  0.09177996  0.26947329  0.43389859  1
  O  O308  1  0.08408456  0.27489746  0.76067569  1
  O  O309  1  0.08138723  0.76244068  0.08713462  1
  O  O310  1  0.09090717  0.75716290  0.42644808  1
  O  O311  1  0.08508007  0.76432672  0.76042776  1
  O  O312  1  0.41287845  0.26510588  0.07885174  1
  O  O313  1  0.41185429  0.25426026  0.40766391  1
  O  O314  1  0.42367381  0.26289589  0.75467938  1
  O  O315  1  0.41739022  0.77125210  0.07505227  1
  O  O316  1  0.40820949  0.75983248  0.40077058  1
  O  O317  1  0.41233400  0.74805381  0.74178529  1
  O  O318  1  0.75210896  0.25270564  0.08298888  1
  O  O319  1  0.75946009  0.26169057  0.42735348  1
  O  O320  1  0.75266844  0.27299322  0.74838462  1
  O  O321  1  0.75911059  0.76737973  0.09465053  1
  O  O322  1  0.74848128  0.75869113  0.41279199  1
  O  O323  1  0.75269997  0.75456834  0.75680650  1
  O  O324  1  0.25780295  0.01055242  0.25473594  1
  O  O325  1  0.23838492  0.01140588  0.57510162  1
  O  O326  1  0.24774778  -0.00758583  0.91460671  1
  O  O327  1  0.24355518  0.52024111  0.24735821  1
  O  O328  1  0.24724925  0.51470460  0.57505419  1
  O  O329  1  0.24815049  0.49343963  0.91928280  1
  O  O330  1  0.58342616  0.02602723  0.24973164  1
  O  O331  1  0.58392878  0.01818711  0.58028106  1
  O  O332  1  0.58851412  0.01788052  0.92553638  1
  O  O333  1  0.58168607  0.52235210  0.24625680  1
  O  O334  1  0.58485680  0.52045737  0.58038460  1
  O  O335  1  0.58398264  0.52084205  0.91316348  1
  O  O336  1  0.90654922  0.01744733  0.24313455  1
  O  O337  1  0.91312635  0.02259749  0.57981632  1
  O  O338  1  0.91177069  0.02402484  0.91432468  1
  O  O339  1  0.91244898  0.52275624  0.24467172  1
  O  O340  1  0.91167611  0.52270644  0.57603892  1
  O  O341  1  0.91071403  0.52209716  0.91161222  1
  O  O342  1  0.07584265  0.23096288  0.26516661  1
  O  O343  1  0.06924057  0.23439648  0.59220335  1
  O  O344  1  0.07243426  0.23348564  0.93382691  1
  O  O345  1  0.08127276  0.72605663  0.25809663  1
  O  O346  1  0.07997608  0.72241776  0.58957427  1
  O  O347  1  0.07386851  0.73731268  0.92625188  1
  O  O348  1  0.42107706  0.22598365  0.24723325  1
  O  O349  1  0.41764870  0.23454641  0.57399291  1
  O  O350  1  0.41006298  0.23786908  0.92385749  1
  O  O351  1  0.42143616  0.72459339  0.23975931  1
  O  O352  1  0.41627180  0.72164918  0.57282173  1
  O  O353  1  0.42569975  0.73609925  0.90260430  1
  O  O354  1  0.74588246  0.22688408  0.25448492  1
  O  O355  1  0.74516146  0.22503987  0.58968098  1
  O  O356  1  0.75001009  0.22810457  0.91851986  1
  O  O357  1  0.74658018  0.72445830  0.25336626  1
  O  O358  1  0.75021297  0.72592850  0.58519219  1
  O  O359  1  0.74915384  0.72495762  0.92122189  1
