# generated using pymatgen
data_Ba17Sr5La8Pr42Mn72O216
_symmetry_space_group_name_H-M   'P 1'
_cell_length_a   16.67488233
_cell_length_b   15.70367939
_cell_length_c   16.82323673
_cell_angle_alpha   89.99989095
_cell_angle_beta   90.00551280
_cell_angle_gamma   90.05252934
_symmetry_Int_Tables_number   1
_chemical_formula_structural   Ba17Sr5La8Pr42Mn72O216
_chemical_formula_sum   'Ba17 Sr5 La8 Pr42 Mn72 O216'
_cell_volume   4405.28052845
_cell_formula_units_Z   1
loop_
 _symmetry_equiv_pos_site_id
 _symmetry_equiv_pos_as_xyz
  1  'x, y, z'
loop_
 _atom_site_type_symbol
 _atom_site_label
 _atom_site_symmetry_multiplicity
 _atom_site_fract_x
 _atom_site_fract_y
 _atom_site_fract_z
 _atom_site_occupancy
  Ba  Ba0  1  0.33314833  0.87703810  0.33509671  1
  Ba  Ba1  1  0.16895834  0.37414810  0.16773106  1
  Ba  Ba2  1  0.49938284  0.87472762  0.49946145  1
  Ba  Ba3  1  0.83095443  0.12561651  0.49920432  1
  Ba  Ba4  1  0.00143683  0.62571439  0.99868678  1
  Ba  Ba5  1  0.66654119  0.37503337  0.33282490  1
  Ba  Ba6  1  -0.00029336  0.62599450  0.33153879  1
  Ba  Ba7  1  0.16662679  0.62393485  0.83460055  1
  Ba  Ba8  1  0.16691050  0.62585374  0.16609054  1
  Ba  Ba9  1  0.00053022  0.87728481  -0.00175490  1
  Ba  Ba10  1  0.00053494  0.37477928  0.33246469  1
  Ba  Ba11  1  0.50025384  0.62466407  0.50279138  1
  Ba  Ba12  1  0.16607624  0.12572328  0.50058566  1
  Ba  Ba13  1  0.33382436  0.37314212  0.33189804  1
  Ba  Ba14  1  0.50239318  0.62622503  0.16669767  1
  Ba  Ba15  1  -0.00121385  0.87632034  0.66781764  1
  Ba  Ba16  1  0.50225032  0.62347199  0.83613840  1
  Sr  Sr17  1  0.83147195  0.12230376  0.17142303  1
  Sr  Sr18  1  0.33135448  0.12612617  0.66263214  1
  Sr  Sr19  1  0.33052378  0.12377044  0.33204626  1
  Sr  Sr20  1  -0.00490356  0.12524878  0.33311012  1
  Sr  Sr21  1  0.33137510  0.12645549  0.99664135  1
  La  La22  1  0.49603632  0.87663011  0.16801588  1
  La  La23  1  0.17063324  0.37593083  0.83603965  1
  La  La24  1  0.16646070  0.87746867  0.49919810  1
  La  La25  1  0.16703146  0.87222063  0.83139063  1
  La  La26  1  0.16063929  0.12333031  0.17330161  1
  La  La27  1  0.83481938  0.62003863  0.49885022  1
  La  La28  1  0.49641341  0.12456823  0.16843812  1
  La  La29  1  0.83650701  0.62645024  0.83480367  1
  Pr  Pr30  1  0.33430856  0.62792035  0.33205254  1
  Pr  Pr31  1  0.50058955  0.37000732  0.83302273  1
  Pr  Pr32  1  0.33313491  0.87273728  0.00221266  1
  Pr  Pr33  1  0.83550052  0.37355266  0.49396126  1
  Pr  Pr34  1  0.16696182  0.87514862  0.16646509  1
  Pr  Pr35  1  0.50097199  0.37191490  0.16473234  1
  Pr  Pr36  1  0.33181453  0.87631148  0.66660396  1
  Pr  Pr37  1  0.83864998  0.37302069  0.16378351  1
  Pr  Pr38  1  0.49412436  0.12628400  0.49788383  1
  Pr  Pr39  1  0.66727409  0.12648563  0.99854059  1
  Pr  Pr40  1  0.83398964  0.87499302  0.49577311  1
  Pr  Pr41  1  0.83421099  0.12339045  0.83276484  1
  Pr  Pr42  1  0.66697250  0.37501384  0.66647567  1
  Pr  Pr43  1  0.66529438  0.87501667  0.00274442  1
  Pr  Pr44  1  0.16893180  0.37277565  0.49290418  1
  Pr  Pr45  1  0.83564490  0.37630559  0.83276135  1
  Pr  Pr46  1  0.16188902  0.12402037  0.83392401  1
  Pr  Pr47  1  0.67060034  0.62465318  0.99559370  1
  Pr  Pr48  1  0.66259186  0.12386805  0.33087043  1
  Pr  Pr49  1  0.33110290  0.62342717  0.99607146  1
  Pr  Pr50  1  0.83469126  0.87689608  0.16468192  1
  Pr  Pr51  1  0.33220640  0.62277917  0.66531192  1
  Pr  Pr52  1  0.00398654  0.87717301  0.33329481  1
  Pr  Pr53  1  -0.00323731  0.12257930  0.65944264  1
  Pr  Pr54  1  0.83288974  0.87352655  0.82919097  1
  Pr  Pr55  1  0.33641899  0.37326159  0.66535791  1
  Pr  Pr56  1  0.49909563  0.12439816  0.83550267  1
  Pr  Pr57  1  0.66917643  0.62449257  0.66493195  1
  Pr  Pr58  1  0.66551635  0.62749509  0.33118299  1
  Pr  Pr59  1  0.00378015  0.62868668  0.66346809  1
  Pr  Pr60  1  0.33997757  0.37840797  0.00610239  1
  Pr  Pr61  1  0.49520256  0.87890583  0.82864922  1
  Pr  Pr62  1  0.16878853  0.62165631  0.50106715  1
  Pr  Pr63  1  -0.00192633  0.12798432  1.00087403  1
  Pr  Pr64  1  0.66394781  0.87575966  0.66807938  1
  Pr  Pr65  1  0.66806508  0.37652202  0.00632602  1
  Pr  Pr66  1  0.83486327  0.62711897  0.16778365  1
  Pr  Pr67  1  0.66667321  0.87390323  0.33575497  1
  Pr  Pr68  1  0.00810810  0.37679017  0.00628941  1
  Pr  Pr69  1  0.49882276  0.37272980  0.49516907  1
  Pr  Pr70  1  0.66153815  0.12561478  0.66130716  1
  Pr  Pr71  1  0.00189488  0.37056482  0.66680876  1
  Mn  Mn72  1  -0.00230168  -0.00024691  0.16688046  1
  Mn  Mn73  1  -0.00189484  -0.00095695  0.49998750  1
  Mn  Mn74  1  -0.00085647  0.00283388  0.83299466  1
  Mn  Mn75  1  -0.00020910  0.50033981  0.16590774  1
  Mn  Mn76  1  0.00019298  0.50157785  0.50280833  1
  Mn  Mn77  1  -0.00082888  0.49530774  0.83258308  1
  Mn  Mn78  1  0.33262465  0.00097370  0.16373500  1
  Mn  Mn79  1  0.33264019  0.00162519  0.50157658  1
  Mn  Mn80  1  0.33232521  0.00339153  0.83310365  1
  Mn  Mn81  1  0.33618455  0.50147012  0.16740899  1
  Mn  Mn82  1  0.33330702  0.49933877  0.50094265  1
  Mn  Mn83  1  0.33566076  0.49573095  0.83344046  1
  Mn  Mn84  1  0.66579794  -0.00046513  0.16649548  1
  Mn  Mn85  1  0.66606983  0.00002080  0.49990462  1
  Mn  Mn86  1  0.66760248  0.00187956  0.83371024  1
  Mn  Mn87  1  0.66861256  0.50044631  0.16680724  1
  Mn  Mn88  1  0.66725160  0.49933177  0.50139174  1
  Mn  Mn89  1  0.66821246  0.49610881  0.83428085  1
  Mn  Mn90  1  -0.00226211  0.24879417  0.16527495  1
  Mn  Mn91  1  -0.00137905  0.24949130  0.50162967  1
  Mn  Mn92  1  -0.00097233  0.24976302  0.83373546  1
  Mn  Mn93  1  -0.00055877  0.75208744  0.16649013  1
  Mn  Mn94  1  -0.00059838  0.75054909  0.49906986  1
  Mn  Mn95  1  -0.00079248  0.75093641  0.83131431  1
  Mn  Mn96  1  0.33416275  0.24728744  0.16369765  1
  Mn  Mn97  1  0.33293665  0.24892685  0.50109165  1
  Mn  Mn98  1  0.33291541  0.24876998  0.83284875  1
  Mn  Mn99  1  0.33434877  0.75134205  0.16610846  1
  Mn  Mn100  1  0.33151554  0.74845755  0.50179154  1
  Mn  Mn101  1  0.33527155  0.75147048  0.83425379  1
  Mn  Mn102  1  0.66793618  0.24863548  0.16572062  1
  Mn  Mn103  1  0.66521380  0.24995544  0.50022532  1
  Mn  Mn104  1  0.66850506  0.24993637  0.83263834  1
  Mn  Mn105  1  0.66770124  0.75215798  0.16615662  1
  Mn  Mn106  1  0.66901860  0.74917213  0.50106112  1
  Mn  Mn107  1  0.66695661  0.75159326  0.83435346  1
  Mn  Mn108  1  0.16848414  0.24626149  -0.00039822  1
  Mn  Mn109  1  0.16584600  0.24836402  0.33360980  1
  Mn  Mn110  1  0.16634751  0.25304533  0.66821763  1
  Mn  Mn111  1  0.16823863  0.75299763  -0.00119253  1
  Mn  Mn112  1  0.16671211  0.75150790  0.33458396  1
  Mn  Mn113  1  0.16811009  0.74800322  0.66578652  1
  Mn  Mn114  1  0.50187464  0.24726884  -0.00130886  1
  Mn  Mn115  1  0.49959207  0.24954699  0.33217661  1
  Mn  Mn116  1  0.49994190  0.25027340  0.66574733  1
  Mn  Mn117  1  0.50214100  0.75227649  -0.00022024  1
  Mn  Mn118  1  0.50127429  0.74972167  0.33377722  1
  Mn  Mn119  1  0.50025273  0.75047072  0.66992689  1
  Mn  Mn120  1  0.83281748  0.24769333  -0.00162405  1
  Mn  Mn121  1  0.83151417  0.24853805  0.33137064  1
  Mn  Mn122  1  0.83135287  0.25254033  0.66752357  1
  Mn  Mn123  1  0.83238117  0.75237133  -0.00122549  1
  Mn  Mn124  1  0.83178304  0.75182957  0.33182078  1
  Mn  Mn125  1  0.83102204  0.74860121  0.66540700  1
  Mn  Mn126  1  0.16829917  0.00278576  0.00030268  1
  Mn  Mn127  1  0.16477527  0.00131128  0.33308508  1
  Mn  Mn128  1  0.16806912  0.00045314  0.66871330  1
  Mn  Mn129  1  0.16896834  0.49888060  -0.00128060  1
  Mn  Mn130  1  0.16780859  0.50015682  0.33496242  1
  Mn  Mn131  1  0.16583000  0.49667399  0.66588098  1
  Mn  Mn132  1  0.50096130  0.00051834  -0.00112815  1
  Mn  Mn133  1  0.50030101  0.00150659  0.33275309  1
  Mn  Mn134  1  0.49862153  0.00174739  0.66650442  1
  Mn  Mn135  1  0.50302390  0.50022038  0.00148856  1
  Mn  Mn136  1  0.50085898  0.50074492  0.33396467  1
  Mn  Mn137  1  0.50113929  0.49781397  0.66859814  1
  Mn  Mn138  1  0.83208463  0.00274920  -0.00038507  1
  Mn  Mn139  1  0.83105914  -0.00084577  0.33169099  1
  Mn  Mn140  1  0.82931925  -0.00019087  0.66715892  1
  Mn  Mn141  1  0.83315558  0.49840204  -0.00164701  1
  Mn  Mn142  1  0.83165918  0.50027456  0.33206487  1
  Mn  Mn143  1  0.83384698  0.49840067  0.66689369  1
  O  O144  1  0.16677371  0.12419079  0.02637616  1
  O  O145  1  0.16584777  0.12405737  0.34085731  1
  O  O146  1  0.16465274  0.13166799  0.69122349  1
  O  O147  1  0.17867332  0.62730122  0.00701649  1
  O  O148  1  0.17374476  0.62577990  0.35584585  1
  O  O149  1  0.16947482  0.62087449  0.68123786  1
  O  O150  1  0.50844388  0.12380480  0.02473613  1
  O  O151  1  0.50915235  0.12559041  0.35227550  1
  O  O152  1  0.50620248  0.12674432  0.69337100  1
  O  O153  1  0.50645569  0.62753450  0.01183934  1
  O  O154  1  0.50562731  0.62394511  0.34504511  1
  O  O155  1  0.50008971  0.62390605  0.68133044  1
  O  O156  1  0.83363327  0.12550938  0.02305182  1
  O  O157  1  0.83102129  0.12255270  0.34337477  1
  O  O158  1  0.82923157  0.13047144  0.68958732  1
  O  O159  1  0.82584621  0.62227192  0.02277659  1
  O  O160  1  0.82749688  0.62818756  0.35446327  1
  O  O161  1  0.82609138  0.62143307  0.69362098  1
  O  O162  1  0.16663845  0.37294618  0.32803954  1
  O  O163  1  0.15619187  0.37660947  0.63753980  1
  O  O164  1  0.16372791  0.36850640  0.98147606  1
  O  O165  1  0.16271378  0.87789655  0.31247347  1
  O  O166  1  0.17379697  0.86900655  0.64460509  1
  O  O167  1  0.17526718  0.88132062  0.97470226  1
  O  O168  1  0.49986547  0.37436793  0.30945704  1
  O  O169  1  0.50095377  0.37275118  0.63889038  1
  O  O170  1  0.50105988  0.37108226  0.97647995  1
  O  O171  1  0.50730879  0.87780718  0.31403989  1
  O  O172  1  0.50393676  0.87742749  0.65546756  1
  O  O173  1  0.50391320  0.87804293  0.97128642  1
  O  O174  1  0.83077355  0.37500907  0.31077007  1
  O  O175  1  0.83151734  0.37726271  0.63703685  1
  O  O176  1  0.82397511  0.37110809  0.97388959  1
  O  O177  1  0.81973776  0.87423398  0.30813997  1
  O  O178  1  0.82425405  0.86949350  0.64081530  1
  O  O179  1  0.82369845  0.88209043  0.97147782  1
  O  O180  1  -0.00551127  0.37367889  0.17167627  1
  O  O181  1  -0.00405079  0.37777601  0.52368767  1
  O  O182  1  -0.00866243  0.36827427  0.86255006  1
  O  O183  1  -0.00036375  0.87654220  0.18589700  1
  O  O184  1  -0.00386902  0.87350050  0.51310260  1
  O  O185  1  -0.00538156  0.87987088  0.84158659  1
  O  O186  1  0.34319656  0.37300225  0.17434894  1
  O  O187  1  0.33755113  0.37493559  0.52110339  1
  O  O188  1  0.33823857  0.36880711  0.86102002  1
  O  O189  1  0.33362427  0.87615122  0.17800782  1
  O  O190  1  0.32747119  0.87355902  0.52139111  1
  O  O191  1  0.33679897  0.88120165  0.85814431  1
  O  O192  1  0.67051010  0.37326966  0.17775942  1
  O  O193  1  0.66574977  0.37474688  0.52335899  1
  O  O194  1  0.66888153  0.37153602  0.86293563  1
  O  O195  1  0.67402158  0.87591576  0.19166412  1
  O  O196  1  0.67421439  0.87284099  0.52419848  1
  O  O197  1  0.67275645  0.88222380  0.86054898  1
  O  O198  1  -0.00033100  0.12323198  0.14465310  1
  O  O199  1  -0.00202683  0.12183044  0.48645385  1
  O  O200  1  0.00093832  0.12862558  0.80275892  1
  O  O201  1  -0.01020718  0.62706650  0.15571794  1
  O  O202  1  -0.00181344  0.62728907  0.48749386  1
  O  O203  1  -0.00656142  0.62128922  0.80916530  1
  O  O204  1  0.33895316  0.12292575  0.14454606  1
  O  O205  1  0.33875496  0.12648885  0.48608116  1
  O  O206  1  0.33443683  0.12746893  0.80977554  1
  O  O207  1  0.33515231  0.62897307  0.14011065  1
  O  O208  1  0.32482822  0.62295599  0.47897776  1
  O  O209  1  0.33457815  0.62199601  0.80994081  1
  O  O210  1  0.66208902  0.12337820  0.14039700  1
  O  O211  1  0.66101736  0.12619076  0.47685572  1
  O  O212  1  0.66859959  0.12646170  0.80309828  1
  O  O213  1  0.67268817  0.62785985  0.13758556  1
  O  O214  1  0.67243263  0.62472056  0.47685897  1
  O  O215  1  0.67121891  0.61917817  0.80824852  1
  O  O216  1  0.07648230  0.01301775  0.25368815  1
  O  O217  1  0.07972472  0.01236190  0.59206176  1
  O  O218  1  0.08011775  0.02588527  0.92266993  1
  O  O219  1  0.08460257  0.50683790  0.25371924  1
  O  O220  1  0.07965998  0.52238756  0.58848284  1
  O  O221  1  0.08280854  0.49914238  0.91595943  1
  O  O222  1  0.41831488  0.01413352  0.24572844  1
  O  O223  1  0.41796581  0.01696729  0.58487473  1
  O  O224  1  0.42021938  0.02103626  0.91076442  1
  O  O225  1  0.41252097  0.51834068  0.25564128  1
  O  O226  1  0.40603123  0.51228197  0.59289460  1
  O  O227  1  0.41381688  0.51206064  0.92775072  1
  O  O228  1  0.73937915  0.01779490  0.25623892  1
  O  O229  1  0.73857014  0.01527039  0.59277965  1
  O  O230  1  0.74950892  0.02962864  0.91531351  1
  O  O231  1  0.74802849  0.52599459  0.24806936  1
  O  O232  1  0.75190175  0.52100388  0.58509358  1
  O  O233  1  0.75096414  0.52034324  0.91519528  1
  O  O234  1  0.24890395  0.23267837  0.24063660  1
  O  O235  1  0.25205475  0.24721722  0.58822404  1
  O  O236  1  0.24181544  0.23165760  0.90758575  1
  O  O237  1  0.25523211  0.73606951  0.25839688  1
  O  O238  1  0.25195435  0.72440630  0.58722552  1
  O  O239  1  0.25955088  0.74150240  0.92214406  1
  O  O240  1  0.58108695  0.23044493  0.24466746  1
  O  O241  1  0.57990757  0.22800303  0.58215548  1
  O  O242  1  0.58378980  0.22577693  0.91348058  1
  O  O243  1  0.59384968  0.74009633  0.25481402  1
  O  O244  1  0.59401069  0.73859243  0.59536203  1
  O  O245  1  0.59559232  0.73929250  0.92894233  1
  O  O246  1  0.91070602  0.24064361  0.24063594  1
  O  O247  1  0.91684317  0.23749546  0.59018705  1
  O  O248  1  0.91438277  0.22296131  0.91254603  1
  O  O249  1  0.90887155  0.74401821  0.24634810  1
  O  O250  1  0.91597291  0.72804816  0.58776722  1
  O  O251  1  0.91229138  0.73943499  0.91362617  1
  O  O252  1  0.08322123  0.48967064  0.07886491  1
  O  O253  1  0.08983776  0.49054268  0.42900939  1
  O  O254  1  0.08326270  0.47395759  0.75013989  1
  O  O255  1  0.09323011  0.98594194  0.09212020  1
  O  O256  1  0.08204506  0.97929139  0.41754254  1
  O  O257  1  0.09256030  0.98851737  0.76105390  1
  O  O258  1  0.42484851  0.47970541  0.08616764  1
  O  O259  1  0.42037729  0.48565614  0.42486789  1
  O  O260  1  0.41963238  0.47220913  0.75467192  1
  O  O261  1  0.41995453  0.97901500  0.08035818  1
  O  O262  1  0.42153536  0.99825639  0.41789715  1
  O  O263  1  0.41611282  0.98184478  0.74986616  1
  O  O264  1  0.75230215  0.47866070  0.08238160  1
  O  O265  1  0.75451550  0.48517469  0.42462427  1
  O  O266  1  0.75061315  0.47269276  0.74890674  1
  O  O267  1  0.74810379  0.98049870  0.08346050  1
  O  O268  1  0.75334905  0.97871837  0.42111892  1
  O  O269  1  0.74843717  0.97656818  0.75256778  1
  O  O270  1  0.26106490  0.26395335  0.07180949  1
  O  O271  1  0.24951140  0.26120993  0.42286356  1
  O  O272  1  0.24987925  0.27851478  0.74777550  1
  O  O273  1  0.24918174  0.77365833  0.08404630  1
  O  O274  1  0.23936706  0.76429029  0.42874192  1
  O  O275  1  0.25222376  0.77132310  0.75026805  1
  O  O276  1  0.58676997  0.27039073  0.07926385  1
  O  O277  1  0.57972436  0.26504080  0.42138993  1
  O  O278  1  0.58476785  0.27384958  0.74736179  1
  O  O279  1  0.58139436  0.77757722  0.08853886  1
  O  O280  1  0.59058661  0.76249865  0.41557647  1
  O  O281  1  0.58108256  0.77320265  0.75963254  1
  O  O282  1  0.91783747  0.27004004  0.07403602  1
  O  O283  1  0.91420128  0.26424667  0.42196530  1
  O  O284  1  0.91642781  0.27352086  0.75034200  1
  O  O285  1  0.90778960  0.76638425  0.08721777  1
  O  O286  1  0.91234770  0.77257537  0.41327042  1
  O  O287  1  0.90497913  0.76134716  0.75328079  1
  O  O288  1  0.26056991  0.48836944  0.07500205  1
  O  O289  1  0.24751832  0.48503115  0.42397385  1
  O  O290  1  0.25226808  0.47302846  0.74319994  1
  O  O291  1  0.25461132  0.97962214  0.07705511  1
  O  O292  1  0.24517333  0.98795105  0.42071382  1
  O  O293  1  0.25248938  0.97701809  0.75076437  1
  O  O294  1  0.58486978  0.47748900  0.08518765  1
  O  O295  1  0.58018298  0.48353894  0.42575400  1
  O  O296  1  0.58472240  0.47175480  0.75652491  1
  O  O297  1  0.58481317  0.97481451  0.08386487  1
  O  O298  1  0.59389322  0.98615657  0.40798537  1
  O  O299  1  0.58390241  0.98194429  0.75253973  1
  O  O300  1  0.91536218  0.47690217  0.07474634  1
  O  O301  1  0.91314081  0.48854984  0.42492884  1
  O  O302  1  0.91657418  0.47280026  0.74699197  1
  O  O303  1  0.91195379  0.98461309  0.08436029  1
  O  O304  1  0.91507336  0.97660332  0.41105811  1
  O  O305  1  0.90709086  0.99160324  0.75508238  1
  O  O306  1  0.07954917  0.25835296  0.07730184  1
  O  O307  1  0.08476873  0.26401178  0.42822826  1
  O  O308  1  0.08525294  0.27635295  0.75710230  1
  O  O309  1  0.08839452  0.76626379  0.08498487  1
  O  O310  1  0.08121653  0.77177727  0.41307817  1
  O  O311  1  0.08463677  0.75844449  0.74706534  1
  O  O312  1  0.42394287  0.26708681  0.08297930  1
  O  O313  1  0.42228004  0.26042969  0.42330893  1
  O  O314  1  0.41901912  0.27273525  0.74907665  1
  O  O315  1  0.41831368  0.77308385  0.07923050  1
  O  O316  1  0.41081439  0.75235539  0.41699163  1
  O  O317  1  0.41508750  0.77398322  0.75225750  1
  O  O318  1  0.75188648  0.26762056  0.08253494  1
  O  O319  1  0.75244028  0.26521022  0.42530002  1
  O  O320  1  0.75278295  0.27710973  0.75309805  1
  O  O321  1  0.74646620  0.77449563  0.07954390  1
  O  O322  1  0.75093749  0.77176861  0.41619144  1
  O  O323  1  0.74388109  0.77131551  0.74459142  1
  O  O324  1  0.24235229  0.01233027  0.24064974  1
  O  O325  1  0.25203678  0.00804976  0.58911014  1
  O  O326  1  0.24477453  0.02327901  0.90993977  1
  O  O327  1  0.25481232  0.51556941  0.25531568  1
  O  O328  1  0.24685526  0.51600830  0.58225945  1
  O  O329  1  0.25299248  0.50402310  0.91545994  1
  O  O330  1  0.57962420  0.02035465  0.24463679  1
  O  O331  1  0.57943090  0.02165362  0.58122082  1
  O  O332  1  0.58607359  0.02601367  0.91558121  1
  O  O333  1  0.59041011  0.51484519  0.25349824  1
  O  O334  1  0.59372354  0.51225151  0.59422915  1
  O  O335  1  0.59285225  0.51022798  0.92587149  1
  O  O336  1  0.90914543  0.00396236  0.24651849  1
  O  O337  1  0.91415884  0.01191123  0.58676103  1
  O  O338  1  0.91651574  0.02577247  0.91623180  1
  O  O339  1  0.90660572  0.51012680  0.23972973  1
  O  O340  1  0.91708419  0.52421585  0.58886244  1
  O  O341  1  0.90878833  0.51175264  0.90904170  1
  O  O342  1  0.07972425  0.23330086  0.24661669  1
  O  O343  1  0.07382195  0.23609531  0.59605509  1
  O  O344  1  0.07964835  0.22457996  0.91661377  1
  O  O345  1  0.08431645  0.74878152  0.24961388  1
  O  O346  1  0.08820012  0.73002828  0.58163192  1
  O  O347  1  0.08908723  0.74964506  0.91333517  1
  O  O348  1  0.41830867  0.23112015  0.24658685  1
  O  O349  1  0.41932588  0.23265767  0.58390378  1
  O  O350  1  0.42234270  0.22912632  0.91382821  1
  O  O351  1  0.41713471  0.74071123  0.24957932  1
  O  O352  1  0.40932018  0.73804238  0.59197105  1
  O  O353  1  0.41666093  0.73806707  0.91983274  1
  O  O354  1  0.74201426  0.22910148  0.25163203  1
  O  O355  1  0.73861174  0.23812652  0.59431847  1
  O  O356  1  0.75035351  0.22344709  0.91721591  1
  O  O357  1  0.75061673  0.72632870  0.24747325  1
  O  O358  1  0.75393140  0.72239054  0.58079702  1
  O  O359  1  0.75274780  0.72873535  0.91198717  1
