# generated using pymatgen
data_Ba17Sr5La8Pr42Mn72O216
_symmetry_space_group_name_H-M   'P 1'
_cell_length_a   16.67305182
_cell_length_b   15.70364807
_cell_length_c   16.81708983
_cell_angle_alpha   89.99873670
_cell_angle_beta   90.01749459
_cell_angle_gamma   90.00117776
_symmetry_Int_Tables_number   1
_chemical_formula_structural   Ba17Sr5La8Pr42Mn72O216
_chemical_formula_sum   'Ba17 Sr5 La8 Pr42 Mn72 O216'
_cell_volume   4403.18038249
_cell_formula_units_Z   1
loop_
 _symmetry_equiv_pos_site_id
 _symmetry_equiv_pos_as_xyz
  1  'x, y, z'
loop_
 _atom_site_type_symbol
 _atom_site_label
 _atom_site_symmetry_multiplicity
 _atom_site_fract_x
 _atom_site_fract_y
 _atom_site_fract_z
 _atom_site_occupancy
  Ba  Ba0  1  0.83487842  0.37368798  0.83146743  1
  Ba  Ba1  1  0.16232582  0.87497286  0.16504786  1
  Ba  Ba2  1  0.00183394  0.37129683  0.33116373  1
  Ba  Ba3  1  0.00263329  0.62342136  0.66438127  1
  Ba  Ba4  1  0.33222010  0.12566319  0.99940827  1
  Ba  Ba5  1  0.82926670  0.87611598  0.49882002  1
  Ba  Ba6  1  0.66263241  0.87345972  0.66622660  1
  Ba  Ba7  1  0.50273310  0.62572313  0.16757988  1
  Ba  Ba8  1  0.33714988  0.37289768  0.33526201  1
  Ba  Ba9  1  0.83579105  0.37453851  0.16304322  1
  Ba  Ba10  1  0.16659433  0.62357032  0.83423925  1
  Ba  Ba11  1  0.83607486  0.62574227  0.49837751  1
  Ba  Ba12  1  0.32884865  0.87500552  -0.00006206  1
  Ba  Ba13  1  0.66608667  0.12256860  0.99771192  1
  Ba  Ba14  1  0.49873669  0.12664396  0.83600664  1
  Ba  Ba15  1  0.66835272  0.62682670  1.00109555  1
  Ba  Ba16  1  0.17102291  0.62475675  0.50314455  1
  Sr  Sr17  1  -0.00348690  0.87363969  0.00096457  1
  Sr  Sr18  1  0.33422245  0.37623619  0.00421275  1
  Sr  Sr19  1  0.33409603  0.62511770  0.99996457  1
  Sr  Sr20  1  -0.00054342  0.12450309  0.33006615  1
  Sr  Sr21  1  0.66305472  0.87585931  -0.00316154  1
  La  La22  1  0.83697291  0.62771172  0.83239454  1
  La  La23  1  0.33615547  0.62499610  0.66716289  1
  La  La24  1  0.66874882  0.37741033  0.33321894  1
  La  La25  1  0.17083859  0.62483669  0.16648967  1
  La  La26  1  0.16651365  0.12250298  0.16759980  1
  La  La27  1  0.83349977  0.12472286  0.16482311  1
  La  La28  1  0.49585934  0.87647183  0.83864625  1
  La  La29  1  0.66587345  0.12501724  0.66607028  1
  Pr  Pr30  1  0.33448303  0.12454156  0.66895494  1
  Pr  Pr31  1  -0.00245665  0.12355351  0.99795545  1
  Pr  Pr32  1  0.16503333  0.12439957  0.83964267  1
  Pr  Pr33  1  0.00499694  0.37716697  0.00585264  1
  Pr  Pr34  1  0.33514667  0.37571746  0.66826248  1
  Pr  Pr35  1  0.16976690  0.37248765  0.16426377  1
  Pr  Pr36  1  0.15703796  0.87540850  0.83591715  1
  Pr  Pr37  1  0.67135053  0.62377168  0.66572304  1
  Pr  Pr38  1  0.67708197  0.62773747  0.32580671  1
  Pr  Pr39  1  -0.00871353  0.87132545  0.66930011  1
  Pr  Pr40  1  0.33751796  0.62424992  0.32951096  1
  Pr  Pr41  1  0.15920308  0.87440796  0.49736410  1
  Pr  Pr42  1  0.00836761  0.37859990  0.66590901  1
  Pr  Pr43  1  0.16764690  0.13018024  0.50217339  1
  Pr  Pr44  1  0.50378715  0.37238855  0.49694596  1
  Pr  Pr45  1  0.00590312  0.62501532  0.33266258  1
  Pr  Pr46  1  -0.00475567  0.87722053  0.33583529  1
  Pr  Pr47  1  0.83657373  0.12663400  0.49877934  1
  Pr  Pr48  1  0.50040925  0.37629930  0.16294098  1
  Pr  Pr49  1  0.16893408  0.37793381  0.49647353  1
  Pr  Pr50  1  0.33446057  0.12352476  0.33022469  1
  Pr  Pr51  1  0.82873274  0.87662145  0.16273000  1
  Pr  Pr52  1  0.50059663  0.12831131  0.50424322  1
  Pr  Pr53  1  0.82609850  0.87603759  0.82910544  1
  Pr  Pr54  1  0.66895880  0.12239223  0.32799660  1
  Pr  Pr55  1  0.83895183  0.62713043  0.16803791  1
  Pr  Pr56  1  0.50375999  0.62233190  0.50076569  1
  Pr  Pr57  1  0.65599115  0.87293407  0.33862275  1
  Pr  Pr58  1  0.83825677  0.37721654  0.49378953  1
  Pr  Pr59  1  0.32674755  0.87455297  0.67386515  1
  Pr  Pr60  1  0.50189984  0.62698487  0.84110896  1
  Pr  Pr61  1  0.82784730  0.12194376  0.83482629  1
  Pr  Pr62  1  0.00031486  0.62475294  0.99747843  1
  Pr  Pr63  1  0.49975114  0.37499157  0.83851472  1
  Pr  Pr64  1  0.32451145  0.87453168  0.33459956  1
  Pr  Pr65  1  0.17243041  0.37568774  0.83639684  1
  Pr  Pr66  1  0.49404130  0.87465455  0.16229617  1
  Pr  Pr67  1  0.66752572  0.37590996  0.66811002  1
  Pr  Pr68  1  0.49897293  0.12297455  0.16608183  1
  Pr  Pr69  1  0.66493648  0.37314374  0.00297518  1
  Pr  Pr70  1  0.49285100  0.87731908  0.50090061  1
  Pr  Pr71  1  -0.00221332  0.12781038  0.66332003  1
  Mn  Mn72  1  -0.00214977  0.00022000  0.16607883  1
  Mn  Mn73  1  0.00079610  0.00344182  0.50008286  1
  Mn  Mn74  1  -0.00140876  0.00122026  0.83114677  1
  Mn  Mn75  1  0.00265342  0.50114610  0.16556431  1
  Mn  Mn76  1  0.00225278  0.49805727  0.49871829  1
  Mn  Mn77  1  0.00045711  0.49719534  0.83438723  1
  Mn  Mn78  1  0.33287452  0.00118725  0.16860866  1
  Mn  Mn79  1  0.33211841  0.00123751  0.50186739  1
  Mn  Mn80  1  0.33001623  -0.00009319  0.83229887  1
  Mn  Mn81  1  0.33427503  0.49932097  0.16775698  1
  Mn  Mn82  1  0.33791417  0.50013894  0.50175735  1
  Mn  Mn83  1  0.33450926  0.49837573  0.83486516  1
  Mn  Mn84  1  0.66582161  -0.00132281  0.16703288  1
  Mn  Mn85  1  0.66391051  0.00136731  0.49711327  1
  Mn  Mn86  1  0.66414117  -0.00143350  0.83148983  1
  Mn  Mn87  1  0.66880392  0.49991030  0.16721910  1
  Mn  Mn88  1  0.66710273  0.49963707  0.50004404  1
  Mn  Mn89  1  0.66604856  0.49942287  0.83250398  1
  Mn  Mn90  1  0.00134153  0.24790364  0.16500141  1
  Mn  Mn91  1  0.00131440  0.24781722  0.49972959  1
  Mn  Mn92  1  0.00185082  0.25025827  0.83154307  1
  Mn  Mn93  1  -0.00065966  0.74940260  0.16591732  1
  Mn  Mn94  1  0.00038110  0.75247015  0.50014197  1
  Mn  Mn95  1  -0.00171361  0.75158914  0.83511664  1
  Mn  Mn96  1  0.33430572  0.24890096  0.16829788  1
  Mn  Mn97  1  0.33472791  0.24771912  0.50239777  1
  Mn  Mn98  1  0.33257435  0.25307108  0.83432025  1
  Mn  Mn99  1  0.33296748  0.74864908  0.16803282  1
  Mn  Mn100  1  0.33549935  0.75281307  0.50188124  1
  Mn  Mn101  1  0.33126044  0.74960780  0.83258816  1
  Mn  Mn102  1  0.66546908  0.24830916  0.16667866  1
  Mn  Mn103  1  0.66780618  0.24891081  0.49844216  1
  Mn  Mn104  1  0.66620964  0.25269648  0.83243304  1
  Mn  Mn105  1  0.66886020  0.75362740  0.16727196  1
  Mn  Mn106  1  0.66317125  0.74907490  0.49920549  1
  Mn  Mn107  1  0.66455870  0.74903358  0.83200263  1
  Mn  Mn108  1  0.16512361  0.24962406  0.00042217  1
  Mn  Mn109  1  0.16812518  0.24833009  0.33442096  1
  Mn  Mn110  1  0.16856954  0.24888698  0.66944399  1
  Mn  Mn111  1  0.16471917  0.74935225  0.00069728  1
  Mn  Mn112  1  0.16646622  0.75008217  0.33445407  1
  Mn  Mn113  1  0.16686323  0.75372374  0.66656345  1
  Mn  Mn114  1  0.49925106  0.25152901  0.00166006  1
  Mn  Mn115  1  0.50282148  0.24749896  0.33419507  1
  Mn  Mn116  1  0.49986540  0.25198360  0.66707555  1
  Mn  Mn117  1  0.49953458  0.75058089  0.00102199  1
  Mn  Mn118  1  0.49823154  0.75202938  0.33603577  1
  Mn  Mn119  1  0.49734418  0.74730850  0.66733364  1
  Mn  Mn120  1  0.83488424  0.24920616  -0.00352736  1
  Mn  Mn121  1  0.83233817  0.24900226  0.33299041  1
  Mn  Mn122  1  0.83345184  0.24972221  0.66405050  1
  Mn  Mn123  1  0.83331436  0.75202745  -0.00020893  1
  Mn  Mn124  1  0.83535278  0.75165041  0.32969472  1
  Mn  Mn125  1  0.83176163  0.74914420  0.66603443  1
  Mn  Mn126  1  0.16240014  0.00033485  0.00086892  1
  Mn  Mn127  1  0.16603934  0.00055400  0.33587814  1
  Mn  Mn128  1  0.16566334  0.00232355  0.66749582  1
  Mn  Mn129  1  0.16770996  0.49967611  0.00161841  1
  Mn  Mn130  1  0.16887166  0.50012121  0.33363756  1
  Mn  Mn131  1  0.17108690  0.49735098  0.66685087  1
  Mn  Mn132  1  0.49903820  -0.00161341  0.00126870  1
  Mn  Mn133  1  0.49836575  -0.00014555  0.33433384  1
  Mn  Mn134  1  0.49760682  0.00118409  0.66600412  1
  Mn  Mn135  1  0.49912088  0.50100976  0.00033653  1
  Mn  Mn136  1  0.50310435  0.49946816  0.33548767  1
  Mn  Mn137  1  0.50064758  0.49900407  0.66859023  1
  Mn  Mn138  1  0.83327864  -0.00226258  -0.00173903  1
  Mn  Mn139  1  0.83237323  0.00108280  0.33054523  1
  Mn  Mn140  1  0.83237036  0.00365513  0.66598340  1
  Mn  Mn141  1  0.83380292  0.50044008  -0.00228943  1
  Mn  Mn142  1  0.83572350  0.49946004  0.33158298  1
  Mn  Mn143  1  0.83367198  0.49642887  0.66359168  1
  O  O144  1  0.15817949  0.12622865  0.01995659  1
  O  O145  1  0.17394322  0.12218064  0.35917304  1
  O  O146  1  0.16590595  0.12648593  0.69831228  1
  O  O147  1  0.15836992  0.62219163  0.01981524  1
  O  O148  1  0.16532499  0.62580037  0.34761495  1
  O  O149  1  0.17560211  0.62136589  0.67718491  1
  O  O150  1  0.50135970  0.12590277  0.01956707  1
  O  O151  1  0.49972385  0.12031023  0.36191976  1
  O  O152  1  0.50583469  0.12833926  0.68026415  1
  O  O153  1  0.49759107  0.62579923  0.00690287  1
  O  O154  1  0.49150977  0.62974879  0.35767820  1
  O  O155  1  0.49935664  0.61817216  0.69641905  1
  O  O156  1  0.83801719  0.12176247  0.01988160  1
  O  O157  1  0.82399657  0.12503810  0.35589228  1
  O  O158  1  0.84070413  0.12795516  0.69121277  1
  O  O159  1  0.83868122  0.62709027  0.02317724  1
  O  O160  1  0.82676234  0.62554746  0.34196543  1
  O  O161  1  0.83183749  0.62020183  0.68412468  1
  O  O162  1  0.16881266  0.37531849  0.30966700  1
  O  O163  1  0.17067598  0.36923459  0.64014284  1
  O  O164  1  0.15878355  0.37319884  0.98068456  1
  O  O165  1  0.16931141  0.87619724  0.32098486  1
  O  O166  1  0.17449942  0.88378070  0.63894252  1
  O  O167  1  0.16164335  0.87785262  0.98198681  1
  O  O168  1  0.50733149  0.36921443  0.30770182  1
  O  O169  1  0.49603195  0.37582991  0.63772910  1
  O  O170  1  0.50224254  0.37748893  0.98522187  1
  O  O171  1  0.50537630  0.87901045  0.30594432  1
  O  O172  1  0.48817757  0.87694794  0.64434972  1
  O  O173  1  0.49847178  0.87293429  0.98611878  1
  O  O174  1  0.82907168  0.37316122  0.32153299  1
  O  O175  1  0.82230711  0.37052475  0.63881627  1
  O  O176  1  0.83585352  0.37483438  0.98735216  1
  O  O177  1  0.84324101  0.87698090  0.30766444  1
  O  O178  1  0.83497158  0.87941432  0.65854199  1
  O  O179  1  0.83866482  0.87552574  0.97265315  1
  O  O180  1  0.00565341  0.37404213  0.17564420  1
  O  O181  1  0.00026302  0.36813494  0.51945529  1
  O  O182  1  0.00569751  0.37094403  0.86110965  1
  O  O183  1  -0.00727766  0.87528310  0.19282516  1
  O  O184  1  0.00559366  0.88316187  0.52336264  1
  O  O185  1  -0.00302586  0.87896871  0.85141711  1
  O  O186  1  0.33206918  0.37323055  0.17949755  1
  O  O187  1  0.33956871  0.36899529  0.52460319  1
  O  O188  1  0.33113972  0.37572511  0.85420866  1
  O  O189  1  0.33945245  0.87724986  0.18918039  1
  O  O190  1  0.34074595  0.87914696  0.52991121  1
  O  O191  1  0.34384617  0.87402562  0.83812753  1
  O  O192  1  0.65900975  0.37201756  0.18931721  1
  O  O193  1  0.66694598  0.37262844  0.52540068  1
  O  O194  1  0.66639391  0.37745377  0.85660184  1
  O  O195  1  0.67289602  0.87770226  0.19573555  1
  O  O196  1  0.66026469  0.87584183  0.51032897  1
  O  O197  1  0.67702915  0.87285008  0.84176300  1
  O  O198  1  0.00075561  0.12443341  0.14324778  1
  O  O199  1  0.00369784  0.12541968  0.47947731  1
  O  O200  1  0.01054407  0.12572130  0.80376599  1
  O  O201  1  -0.00262878  0.62495037  0.14216380  1
  O  O202  1  0.00326263  0.62495985  0.48056843  1
  O  O203  1  -0.00465497  0.62496586  0.82154401  1
  O  O204  1  0.33530472  0.12490101  0.15740995  1
  O  O205  1  0.33289670  0.12367618  0.47352171  1
  O  O206  1  0.32319125  0.12793186  0.81327569  1
  O  O207  1  0.32896111  0.62306392  0.15452857  1
  O  O208  1  0.34041677  0.63138547  0.47344583  1
  O  O209  1  0.33754211  0.62169023  0.81118609  1
  O  O210  1  0.66248380  0.12300942  0.15291168  1
  O  O211  1  0.65688910  0.12642683  0.47090037  1
  O  O212  1  0.66753639  0.12730860  0.81334213  1
  O  O213  1  0.67586722  0.62833817  0.15969532  1
  O  O214  1  0.65641180  0.62318221  0.47098442  1
  O  O215  1  0.65349166  0.62247429  0.81004582  1
  O  O216  1  0.08738634  0.01847681  0.24860178  1
  O  O217  1  0.08813354  0.02809826  0.58389430  1
  O  O218  1  0.08220130  0.01952484  0.91126692  1
  O  O219  1  0.08343924  0.52218682  0.24968075  1
  O  O220  1  0.08645152  0.49800331  0.58454466  1
  O  O221  1  0.07534708  0.51046124  0.92772737  1
  O  O222  1  0.42226781  0.02305487  0.25192891  1
  O  O223  1  0.41974842  0.02642537  0.57701755  1
  O  O224  1  0.41441840  0.00525249  0.91113288  1
  O  O225  1  0.41529342  0.51232314  0.25654223  1
  O  O226  1  0.42061362  0.52483437  0.58573570  1
  O  O227  1  0.41991547  0.51280869  0.91134222  1
  O  O228  1  0.75351627  0.02197132  0.24408139  1
  O  O229  1  0.75253860  0.02567667  0.57843956  1
  O  O230  1  0.75766128  0.01042276  0.90831516  1
  O  O231  1  0.75401200  0.51374037  0.24786386  1
  O  O232  1  0.74444898  0.51650774  0.58397384  1
  O  O233  1  0.75308546  0.51987195  0.90620006  1
  O  O234  1  0.24981113  0.22816907  0.25076320  1
  O  O235  1  0.24877904  0.22360559  0.58613740  1
  O  O236  1  0.23695877  0.23973389  0.90837804  1
  O  O237  1  0.25692505  0.73502006  0.25970416  1
  O  O238  1  0.26669368  0.73974234  0.59484022  1
  O  O239  1  0.25631250  0.74033177  0.91932597  1
  O  O240  1  0.58027949  0.22314423  0.24979445  1
  O  O241  1  0.58242590  0.23409929  0.57826123  1
  O  O242  1  0.58317958  0.25032301  0.91764339  1
  O  O243  1  0.59607930  0.73864504  0.26658997  1
  O  O244  1  0.58420290  0.72466054  0.59290671  1
  O  O245  1  0.58524863  0.74470344  0.91596817  1
  O  O246  1  0.91338791  0.23061625  0.24320732  1
  O  O247  1  0.91499251  0.22753509  0.57867365  1
  O  O248  1  0.91609974  0.22334476  0.90491520  1
  O  O249  1  0.92481970  0.72467591  0.25464505  1
  O  O250  1  0.92069392  0.74854154  0.58863195  1
  O  O251  1  0.92173434  0.73077659  0.92442388  1
  O  O252  1  0.08971711  0.48062111  0.08950792  1
  O  O253  1  0.08877664  0.48290372  0.41857501  1
  O  O254  1  0.08844754  0.47619494  0.75299727  1
  O  O255  1  0.07402437  0.99125889  0.07788389  1
  O  O256  1  0.08133624  0.97971523  0.41536688  1
  O  O257  1  0.07957433  0.97449017  0.74521350  1
  O  O258  1  0.41888368  0.48437404  0.08784784  1
  O  O259  1  0.42697840  0.48412172  0.42681292  1
  O  O260  1  0.41708535  0.47433551  0.74771026  1
  O  O261  1  0.41996313  0.98947701  0.09111204  1
  O  O262  1  0.41176671  0.97681592  0.40820203  1
  O  O263  1  0.40486197  0.99439876  0.73785293  1
  O  O264  1  0.74627299  0.48455973  0.07581033  1
  O  O265  1  0.74921869  0.48029552  0.41813809  1
  O  O266  1  0.74285041  0.48713821  0.74169209  1
  O  O267  1  0.74898529  0.98162316  0.08259154  1
  O  O268  1  0.73900425  0.98695917  0.40326495  1
  O  O269  1  0.74893095  0.99736255  0.74709651  1
  O  O270  1  0.24657121  0.26398691  0.08291573  1
  O  O271  1  0.25025792  0.26491734  0.42583432  1
  O  O272  1  0.25496319  0.27392982  0.74542249  1
  O  O273  1  0.24375367  0.75155389  0.09062208  1
  O  O274  1  0.24795555  0.77442417  0.42724229  1
  O  O275  1  0.23959547  0.77414107  0.75758716  1
  O  O276  1  0.58281651  0.27213402  0.08518157  1
  O  O277  1  0.58903601  0.27334696  0.41309640  1
  O  O278  1  0.58227773  0.27598623  0.74806873  1
  O  O279  1  0.58070028  0.76946955  0.09586142  1
  O  O280  1  0.57026977  0.77027638  0.42695902  1
  O  O281  1  0.56569052  0.76524101  0.75936326  1
  O  O282  1  0.92752381  0.25788261  0.07106070  1
  O  O283  1  0.91248512  0.25907920  0.42109809  1
  O  O284  1  0.93156941  0.26734838  0.73867300  1
  O  O285  1  0.90596723  0.76610996  0.09500257  1
  O  O286  1  0.91817695  0.76534417  0.41131228  1
  O  O287  1  0.90918463  0.76715465  0.75899062  1
  O  O288  1  0.24649791  0.48437723  0.08877875  1
  O  O289  1  0.25121097  0.48486683  0.42258388  1
  O  O290  1  0.25184040  0.47605750  0.75060911  1
  O  O291  1  0.24427115  0.99798691  0.09011321  1
  O  O292  1  0.24653718  0.97786465  0.42583944  1
  O  O293  1  0.24273461  0.97883277  0.75369568  1
  O  O294  1  0.58360924  0.48113790  0.08582900  1
  O  O295  1  0.58455419  0.47480289  0.42089325  1
  O  O296  1  0.58105715  0.47106645  0.74934584  1
  O  O297  1  0.57871862  0.98182977  0.09507996  1
  O  O298  1  0.57228361  0.97764935  0.41872699  1
  O  O299  1  0.57250852  0.98428921  0.75275316  1
  O  O300  1  0.92808101  0.49043360  0.07416636  1
  O  O301  1  0.91649150  0.48700465  0.41613967  1
  O  O302  1  0.92342342  0.48006882  0.74217340  1
  O  O303  1  0.90972572  0.98282969  0.08576030  1
  O  O304  1  0.91641418  0.98914780  0.41109388  1
  O  O305  1  0.91429038  0.98405486  0.75178843  1
  O  O306  1  0.08770690  0.26882741  0.08556164  1
  O  O307  1  0.09237660  0.26260017  0.42750718  1
  O  O308  1  0.09190109  0.27644532  0.75554636  1
  O  O309  1  0.07137100  0.75829688  0.07793915  1
  O  O310  1  0.07831243  0.77100961  0.41096760  1
  O  O311  1  0.07584502  0.77386335  0.74589008  1
  O  O312  1  0.42484178  0.26212127  0.09374035  1
  O  O313  1  0.42972114  0.26014976  0.42742918  1
  O  O314  1  0.41785140  0.27115623  0.75122732  1
  O  O315  1  0.41596338  0.76224538  0.08746372  1
  O  O316  1  0.41010095  0.78163942  0.41412129  1
  O  O317  1  0.40115119  0.75776195  0.73381490  1
  O  O318  1  0.74470975  0.26183113  0.08083996  1
  O  O319  1  0.75093246  0.26964276  0.42192506  1
  O  O320  1  0.74243450  0.26191907  0.74012270  1
  O  O321  1  0.74782998  0.77298751  0.07727666  1
  O  O322  1  0.73993305  0.76293179  0.39918513  1
  O  O323  1  0.74550907  0.74963186  0.74705056  1
  O  O324  1  0.25628068  0.01505208  0.26006404  1
  O  O325  1  0.25170903  0.02952435  0.59057325  1
  O  O326  1  0.24166833  0.01014292  0.91142721  1
  O  O327  1  0.25083857  0.51974893  0.25226530  1
  O  O328  1  0.26145728  0.50595430  0.59045449  1
  O  O329  1  0.24925758  0.50723272  0.92077964  1
  O  O330  1  0.58430962  0.01988187  0.25858801  1
  O  O331  1  0.58391221  0.01970088  0.58393635  1
  O  O332  1  0.58368315  -0.00221178  0.91603693  1
  O  O333  1  0.59231285  0.51487221  0.26108942  1
  O  O334  1  0.58409912  0.51973599  0.58593178  1
  O  O335  1  0.58017811  0.50906143  0.91152266  1
  O  O336  1  0.91457444  0.02249520  0.24684054  1
  O  O337  1  0.91815205  0.02330274  0.58443489  1
  O  O338  1  0.91899944  0.02586872  0.91337596  1
  O  O339  1  0.92030276  0.52147860  0.24685353  1
  O  O340  1  0.91559178  0.49712052  0.58011038  1
  O  O341  1  0.91388697  0.51958713  0.91354146  1
  O  O342  1  0.08508242  0.23021258  0.24678870  1
  O  O343  1  0.08170739  0.22931538  0.59108976  1
  O  O344  1  0.07744771  0.22683677  0.92092938  1
  O  O345  1  0.08475921  0.72888614  0.24468306  1
  O  O346  1  0.09056372  0.75011110  0.58012034  1
  O  O347  1  0.08412207  0.74342842  0.91241871  1
  O  O348  1  0.41788039  0.22699793  0.25793906  1
  O  O349  1  0.41324783  0.22572787  0.58836467  1
  O  O350  1  0.41477693  0.24795733  0.91928144  1
  O  O351  1  0.41667623  0.73833478  0.25560038  1
  O  O352  1  0.42765068  0.72796904  0.57331935  1
  O  O353  1  0.42266498  0.73921746  0.90243389  1
  O  O354  1  0.74560827  0.23089431  0.25192886  1
  O  O355  1  0.74731822  0.21907648  0.57835674  1
  O  O356  1  0.75408563  0.23469851  0.90893368  1
  O  O357  1  0.76437189  0.73947351  0.23764706  1
  O  O358  1  0.74531668  0.73403964  0.58086355  1
  O  O359  1  0.76110540  0.73646725  0.90625698  1
