# generated using pymatgen
data_Ba17Sr5La8Pr42Mn72O216
_symmetry_space_group_name_H-M   'P 1'
_cell_length_a   16.67062235
_cell_length_b   15.70307657
_cell_length_c   16.81760123
_cell_angle_alpha   90.01074273
_cell_angle_beta   90.02913798
_cell_angle_gamma   89.98013607
_symmetry_Int_Tables_number   1
_chemical_formula_structural   Ba17Sr5La8Pr42Mn72O216
_chemical_formula_sum   'Ba17 Sr5 La8 Pr42 Mn72 O216'
_cell_volume   4402.51173737
_cell_formula_units_Z   1
loop_
 _symmetry_equiv_pos_site_id
 _symmetry_equiv_pos_as_xyz
  1  'x, y, z'
loop_
 _atom_site_type_symbol
 _atom_site_label
 _atom_site_symmetry_multiplicity
 _atom_site_fract_x
 _atom_site_fract_y
 _atom_site_fract_z
 _atom_site_occupancy
  Ba  Ba0  1  0.66787805  0.37415682  -0.00005069  1
  Ba  Ba1  1  0.16827302  0.62721262  0.16894839  1
  Ba  Ba2  1  0.83293318  0.62720002  0.83208114  1
  Ba  Ba3  1  0.16728299  0.12402156  0.83575266  1
  Ba  Ba4  1  0.83319594  0.87494928  0.83123760  1
  Ba  Ba5  1  0.00398753  0.37685694  -0.00226608  1
  Ba  Ba6  1  0.66511654  0.62522337  0.33351120  1
  Ba  Ba7  1  0.00163604  0.12582730  0.33299397  1
  Ba  Ba8  1  0.16288972  0.12369366  0.50296272  1
  Ba  Ba9  1  0.66380476  0.62613141  0.66613331  1
  Ba  Ba10  1  0.83529137  0.12516330  0.16838266  1
  Ba  Ba11  1  0.33566263  0.37507969  0.67038329  1
  Ba  Ba12  1  0.66330495  0.87546172  0.66468408  1
  Ba  Ba13  1  0.33449780  0.37328175  0.00173846  1
  Ba  Ba14  1  0.83220102  0.87616235  0.16578090  1
  Ba  Ba15  1  0.50141879  0.37462122  0.16315835  1
  Ba  Ba16  1  0.66495249  0.87437150  0.33405687  1
  Sr  Sr17  1  0.17425008  0.37667900  0.83537396  1
  Sr  Sr18  1  0.00221665  0.62704245  0.99831382  1
  Sr  Sr19  1  0.16289082  0.87238916  0.16956173  1
  Sr  Sr20  1  0.49682047  0.87424074  0.49645518  1
  Sr  Sr21  1  0.33542762  0.62639848  0.33221593  1
  La  La22  1  0.17197564  0.37252507  0.50136417  1
  La  La23  1  0.32757494  0.87670249  0.00474453  1
  La  La24  1  0.00737752  0.37259968  0.33008610  1
  La  La25  1  0.83988441  0.37961813  0.50070093  1
  La  La26  1  0.32821856  0.87683717  0.66767464  1
  La  La27  1  0.49844343  0.12374162  0.83255601  1
  La  La28  1  0.84445357  0.37781261  0.83142462  1
  La  La29  1  0.16499931  0.62619983  0.50182077  1
  Pr  Pr30  1  -0.00178070  0.87568057  0.33251405  1
  Pr  Pr31  1  0.17068146  0.62165748  0.83984604  1
  Pr  Pr32  1  0.01224438  0.37505768  0.67345052  1
  Pr  Pr33  1  0.32943633  0.12744358  0.66508913  1
  Pr  Pr34  1  -0.00720636  0.12583743  0.66062134  1
  Pr  Pr35  1  0.50338556  0.12908437  0.16624257  1
  Pr  Pr36  1  0.16987734  0.37598497  0.16359317  1
  Pr  Pr37  1  0.33558929  0.12261640  0.33274409  1
  Pr  Pr38  1  0.66668839  0.12421058  1.00127367  1
  Pr  Pr39  1  0.50098656  0.62542602  0.83336867  1
  Pr  Pr40  1  0.33592258  0.62509032  1.00116852  1
  Pr  Pr41  1  0.33494089  0.38007131  0.33678473  1
  Pr  Pr42  1  0.67516493  0.37339829  0.33302958  1
  Pr  Pr43  1  -0.00069259  0.87747722  0.66605057  1
  Pr  Pr44  1  0.66057118  0.12195218  0.66541569  1
  Pr  Pr45  1  0.66665978  0.87394614  0.00209346  1
  Pr  Pr46  1  0.32691831  0.87265134  0.33759260  1
  Pr  Pr47  1  0.50511157  0.37536832  0.83109266  1
  Pr  Pr48  1  -0.00695300  0.62607753  0.66326706  1
  Pr  Pr49  1  0.83104502  0.86984266  0.49253764  1
  Pr  Pr50  1  0.16061984  0.87669090  0.49724591  1
  Pr  Pr51  1  0.82231751  0.62638408  0.50384293  1
  Pr  Pr52  1  0.82639886  0.12562137  0.50059922  1
  Pr  Pr53  1  0.66431070  0.12341416  0.32959568  1
  Pr  Pr54  1  0.83789665  0.37504879  0.16236613  1
  Pr  Pr55  1  0.33138725  0.62453973  0.66653433  1
  Pr  Pr56  1  0.50347568  0.37659018  0.49494101  1
  Pr  Pr57  1  0.16131031  0.87281442  0.83420028  1
  Pr  Pr58  1  -0.00196636  0.87234466  0.00193266  1
  Pr  Pr59  1  0.50000333  0.87137235  0.16584180  1
  Pr  Pr60  1  0.83420658  0.62136834  0.16397114  1
  Pr  Pr61  1  0.49611720  0.63063695  0.50103113  1
  Pr  Pr62  1  0.82849911  0.12556625  0.83509412  1
  Pr  Pr63  1  0.49709220  0.87552655  0.82739850  1
  Pr  Pr64  1  0.49907332  0.62082561  0.16782922  1
  Pr  Pr65  1  0.33528693  0.12491622  1.00161184  1
  Pr  Pr66  1  0.16855170  0.12769153  0.17149854  1
  Pr  Pr67  1  0.67393967  0.37371522  0.67306890  1
  Pr  Pr68  1  -0.00208645  0.62490115  0.32662195  1
  Pr  Pr69  1  0.66709452  0.62546772  0.99735381  1
  Pr  Pr70  1  -0.00346606  0.12124087  0.99956641  1
  Pr  Pr71  1  0.49541148  0.11928309  0.50023794  1
  Mn  Mn72  1  0.00347265  -0.00198792  0.16586127  1
  Mn  Mn73  1  -0.00489585  -0.00030473  0.50046094  1
  Mn  Mn74  1  -0.00037752  0.00108280  0.83160205  1
  Mn  Mn75  1  0.00144893  0.50145808  0.16601626  1
  Mn  Mn76  1  0.00180161  0.50026478  0.49788556  1
  Mn  Mn77  1  0.00407295  0.50203267  0.83190180  1
  Mn  Mn78  1  0.33399179  -0.00227900  0.16877501  1
  Mn  Mn79  1  0.33112345  -0.00096716  0.50097480  1
  Mn  Mn80  1  0.33300334  -0.00173970  0.83580181  1
  Mn  Mn81  1  0.33398660  0.50125476  0.16932566  1
  Mn  Mn82  1  0.33343585  0.50183855  0.50138891  1
  Mn  Mn83  1  0.33746747  0.50157894  0.83411669  1
  Mn  Mn84  1  0.66442546  -0.00075991  0.16600622  1
  Mn  Mn85  1  0.66538879  0.00160330  0.49857026  1
  Mn  Mn86  1  0.66468310  0.00089520  0.83400379  1
  Mn  Mn87  1  0.66824051  0.50109609  0.16569703  1
  Mn  Mn88  1  0.66403790  0.49669113  0.50041359  1
  Mn  Mn89  1  0.66674000  0.49912653  0.83298519  1
  Mn  Mn90  1  0.00262573  0.25056996  0.16530267  1
  Mn  Mn91  1  -0.00209946  0.25324957  0.50156576  1
  Mn  Mn92  1  0.00217758  0.24814882  0.83144744  1
  Mn  Mn93  1  -0.00071631  0.74925887  0.16550667  1
  Mn  Mn94  1  -0.00094782  0.74735699  0.49699668  1
  Mn  Mn95  1  0.00246176  0.75029624  0.83159257  1
  Mn  Mn96  1  0.33390156  0.24704237  0.16931853  1
  Mn  Mn97  1  0.33471265  0.25051733  0.50064815  1
  Mn  Mn98  1  0.33615149  0.24762215  0.83426168  1
  Mn  Mn99  1  0.33465477  0.75232859  0.16888141  1
  Mn  Mn100  1  0.33008858  0.74954429  0.50144125  1
  Mn  Mn101  1  0.33372396  0.75183885  0.83481004  1
  Mn  Mn102  1  0.66849235  0.24985543  0.16769520  1
  Mn  Mn103  1  0.66506367  0.25101755  0.50160465  1
  Mn  Mn104  1  0.66788922  0.24845707  0.83206234  1
  Mn  Mn105  1  0.66616219  0.74978488  0.16442310  1
  Mn  Mn106  1  0.66301400  0.75080838  0.49916146  1
  Mn  Mn107  1  0.66404276  0.75043601  0.83421424  1
  Mn  Mn108  1  0.16658934  0.24800312  0.00307446  1
  Mn  Mn109  1  0.17096541  0.25016427  0.33390612  1
  Mn  Mn110  1  0.16657658  0.24931434  0.66916781  1
  Mn  Mn111  1  0.16803865  0.75003698  0.00031455  1
  Mn  Mn112  1  0.16529170  0.75064159  0.33629718  1
  Mn  Mn113  1  0.16436533  0.75027508  0.66823284  1
  Mn  Mn114  1  0.50030744  0.24607846  -0.00183078  1
  Mn  Mn115  1  0.50021077  0.25083679  0.33391527  1
  Mn  Mn116  1  0.50200349  0.24850636  0.66381936  1
  Mn  Mn117  1  0.50012771  0.75270702  -0.00162263  1
  Mn  Mn118  1  0.49676013  0.74936775  0.33245136  1
  Mn  Mn119  1  0.49500166  0.75156914  0.66638232  1
  Mn  Mn120  1  0.83444691  0.24973688  -0.00126115  1
  Mn  Mn121  1  0.83434626  0.25284243  0.33529844  1
  Mn  Mn122  1  0.83341122  0.25005436  0.66697434  1
  Mn  Mn123  1  0.83322273  0.75029281  -0.00088146  1
  Mn  Mn124  1  0.83417900  0.74687118  0.33170453  1
  Mn  Mn125  1  0.83259691  0.75158327  0.66324813  1
  Mn  Mn126  1  0.16588742  -0.00137504  0.00443660  1
  Mn  Mn127  1  0.16754737  -0.00077387  0.33399860  1
  Mn  Mn128  1  0.16467427  -0.00137370  0.66875334  1
  Mn  Mn129  1  0.16927899  0.50052863  0.00163883  1
  Mn  Mn130  1  0.16832708  0.49957815  0.33581121  1
  Mn  Mn131  1  0.16615298  0.50424471  0.66909101  1
  Mn  Mn132  1  0.49965328  -0.00203708  -0.00107010  1
  Mn  Mn133  1  0.49737657  0.00075844  0.33196057  1
  Mn  Mn134  1  0.49605035  -0.00072088  0.66599845  1
  Mn  Mn135  1  0.50039766  0.50228256  -0.00095348  1
  Mn  Mn136  1  0.50030641  0.49921897  0.33285543  1
  Mn  Mn137  1  0.49998675  0.49978394  0.66457166  1
  Mn  Mn138  1  0.83271700  0.00104826  -0.00274186  1
  Mn  Mn139  1  0.83392232  -0.00027213  0.33484175  1
  Mn  Mn140  1  0.83176637  0.00134321  0.66493652  1
  Mn  Mn141  1  0.83406448  0.50030128  -0.00110497  1
  Mn  Mn142  1  0.83566752  0.49929133  0.33250095  1
  Mn  Mn143  1  0.83452545  0.49965615  0.66368079  1
  O  O144  1  0.16562781  0.12110165  0.02772176  1
  O  O145  1  0.17565113  0.12412650  0.34767384  1
  O  O146  1  0.16241896  0.12160044  0.67801950  1
  O  O147  1  0.17406099  0.62761245  0.01089909  1
  O  O148  1  0.15993864  0.62604286  0.35831266  1
  O  O149  1  0.16187092  0.63002982  0.69469289  1
  O  O150  1  0.49787724  0.11856137  0.02264240  1
  O  O151  1  0.50147244  0.12802964  0.35764480  1
  O  O152  1  0.49778287  0.12350933  0.68753553  1
  O  O153  1  0.49992248  0.63512464  0.02413067  1
  O  O154  1  0.49723435  0.62092709  0.35679700  1
  O  O155  1  0.48988748  0.62949528  0.68886976  1
  O  O156  1  0.83648731  0.12601537  0.01036202  1
  O  O157  1  0.83072438  0.12895683  0.35732888  1
  O  O158  1  0.83986084  0.12856216  0.69083136  1
  O  O159  1  0.82779525  0.62489573  0.01781435  1
  O  O160  1  0.84491689  0.62008297  0.36065313  1
  O  O161  1  0.83718813  0.62418570  0.67215169  1
  O  O162  1  0.17143231  0.37348308  0.30964055  1
  O  O163  1  0.16289770  0.37875726  0.64583532  1
  O  O164  1  0.16933409  0.37339822  0.98625841  1
  O  O165  1  0.16771324  0.87537700  0.31980690  1
  O  O166  1  0.16723093  0.87228123  0.64043290  1
  O  O167  1  0.16857500  0.87484948  0.97663942  1
  O  O168  1  0.48893895  0.37390866  0.31883805  1
  O  O169  1  0.50607173  0.36913406  0.64024371  1
  O  O170  1  0.49914122  0.36959046  0.97591994  1
  O  O171  1  0.49053884  0.87831198  0.31082456  1
  O  O172  1  0.49039397  0.87649359  0.64766358  1
  O  O173  1  0.50450123  0.87515435  0.96910050  1
  O  O174  1  0.82632915  0.37751951  0.30718821  1
  O  O175  1  0.82767330  0.37261600  0.64539237  1
  O  O176  1  0.83362695  0.37299986  0.97631630  1
  O  O177  1  0.83749516  0.87122595  0.32452662  1
  O  O178  1  0.84191849  0.87686355  0.63946918  1
  O  O179  1  0.83296548  0.87745498  0.98824733  1
  O  O180  1  0.00125222  0.37816962  0.18482683  1
  O  O181  1  -0.00276030  0.37918825  0.52837773  1
  O  O182  1  -0.00575849  0.37476313  0.83955036  1
  O  O183  1  0.00126764  0.87201789  0.18725103  1
  O  O184  1  -0.00535515  0.87079732  0.52323744  1
  O  O185  1  0.00460157  0.87632369  0.85651246  1
  O  O186  1  0.32981573  0.37072848  0.19126837  1
  O  O187  1  0.33705390  0.37617116  0.51422514  1
  O  O188  1  0.34076646  0.37583833  0.84466984  1
  O  O189  1  0.34622847  0.87616779  0.19433533  1
  O  O190  1  0.32886644  0.87204180  0.52423373  1
  O  O191  1  0.34005444  0.87449826  0.86156772  1
  O  O192  1  0.67278665  0.37571188  0.18826496  1
  O  O193  1  0.65530273  0.37090439  0.53014800  1
  O  O194  1  0.65694591  0.37129121  0.84255502  1
  O  O195  1  0.66138165  0.87610672  0.17716774  1
  O  O196  1  0.67051202  0.87792302  0.50757668  1
  O  O197  1  0.65470174  0.87713944  0.85683148  1
  O  O198  1  0.01087355  0.12368996  0.14567897  1
  O  O199  1  -0.00714632  0.12745944  0.48932312  1
  O  O200  1  -0.00342948  0.12424070  0.80484746  1
  O  O201  1  -0.00439121  0.62550743  0.15025867  1
  O  O202  1  0.01008326  0.62301202  0.46840512  1
  O  O203  1  0.01164160  0.62705453  0.80808437  1
  O  O204  1  0.32392539  0.11885738  0.14473831  1
  O  O205  1  0.33704791  0.12638021  0.47736542  1
  O  O206  1  0.34036296  0.11914973  0.80854099  1
  O  O207  1  0.33898177  0.63170698  0.14534445  1
  O  O208  1  0.33145135  0.62593299  0.48095000  1
  O  O209  1  0.33561540  0.63043878  0.80958673  1
  O  O210  1  0.66066090  0.12249482  0.14721495  1
  O  O211  1  0.67251555  0.12975484  0.47284728  1
  O  O212  1  0.66982805  0.12664966  0.80870030  1
  O  O213  1  0.66537462  0.62669188  0.14271152  1
  O  O214  1  0.66638664  0.62246388  0.49103815  1
  O  O215  1  0.65812241  0.62364853  0.82235142  1
  O  O216  1  0.09567389  0.01260712  0.24459822  1
  O  O217  1  0.07011044  0.00671872  0.58889707  1
  O  O218  1  0.07514364  0.01456600  0.92235229  1
  O  O219  1  0.07625721  0.51058872  0.26156769  1
  O  O220  1  0.07701368  0.52387222  0.58723735  1
  O  O221  1  0.08896926  0.51634699  0.91396951  1
  O  O222  1  0.42124318  0.02841957  0.24387803  1
  O  O223  1  0.41561220  0.02067618  0.58117506  1
  O  O224  1  0.42050034  0.02011353  0.91397863  1
  O  O225  1  0.41769924  0.51764055  0.25100554  1
  O  O226  1  0.40881708  0.52234802  0.58874992  1
  O  O227  1  0.41597510  0.52713118  0.91900926  1
  O  O228  1  0.74595189  0.01510538  0.25765565  1
  O  O229  1  0.74654613  0.02578221  0.58548251  1
  O  O230  1  0.74927382  0.02060017  0.91456061  1
  O  O231  1  0.75459837  0.51826233  0.24872570  1
  O  O232  1  0.74841248  0.50519888  0.58115179  1
  O  O233  1  0.74141636  0.51400177  0.92229868  1
  O  O234  1  0.25528104  0.22663490  0.25395335  1
  O  O235  1  0.24909406  0.23860316  0.58407914  1
  O  O236  1  0.25376244  0.23079611  0.92804738  1
  O  O237  1  0.25422118  0.74419582  0.26213094  1
  O  O238  1  0.24910060  0.72710933  0.59013575  1
  O  O239  1  0.25792035  0.73171862  0.91968268  1
  O  O240  1  0.58104771  0.23089156  0.24959308  1
  O  O241  1  0.57588854  0.22007765  0.57381116  1
  O  O242  1  0.57972418  0.22709610  0.90758829  1
  O  O243  1  0.57832662  0.73831382  0.23940702  1
  O  O244  1  0.57302013  0.73912120  0.58102225  1
  O  O245  1  0.58273701  0.72800833  0.92132101  1
  O  O246  1  0.92022334  0.24915930  0.24658548  1
  O  O247  1  0.90189005  0.23409698  0.57636556  1
  O  O248  1  0.91096847  0.23245195  0.90420330  1
  O  O249  1  0.91500664  0.72693681  0.24936749  1
  O  O250  1  0.91591489  0.72379918  0.57116457  1
  O  O251  1  0.92519892  0.74096062  0.91715034  1
  O  O252  1  0.08876963  0.48807212  0.09182208  1
  O  O253  1  0.08998846  0.47315486  0.42485709  1
  O  O254  1  0.08854038  0.48191925  0.75164185  1
  O  O255  1  0.08103649  0.97568570  0.07985951  1
  O  O256  1  0.07936279  0.97977845  0.41710239  1
  O  O257  1  0.08474527  0.97544971  0.75317682  1
  O  O258  1  0.41863097  0.49851136  0.08380686  1
  O  O259  1  0.42114039  0.48347071  0.42086501  1
  O  O260  1  0.43140588  0.48797322  0.76030046  1
  O  O261  1  0.41365837  0.97829661  0.07791077  1
  O  O262  1  0.40759583  0.98709644  0.40834677  1
  O  O263  1  0.41005942  0.97848715  0.74902868  1
  O  O264  1  0.75761580  0.48714791  0.09152322  1
  O  O265  1  0.75430898  0.47877082  0.41866011  1
  O  O266  1  0.75493256  0.47915397  0.75652803  1
  O  O267  1  0.73990097  0.99262664  0.07343714  1
  O  O268  1  0.75729551  0.98995117  0.42578742  1
  O  O269  1  0.75001373  0.99517971  0.74678739  1
  O  O270  1  0.24548877  0.26070753  0.09542578  1
  O  O271  1  0.25545340  0.27303423  0.41388622  1
  O  O272  1  0.25775333  0.25256353  0.74985375  1
  O  O273  1  0.25315412  0.76995440  0.08536219  1
  O  O274  1  0.24168441  0.76876384  0.42791449  1
  O  O275  1  0.24668374  0.77297990  0.75755570  1
  O  O276  1  0.58543180  0.25034868  0.07680266  1
  O  O277  1  0.58897649  0.27388681  0.41064755  1
  O  O278  1  0.59633305  0.26023152  0.73479095  1
  O  O279  1  0.57983202  0.77446209  0.07791032  1
  O  O280  1  0.57397986  0.75754201  0.41916367  1
  O  O281  1  0.57057552  0.76288729  0.75907023  1
  O  O282  1  0.91969880  0.26118382  0.08067654  1
  O  O283  1  0.92048785  0.27646920  0.41403166  1
  O  O284  1  0.92524456  0.26835545  0.73518081  1
  O  O285  1  0.91858033  0.76166637  0.07995854  1
  O  O286  1  0.92217920  0.76826430  0.41231620  1
  O  O287  1  0.92360167  0.76103912  0.73839498  1
  O  O288  1  0.24966378  0.48727159  0.09025035  1
  O  O289  1  0.25153938  0.47974669  0.41895539  1
  O  O290  1  0.25480534  0.49879155  0.75128122  1
  O  O291  1  0.24928014  0.97696637  0.09240794  1
  O  O292  1  0.24490538  0.97740326  0.42368891  1
  O  O293  1  0.24809904  0.97548002  0.75924964  1
  O  O294  1  0.58714762  0.49790279  0.07557990  1
  O  O295  1  0.58835075  0.47371607  0.41076124  1
  O  O296  1  0.59031705  0.48043779  0.74070928  1
  O  O297  1  0.57568226  0.97800418  0.08350793  1
  O  O298  1  0.57648156  0.99502869  0.41978631  1
  O  O299  1  0.57325125  0.99001506  0.75733322  1
  O  O300  1  0.91394806  0.48814007  0.08755534  1
  O  O301  1  0.92491684  0.47355421  0.40847534  1
  O  O302  1  0.92554101  0.48801492  0.73740954  1
  O  O303  1  0.92306486  0.99077699  0.07158955  1
  O  O304  1  0.91712584  0.97772286  0.41791916  1
  O  O305  1  0.92447432  0.98581863  0.73837310  1
  O  O306  1  0.09044264  0.26516824  0.09105961  1
  O  O307  1  0.08903695  0.27182860  0.41935244  1
  O  O308  1  0.08955594  0.26918488  0.75527679  1
  O  O309  1  0.08021795  0.76557374  0.07649383  1
  O  O310  1  0.08196057  0.77525070  0.41971205  1
  O  O311  1  0.08149640  0.77842031  0.74595227  1
  O  O312  1  0.41577180  0.24761606  0.08705527  1
  O  O313  1  0.42170011  0.26654396  0.42061734  1
  O  O314  1  0.43531220  0.26232319  0.75745441  1
  O  O315  1  0.41875949  0.77627854  0.07636922  1
  O  O316  1  0.40627134  0.76670232  0.41396540  1
  O  O317  1  0.40927012  0.77337670  0.74795850  1
  O  O318  1  0.75815828  0.26393643  0.09239078  1
  O  O319  1  0.75436194  0.27728336  0.43011271  1
  O  O320  1  0.76274191  0.26881130  0.76003465  1
  O  O321  1  0.74116827  0.76114797  0.07639726  1
  O  O322  1  0.75726175  0.75558838  0.41921704  1
  O  O323  1  0.74412065  0.75972339  0.75091355  1
  O  O324  1  0.26110112  0.01187395  0.26104725  1
  O  O325  1  0.25580382  0.01276371  0.59459071  1
  O  O326  1  0.25837301  0.01350649  0.92889255  1
  O  O327  1  0.25336073  0.51000229  0.25732030  1
  O  O328  1  0.24300790  0.52321264  0.58319314  1
  O  O329  1  0.25569624  0.51997120  0.91674533  1
  O  O330  1  0.58140020  0.02110322  0.25097933  1
  O  O331  1  0.58297601  0.02126816  0.58252344  1
  O  O332  1  0.58587057  0.02480731  0.92278769  1
  O  O333  1  0.57969170  0.51382886  0.24330050  1
  O  O334  1  0.56636660  0.51552920  0.57034885  1
  O  O335  1  0.57517790  0.51441695  0.90739560  1
  O  O336  1  0.92205463  0.00459122  0.25251017  1
  O  O337  1  0.90811223  0.02391677  0.57873525  1
  O  O338  1  0.91389936  0.02188445  0.90856266  1
  O  O339  1  0.91501945  0.51896575  0.24730605  1
  O  O340  1  0.91313216  0.52174655  0.56810649  1
  O  O341  1  0.91796076  0.51025556  0.91064622  1
  O  O342  1  0.09154233  0.24030436  0.24824266  1
  O  O343  1  0.07023462  0.24130843  0.59357322  1
  O  O344  1  0.07593790  0.23017795  0.92643688  1
  O  O345  1  0.07671193  0.73880075  0.25843922  1
  O  O346  1  0.07949282  0.72875451  0.58146151  1
  O  O347  1  0.09411012  0.73725373  0.90605409  1
  O  O348  1  0.41652878  0.22361458  0.25180514  1
  O  O349  1  0.41335119  0.22600825  0.58791839  1
  O  O350  1  0.41602743  0.22373352  0.91906050  1
  O  O351  1  0.42229930  0.73009888  0.24382471  1
  O  O352  1  0.41161423  0.72899162  0.58279744  1
  O  O353  1  0.42141101  0.72811813  0.91469086  1
  O  O354  1  0.74104400  0.23626312  0.26557024  1
  O  O355  1  0.73984459  0.22876123  0.59607261  1
  O  O356  1  0.74407243  0.22738703  0.92081022  1
  O  O357  1  0.75519113  0.73190006  0.24308825  1
  O  O358  1  0.75297491  0.74309564  0.57726117  1
  O  O359  1  0.74354593  0.74160414  0.92037946  1
