# generated using pymatgen
data_Ba17Sr5La8Pr42Mn72O216
_symmetry_space_group_name_H-M   'P 1'
_cell_length_a   16.66951862
_cell_length_b   15.70534256
_cell_length_c   16.81037645
_cell_angle_alpha   90.01595742
_cell_angle_beta   89.97202237
_cell_angle_gamma   89.99962181
_symmetry_Int_Tables_number   1
_chemical_formula_structural   Ba17Sr5La8Pr42Mn72O216
_chemical_formula_sum   'Ba17 Sr5 La8 Pr42 Mn72 O216'
_cell_volume   4400.96426712
_cell_formula_units_Z   1
loop_
 _symmetry_equiv_pos_site_id
 _symmetry_equiv_pos_as_xyz
  1  'x, y, z'
loop_
 _atom_site_type_symbol
 _atom_site_label
 _atom_site_symmetry_multiplicity
 _atom_site_fract_x
 _atom_site_fract_y
 _atom_site_fract_z
 _atom_site_occupancy
  Ba  Ba0  1  0.82811720  0.37294402  0.83698356  1
  Ba  Ba1  1  0.16647550  0.87550958  0.82940148  1
  Ba  Ba2  1  0.00118125  0.12688790  0.66417434  1
  Ba  Ba3  1  0.33351785  0.62491941  0.99719324  1
  Ba  Ba4  1  0.00161147  0.87475463  0.33464465  1
  Ba  Ba5  1  0.49887337  0.37587228  0.49958370  1
  Ba  Ba6  1  -0.00408382  0.37465180  0.00091232  1
  Ba  Ba7  1  0.83381526  0.87692244  0.50036259  1
  Ba  Ba8  1  0.83886167  0.62380548  0.50076331  1
  Ba  Ba9  1  0.00341003  0.62509229  0.33394561  1
  Ba  Ba10  1  0.16417946  0.87622656  0.16319465  1
  Ba  Ba11  1  0.66444523  0.87577762  0.66710503  1
  Ba  Ba12  1  0.50021578  0.12207110  0.17258980  1
  Ba  Ba13  1  0.82960861  0.37596735  0.16498936  1
  Ba  Ba14  1  0.00191634  0.87651386  0.66709439  1
  Ba  Ba15  1  0.66413200  0.37402849  0.33425181  1
  Ba  Ba16  1  0.50160961  0.62562351  0.83776566  1
  Sr  Sr17  1  0.66831414  0.12594438  0.33522523  1
  Sr  Sr18  1  0.49622357  0.87419240  0.49986116  1
  Sr  Sr19  1  0.83595367  0.12410391  0.49857778  1
  Sr  Sr20  1  0.16618848  0.87812624  0.49605488  1
  Sr  Sr21  1  0.33463560  0.12533286  0.33094123  1
  La  La22  1  0.49569775  0.37641214  0.83269370  1
  La  La23  1  0.67296722  0.12499705  1.00295716  1
  La  La24  1  0.33228953  0.37702779  -0.00110364  1
  La  La25  1  0.17014577  0.62966370  0.49725807  1
  La  La26  1  0.83080191  0.37016488  0.49881807  1
  La  La27  1  0.00153095  0.12804015  0.99924385  1
  La  La28  1  0.33254270  0.87406482  0.66283617  1
  La  La29  1  0.16548758  0.37090937  0.49512051  1
  Pr  Pr30  1  0.51034035  0.62549922  0.50595978  1
  Pr  Pr31  1  -0.00795482  0.37457612  0.67085613  1
  Pr  Pr32  1  0.66126508  0.37695909  0.67063542  1
  Pr  Pr33  1  0.65480316  0.87556486  0.00280147  1
  Pr  Pr34  1  0.49770711  0.36996753  0.16830678  1
  Pr  Pr35  1  0.32844458  0.88033372  0.33576105  1
  Pr  Pr36  1  0.50382817  0.12091991  0.83967178  1
  Pr  Pr37  1  0.67492145  0.12556020  0.66458372  1
  Pr  Pr38  1  0.50609113  0.12487716  0.50117022  1
  Pr  Pr39  1  0.66013559  0.37686991  0.00861767  1
  Pr  Pr40  1  0.17154068  0.62406083  0.16934417  1
  Pr  Pr41  1  0.49079877  0.87208451  0.83076623  1
  Pr  Pr42  1  0.82895064  0.87720578  0.82670797  1
  Pr  Pr43  1  0.33593894  0.12269514  0.65957090  1
  Pr  Pr44  1  0.33012933  0.87090963  -0.00034950  1
  Pr  Pr45  1  0.33021977  0.37473049  0.66614596  1
  Pr  Pr46  1  0.16898677  0.12018827  0.49789039  1
  Pr  Pr47  1  0.16376800  0.37671283  0.82801085  1
  Pr  Pr48  1  0.67562891  0.62327876  0.33586900  1
  Pr  Pr49  1  0.83793697  0.62833303  0.83469651  1
  Pr  Pr50  1  0.33896113  0.62556327  0.32844495  1
  Pr  Pr51  1  0.00776756  0.62447076  0.66034189  1
  Pr  Pr52  1  0.67702896  0.62543852  0.66845325  1
  Pr  Pr53  1  0.49041664  0.87723348  0.17202897  1
  Pr  Pr54  1  0.82717939  0.87244735  0.16834290  1
  Pr  Pr55  1  0.00426944  0.62256503  1.00151986  1
  Pr  Pr56  1  0.83668865  0.12829933  0.17264028  1
  Pr  Pr57  1  0.50562776  0.62706563  0.16949706  1
  Pr  Pr58  1  0.33171643  0.12075126  0.99527224  1
  Pr  Pr59  1  0.67202514  0.62634413  0.99805788  1
  Pr  Pr60  1  0.33685956  0.62749203  0.66201970  1
  Pr  Pr61  1  0.16579394  0.12697604  0.16805718  1
  Pr  Pr62  1  0.33257053  0.37071847  0.33298028  1
  Pr  Pr63  1  0.16550274  0.37660135  0.16134946  1
  Pr  Pr64  1  -0.00806913  0.87610285  0.00520149  1
  Pr  Pr65  1  0.66096937  0.87745235  0.34393361  1
  Pr  Pr66  1  0.84041765  0.12214162  0.83445375  1
  Pr  Pr67  1  0.16802824  0.62678257  0.83106783  1
  Pr  Pr68  1  0.84231166  0.62126157  0.17280505  1
  Pr  Pr69  1  -0.00535798  0.37482902  0.33347791  1
  Pr  Pr70  1  0.16334127  0.12544392  0.83078573  1
  Pr  Pr71  1  0.00025892  0.12138448  0.33488141  1
  Mn  Mn72  1  -0.00271582  0.00012991  0.16543378  1
  Mn  Mn73  1  0.00101722  0.00088555  0.49879668  1
  Mn  Mn74  1  0.00052783  0.00140174  0.83688304  1
  Mn  Mn75  1  0.00246796  0.49928938  0.16663604  1
  Mn  Mn76  1  0.00461516  0.49669908  0.50185749  1
  Mn  Mn77  1  -0.00100920  0.50098849  0.83097805  1
  Mn  Mn78  1  0.33122369  0.00014895  0.16465598  1
  Mn  Mn79  1  0.33573884  0.00154024  0.49757208  1
  Mn  Mn80  1  0.33341768  0.00284962  0.82882935  1
  Mn  Mn81  1  0.33555782  0.49972131  0.16588293  1
  Mn  Mn82  1  0.33312417  0.50057967  0.49658404  1
  Mn  Mn83  1  0.33119118  0.49776999  0.83082147  1
  Mn  Mn84  1  0.66693827  -0.00381156  0.17094619  1
  Mn  Mn85  1  0.66571833  0.00173711  0.50137930  1
  Mn  Mn86  1  0.66641988  0.00184004  0.83618405  1
  Mn  Mn87  1  0.66275691  0.50374488  0.16616149  1
  Mn  Mn88  1  0.66840488  0.50067123  0.50330141  1
  Mn  Mn89  1  0.66615884  0.49931022  0.83731868  1
  Mn  Mn90  1  0.00070378  0.24841382  0.16751289  1
  Mn  Mn91  1  0.00268138  0.25190910  0.49953752  1
  Mn  Mn92  1  -0.00002604  0.25164671  0.83272869  1
  Mn  Mn93  1  -0.00064000  0.75139157  0.16509379  1
  Mn  Mn94  1  0.00315886  0.74969547  0.49956869  1
  Mn  Mn95  1  -0.00078054  0.74757504  0.83513084  1
  Mn  Mn96  1  0.33207624  0.25095853  0.16409769  1
  Mn  Mn97  1  0.33494206  0.24886073  0.49816360  1
  Mn  Mn98  1  0.33309620  0.24829014  0.83070793  1
  Mn  Mn99  1  0.33406141  0.74970357  0.16599944  1
  Mn  Mn100  1  0.33454468  0.74966523  0.49526224  1
  Mn  Mn101  1  0.33194041  0.74986379  0.83108079  1
  Mn  Mn102  1  0.66461262  0.24818802  0.16780393  1
  Mn  Mn103  1  0.66710606  0.24782717  0.50266842  1
  Mn  Mn104  1  0.66400645  0.24773586  0.83531143  1
  Mn  Mn105  1  0.66533529  0.75146644  0.16896807  1
  Mn  Mn106  1  0.66690880  0.75001759  0.50161723  1
  Mn  Mn107  1  0.66735195  0.75092650  0.83627392  1
  Mn  Mn108  1  0.16879151  0.24963579  -0.00187252  1
  Mn  Mn109  1  0.16601612  0.25044399  0.32965825  1
  Mn  Mn110  1  0.16983617  0.25052927  0.66273597  1
  Mn  Mn111  1  0.16344948  0.74942226  -0.00243210  1
  Mn  Mn112  1  0.17016642  0.74951884  0.33271807  1
  Mn  Mn113  1  0.16915913  0.74897090  0.66442989  1
  Mn  Mn114  1  0.49864187  0.24699054  0.00009898  1
  Mn  Mn115  1  0.49860245  0.24930734  0.33463888  1
  Mn  Mn116  1  0.49960101  0.24904433  0.67050334  1
  Mn  Mn117  1  0.49980093  0.75324909  0.00327967  1
  Mn  Mn118  1  0.50067005  0.74804766  0.33675492  1
  Mn  Mn119  1  0.50033807  0.74958383  0.66770210  1
  Mn  Mn120  1  0.83000916  0.24803090  0.00143382  1
  Mn  Mn121  1  0.83374607  0.24917337  0.33506833  1
  Mn  Mn122  1  0.83145844  0.25084552  0.66616558  1
  Mn  Mn123  1  0.83131112  0.75169812  0.00036711  1
  Mn  Mn124  1  0.83244761  0.74954989  0.33158091  1
  Mn  Mn125  1  0.83555035  0.75018556  0.66960456  1
  Mn  Mn126  1  0.16562401  0.00090732  -0.00309247  1
  Mn  Mn127  1  0.16797419  0.00285823  0.33148618  1
  Mn  Mn128  1  0.16937509  0.00156039  0.66392865  1
  Mn  Mn129  1  0.16577019  0.49990655  -0.00292400  1
  Mn  Mn130  1  0.16961763  0.49747195  0.33150167  1
  Mn  Mn131  1  0.16989802  0.49817530  0.66228539  1
  Mn  Mn132  1  0.49841531  0.00019873  0.00251900  1
  Mn  Mn133  1  0.49984530  -0.00058411  0.33717901  1
  Mn  Mn134  1  0.49990814  0.00083901  0.66981080  1
  Mn  Mn135  1  0.49950816  0.49891348  0.00248668  1
  Mn  Mn136  1  0.49929980  0.50311413  0.33412176  1
  Mn  Mn137  1  0.49922165  0.50073878  0.66815664  1
  Mn  Mn138  1  0.83081304  -0.00178592  0.00164038  1
  Mn  Mn139  1  0.83196422  0.00167067  0.33223215  1
  Mn  Mn140  1  0.83363673  0.00110178  0.66725539  1
  Mn  Mn141  1  0.83040038  0.50416469  0.00117378  1
  Mn  Mn142  1  0.83449613  0.49774388  0.33505576  1
  Mn  Mn143  1  0.83356344  0.49857269  0.66887039  1
  O  O144  1  0.17103920  0.12745876  0.02365648  1
  O  O145  1  0.16604810  0.13009695  0.35417103  1
  O  O146  1  0.17723295  0.12965145  0.68734909  1
  O  O147  1  0.16028501  0.62591776  0.02390940  1
  O  O148  1  0.17767250  0.62002111  0.35332893  1
  O  O149  1  0.16907521  0.61938505  0.68752912  1
  O  O150  1  0.48863558  0.12309820  0.01672198  1
  O  O151  1  0.49411869  0.12225417  0.35420594  1
  O  O152  1  0.49156672  0.12747975  0.69755151  1
  O  O153  1  0.50308141  0.63219902  0.02451760  1
  O  O154  1  0.48685014  0.62809924  0.36104345  1
  O  O155  1  0.48921760  0.62452687  0.68181502  1
  O  O156  1  0.82671337  0.11793013  0.02941996  1
  O  O157  1  0.83634170  0.12805105  0.34768694  1
  O  O158  1  0.82882033  0.12807650  0.68892678  1
  O  O159  1  0.82159651  0.63184580  0.02947543  1
  O  O160  1  0.82928249  0.62167268  0.34018972  1
  O  O161  1  0.83359860  0.62226213  0.68960946  1
  O  O162  1  0.17064043  0.37313318  0.30389223  1
  O  O163  1  0.17862487  0.37456073  0.63738354  1
  O  O164  1  0.17178289  0.37208155  0.97292621  1
  O  O165  1  0.17523731  0.87772294  0.32056536  1
  O  O166  1  0.17564612  0.87494503  0.64879339  1
  O  O167  1  0.16441996  0.87408219  0.98524218  1
  O  O168  1  0.49570343  0.38029023  0.31275443  1
  O  O169  1  0.50627562  0.37478846  0.65469374  1
  O  O170  1  0.50737493  0.36699224  0.97681163  1
  O  O171  1  0.51134385  0.86836007  0.31516221  1
  O  O172  1  0.49562174  0.87300369  0.64902635  1
  O  O173  1  0.50234701  0.87855192  0.97540454  1
  O  O174  1  0.83845984  0.37368298  0.32328087  1
  O  O175  1  0.82910876  0.37498071  0.64626356  1
  O  O176  1  0.82246988  0.37906850  0.99251578  1
  O  O177  1  0.82520652  0.87459680  0.31337680  1
  O  O178  1  0.83391383  0.87539704  0.66396360  1
  O  O179  1  0.84152577  0.87493836  0.97018964  1
  O  O180  1  0.01037814  0.37097182  0.18792710  1
  O  O181  1  0.01375791  0.37477075  0.52728776  1
  O  O182  1  0.00990669  0.37573629  0.84503426  1
  O  O183  1  -0.00491883  0.87683352  0.17690085  1
  O  O184  1  0.00591799  0.87571620  0.50722214  1
  O  O185  1  -0.00388835  0.87473686  0.86018116  1
  O  O186  1  0.32954715  0.37705032  0.18934754  1
  O  O187  1  0.32911060  0.37548287  0.52317816  1
  O  O188  1  0.32882898  0.37075883  0.85555474  1
  O  O189  1  0.33388320  0.87085883  0.19060540  1
  O  O190  1  0.33255320  0.87708776  0.52100171  1
  O  O191  1  0.33524262  0.88178198  0.85497907  1
  O  O192  1  0.65850008  0.37819693  0.17543943  1
  O  O193  1  0.67152322  0.37349161  0.52484577  1
  O  O194  1  0.66127226  0.37076626  0.86346716  1
  O  O195  1  0.67553478  0.87220204  0.19876108  1
  O  O196  1  0.66412041  0.87448648  0.50677587  1
  O  O197  1  0.67840518  0.87828745  0.85889846  1
  O  O198  1  -0.00216139  0.12380452  0.14393993  1
  O  O199  1  0.00496515  0.13089807  0.47984646  1
  O  O200  1  -0.00266689  0.12856430  0.82294517  1
  O  O201  1  -0.00086401  0.62740307  0.14792926  1
  O  O202  1  0.00680750  0.61935147  0.49229811  1
  O  O203  1  -0.00623922  0.62166396  0.80522850  1
  O  O204  1  0.32825440  0.12913501  0.13952291  1
  O  O205  1  0.33714294  0.12509392  0.47929071  1
  O  O206  1  0.33983683  0.12711580  0.80315070  1
  O  O207  1  0.33683031  0.62465675  0.15210026  1
  O  O208  1  0.32681109  0.62255599  0.47088978  1
  O  O209  1  0.32710850  0.61957976  0.80914049  1
  O  O210  1  0.67007547  0.11898340  0.14686000  1
  O  O211  1  0.65973192  0.12463657  0.48699668  1
  O  O212  1  0.65472911  0.12542374  0.80860095  1
  O  O213  1  0.65457019  0.63015015  0.13954604  1
  O  O214  1  0.66372172  0.62641566  0.48347545  1
  O  O215  1  0.66749881  0.62432434  0.81378410  1
  O  O216  1  0.08414523  0.02243225  0.24672723  1
  O  O217  1  0.09205395  0.01553361  0.57727318  1
  O  O218  1  0.08577883  0.02458080  0.91521663  1
  O  O219  1  0.09788207  0.51414141  0.24104496  1
  O  O220  1  0.09582355  0.51845914  0.57613790  1
  O  O221  1  0.08352173  0.52356438  0.90960459  1
  O  O222  1  0.41756694  0.00035241  0.25336260  1
  O  O223  1  0.41829377  0.02111498  0.58127561  1
  O  O224  1  0.41513899  0.02031391  0.91098966  1
  O  O225  1  0.42513387  0.52069284  0.24292210  1
  O  O226  1  0.41881834  0.52097307  0.57304352  1
  O  O227  1  0.41943247  0.49975003  0.91546571  1
  O  O228  1  0.76121134  0.01502321  0.23742521  1
  O  O229  1  0.74842613  0.01701784  0.58294575  1
  O  O230  1  0.75583961  0.02470238  0.91284389  1
  O  O231  1  0.74877833  0.52125408  0.23994270  1
  O  O232  1  0.75078349  0.51449726  0.58875116  1
  O  O233  1  0.75521752  0.52517499  0.91181000  1
  O  O234  1  0.24413335  0.23327591  0.24199661  1
  O  O235  1  0.25709081  0.22814778  0.58392575  1
  O  O236  1  0.25317306  0.22285279  0.91364014  1
  O  O237  1  0.25608385  0.72777736  0.25078674  1
  O  O238  1  0.25499996  0.72805584  0.58144169  1
  O  O239  1  0.24446929  0.73555724  0.90920213  1
  O  O240  1  0.58315329  0.24175105  0.25240231  1
  O  O241  1  0.58722379  0.22925118  0.59528530  1
  O  O242  1  0.58525355  0.22185213  0.92273232  1
  O  O243  1  0.58785529  0.72366604  0.26449910  1
  O  O244  1  0.58781809  0.72644625  0.59317766  1
  O  O245  1  0.59477978  0.74178289  0.93190169  1
  O  O246  1  0.92188723  0.23200208  0.25450071  1
  O  O247  1  0.91830670  0.24930221  0.57985139  1
  O  O248  1  0.91313966  0.23144602  0.92181034  1
  O  O249  1  0.91320577  0.73924306  0.24472349  1
  O  O250  1  0.92576522  0.73528435  0.59695451  1
  O  O251  1  0.91996409  0.72286450  0.92785264  1
  O  O252  1  0.08469493  0.48591803  0.08206005  1
  O  O253  1  0.08096083  0.47574410  0.40970201  1
  O  O254  1  0.08343801  0.47897451  0.73820340  1
  O  O255  1  0.06965919  0.99107994  0.07428209  1
  O  O256  1  0.08631703  1.00024924  0.41483827  1
  O  O257  1  0.08794341  0.99974848  0.75161144  1
  O  O258  1  0.41278185  0.47407227  0.08149824  1
  O  O259  1  0.40346892  0.48471365  0.40317318  1
  O  O260  1  0.40893269  0.47854294  0.74407855  1
  O  O261  1  0.41217881  0.97488204  0.08135641  1
  O  O262  1  0.41373846  0.97737094  0.41437103  1
  O  O263  1  0.41515698  0.97682251  0.74858077  1
  O  O264  1  0.73323908  0.49403390  0.07231045  1
  O  O265  1  0.75046911  0.48915922  0.41958606  1
  O  O266  1  0.73831828  0.48498318  0.74573564  1
  O  O267  1  0.74204569  0.97250268  0.07498305  1
  O  O268  1  0.74178282  0.99149016  0.40518128  1
  O  O269  1  0.74774136  0.99492488  0.75361237  1
  O  O270  1  0.25137730  0.27517597  0.07920963  1
  O  O271  1  0.24574182  0.26960733  0.41267887  1
  O  O272  1  0.24731017  0.27294782  0.75052017  1
  O  O273  1  0.24999355  0.76189048  0.07696908  1
  O  O274  1  0.25270711  0.76805134  0.41506151  1
  O  O275  1  0.25593820  0.75887500  0.74046023  1
  O  O276  1  0.57747068  0.26501771  0.08595338  1
  O  O277  1  0.57968389  0.25316222  0.42466911  1
  O  O278  1  0.57582920  0.27045230  0.75993434  1
  O  O279  1  0.57590044  0.77822402  0.09680730  1
  O  O280  1  0.57229809  0.75871502  0.42443715  1
  O  O281  1  0.57770461  0.76751815  0.76501958  1
  O  O282  1  0.91558244  0.25326458  0.08786590  1
  O  O283  1  0.92066807  0.27113939  0.41865669  1
  O  O284  1  0.91550109  0.26503501  0.74676751  1
  O  O285  1  0.90607441  0.77122505  0.08470122  1
  O  O286  1  0.91303616  0.75536939  0.41618178  1
  O  O287  1  0.90752122  0.76323739  0.76639463  1
  O  O288  1  0.24781846  0.48257530  0.08482373  1
  O  O289  1  0.24527073  0.47403936  0.41866038  1
  O  O290  1  0.24620949  0.47452607  0.74776682  1
  O  O291  1  0.25470396  0.98705222  0.06883242  1
  O  O292  1  0.25346141  0.99029745  0.41309621  1
  O  O293  1  0.25995060  0.98926628  0.73898594  1
  O  O294  1  0.57024171  0.48315997  0.09450220  1
  O  O295  1  0.57891063  0.49977651  0.42175972  1
  O  O296  1  0.57931654  0.48002969  0.76154997  1
  O  O297  1  0.57936848  0.97444639  0.09535723  1
  O  O298  1  0.57576594  0.98885344  0.42579181  1
  O  O299  1  0.57392382  0.98397021  0.76794503  1
  O  O300  1  0.91137275  0.50064431  0.08455906  1
  O  O301  1  0.91961075  0.47512211  0.42671105  1
  O  O302  1  0.91523344  0.48093237  0.75119865  1
  O  O303  1  0.90473517  0.97760531  0.08877541  1
  O  O304  1  0.91661357  0.99879206  0.41441484  1
  O  O305  1  0.91015379  0.99123873  0.76552731  1
  O  O306  1  0.09037793  0.26092275  0.08861620  1
  O  O307  1  0.08086631  0.27354061  0.40805678  1
  O  O308  1  0.08666755  0.27058327  0.74137435  1
  O  O309  1  0.06955067  0.76200098  0.06995562  1
  O  O310  1  0.09140474  0.75275998  0.41742884  1
  O  O311  1  0.08429922  0.75035754  0.74788227  1
  O  O312  1  0.41408429  0.27486667  0.08001741  1
  O  O313  1  0.40926382  0.26703682  0.41103661  1
  O  O314  1  0.41096091  0.27593518  0.74638188  1
  O  O315  1  0.41395644  0.77590033  0.08209609  1
  O  O316  1  0.40913875  0.77116016  0.40402179  1
  O  O317  1  0.41341699  0.76926601  0.74629281  1
  O  O318  1  0.73753306  0.25892483  0.07324607  1
  O  O319  1  0.75428340  0.26120282  0.42247267  1
  O  O320  1  0.73559083  0.26416042  0.74318868  1
  O  O321  1  0.74301896  0.77771852  0.07298036  1
  O  O322  1  0.73867958  0.75735136  0.40285409  1
  O  O323  1  0.74897738  0.75710342  0.75293302  1
  O  O324  1  0.24759049  0.02092278  0.24319994  1
  O  O325  1  0.25354364  0.02217696  0.57864882  1
  O  O326  1  0.24994703  0.02692504  0.90604957  1
  O  O327  1  0.25890367  0.51903972  0.25225194  1
  O  O328  1  0.25817186  0.52287478  0.58645088  1
  O  O329  1  0.24460554  0.51295361  0.90816007  1
  O  O330  1  0.59208548  0.00679231  0.26236522  1
  O  O331  1  0.58339414  0.02422865  0.59405878  1
  O  O332  1  0.59123434  0.01853751  0.92777245  1
  O  O333  1  0.58627639  0.52762997  0.25618568  1
  O  O334  1  0.58989784  0.52005230  0.59363484  1
  O  O335  1  0.59461318  0.51378834  0.93184737  1
  O  O336  1  0.91992440  0.02210527  0.25096543  1
  O  O337  1  0.91763649  0.01030772  0.58306479  1
  O  O338  1  0.92015614  0.02314729  0.92878260  1
  O  O339  1  0.92098417  0.50634429  0.25108362  1
  O  O340  1  0.93109198  0.50660257  0.59439486  1
  O  O341  1  0.91600947  0.52419433  0.92166341  1
  O  O342  1  0.08277500  0.22377209  0.24988224  1
  O  O343  1  0.09757648  0.23430055  0.57089521  1
  O  O344  1  0.08847235  0.23020329  0.91546310  1
  O  O345  1  0.09453811  0.73444066  0.24180939  1
  O  O346  1  0.09009748  0.72976984  0.58346532  1
  O  O347  1  0.08311486  0.72191075  0.91242326  1
  O  O348  1  0.41187944  0.24560447  0.24795000  1
  O  O349  1  0.42352098  0.22908326  0.58365115  1
  O  O350  1  0.41787876  0.23108912  0.91288178  1
  O  O351  1  0.42839503  0.73372730  0.24550976  1
  O  O352  1  0.41791094  0.72956510  0.57408742  1
  O  O353  1  0.41685003  0.74845232  0.91555799  1
  O  O354  1  0.75344671  0.23461349  0.24403464  1
  O  O355  1  0.75113074  0.23066912  0.58359907  1
  O  O356  1  0.75073121  0.22172506  0.90946203  1
  O  O357  1  0.75398968  0.72577078  0.23906826  1
  O  O358  1  0.75208204  0.73571855  0.58839419  1
  O  O359  1  0.75673602  0.72874061  0.91302474  1
