# generated using pymatgen
data_Ba17Sr5La8Pr42Mn72O216
_symmetry_space_group_name_H-M   'P 1'
_cell_length_a   16.67411631
_cell_length_b   15.69916985
_cell_length_c   16.81505823
_cell_angle_alpha   89.99477367
_cell_angle_beta   89.95040986
_cell_angle_gamma   90.01286090
_symmetry_Int_Tables_number   1
_chemical_formula_structural   Ba17Sr5La8Pr42Mn72O216
_chemical_formula_sum   'Ba17 Sr5 La8 Pr42 Mn72 O216'
_cell_volume   4401.67238508
_cell_formula_units_Z   1
loop_
 _symmetry_equiv_pos_site_id
 _symmetry_equiv_pos_as_xyz
  1  'x, y, z'
loop_
 _atom_site_type_symbol
 _atom_site_label
 _atom_site_symmetry_multiplicity
 _atom_site_fract_x
 _atom_site_fract_y
 _atom_site_fract_z
 _atom_site_occupancy
  Ba  Ba0  1  0.66742490  0.87316239  0.33484806  1
  Ba  Ba1  1  0.33342664  0.12529033  0.99691765  1
  Ba  Ba2  1  0.00172547  0.87486770  0.66616613  1
  Ba  Ba3  1  0.66593946  0.12438903  0.66866178  1
  Ba  Ba4  1  0.83163900  0.62626764  0.83956219  1
  Ba  Ba5  1  0.00176744  0.87638237  0.33458572  1
  Ba  Ba6  1  0.16790844  0.87499337  0.49719167  1
  Ba  Ba7  1  -0.00287847  0.12588479  0.33005238  1
  Ba  Ba8  1  0.50066138  0.37408934  0.49928827  1
  Ba  Ba9  1  -0.00106809  0.62476624  0.99832499  1
  Ba  Ba10  1  0.83098089  0.62248021  0.50464782  1
  Ba  Ba11  1  0.16748487  0.62384024  0.83347209  1
  Ba  Ba12  1  0.16814360  0.37468031  0.82728732  1
  Ba  Ba13  1  0.83186934  0.12369296  0.83743888  1
  Ba  Ba14  1  0.49689886  0.62378152  0.16692434  1
  Ba  Ba15  1  0.16665400  0.37612682  0.49531806  1
  Ba  Ba16  1  -0.00310429  0.12631909  0.99979626  1
  Sr  Sr17  1  0.83023218  0.37333057  0.50247367  1
  Sr  Sr18  1  0.83206617  0.62395933  0.17275497  1
  Sr  Sr19  1  0.82859945  0.12546901  0.17032996  1
  Sr  Sr20  1  0.50176205  0.37688846  0.16443517  1
  Sr  Sr21  1  0.84038627  0.87562137  0.83678638  1
  La  La22  1  0.50733937  0.87414123  0.16335589  1
  La  La23  1  0.49616651  0.12367996  0.50089039  1
  La  La24  1  0.33677127  0.87337567  0.33460940  1
  La  La25  1  0.50473829  0.87615272  0.49959882  1
  La  La26  1  0.32864654  0.62190688  0.33203526  1
  La  La27  1  0.83688618  0.87540837  0.49943865  1
  La  La28  1  0.33499856  0.87331194  -0.00042600  1
  La  La29  1  0.83198372  0.12289682  0.50365073  1
  Pr  Pr30  1  0.33676028  0.37657596  0.66826524  1
  Pr  Pr31  1  0.49736865  0.62693230  0.50148662  1
  Pr  Pr32  1  -0.00070350  0.62349529  0.32805004  1
  Pr  Pr33  1  0.67744146  0.87367235  0.00799251  1
  Pr  Pr34  1  0.15918577  0.12388804  0.49688484  1
  Pr  Pr35  1  0.00257491  0.62529424  0.66713301  1
  Pr  Pr36  1  0.67134599  0.37577567  0.00456679  1
  Pr  Pr37  1  0.49830890  0.12483934  0.83511643  1
  Pr  Pr38  1  0.32966004  0.12826626  0.32920266  1
  Pr  Pr39  1  0.50184942  0.37208834  0.82980666  1
  Pr  Pr40  1  0.33225657  0.37664963  0.00002256  1
  Pr  Pr41  1  0.50782224  0.87710651  0.83408788  1
  Pr  Pr42  1  0.66237183  0.12762703  0.33447209  1
  Pr  Pr43  1  -0.00811060  0.37715250  0.66692260  1
  Pr  Pr44  1  0.66853340  0.37894315  0.33727351  1
  Pr  Pr45  1  0.83572527  0.37305395  0.16842711  1
  Pr  Pr46  1  0.33590531  0.37627239  0.33331071  1
  Pr  Pr47  1  0.84381372  0.87585468  0.16814431  1
  Pr  Pr48  1  0.67100345  0.37570381  0.67123681  1
  Pr  Pr49  1  0.83884112  0.37372199  0.83649615  1
  Pr  Pr50  1  0.32852923  0.12686800  0.66286405  1
  Pr  Pr51  1  0.33327663  0.62257193  0.99643160  1
  Pr  Pr52  1  0.15924958  0.62839084  0.49897583  1
  Pr  Pr53  1  0.00000571  0.37718254  -0.00211197  1
  Pr  Pr54  1  -0.00886685  0.37381227  0.33655416  1
  Pr  Pr55  1  0.32542070  0.62365119  0.66413960  1
  Pr  Pr56  1  0.16420854  0.62521041  0.16479695  1
  Pr  Pr57  1  0.16293789  0.12536733  0.16606723  1
  Pr  Pr58  1  0.66029202  0.62214297  0.33423781  1
  Pr  Pr59  1  0.66258079  0.62548546  0.66669930  1
  Pr  Pr60  1  -0.00202078  0.12767852  0.66316986  1
  Pr  Pr61  1  0.66113724  0.62397877  1.00076616  1
  Pr  Pr62  1  0.16552076  0.37055942  0.16016624  1
  Pr  Pr63  1  0.49755267  0.62569395  0.83825506  1
  Pr  Pr64  1  0.49624648  0.12517107  0.16912944  1
  Pr  Pr65  1  -0.00106343  0.87396684  -0.00285068  1
  Pr  Pr66  1  0.67671451  0.87507088  0.67111548  1
  Pr  Pr67  1  0.16704235  0.87525342  0.82895066  1
  Pr  Pr68  1  0.16051441  0.12404781  0.83284416  1
  Pr  Pr69  1  0.33814569  0.87292289  0.67003238  1
  Pr  Pr70  1  0.16647275  0.87888035  0.16327010  1
  Pr  Pr71  1  0.66184516  0.12503823  0.99763586  1
  Mn  Mn72  1  0.00049457  0.00001202  0.16475511  1
  Mn  Mn73  1  -0.00082499  0.00212996  0.49932090  1
  Mn  Mn74  1  0.00137107  0.00014572  0.83238614  1
  Mn  Mn75  1  0.00057151  0.49839330  0.16732143  1
  Mn  Mn76  1  -0.00188650  0.49898006  0.49821198  1
  Mn  Mn77  1  0.00012038  0.49866505  0.83283652  1
  Mn  Mn78  1  0.33423477  -0.00010949  0.16667061  1
  Mn  Mn79  1  0.33402802  0.00039362  0.49891757  1
  Mn  Mn80  1  0.33495069  -0.00048905  0.83019118  1
  Mn  Mn81  1  0.33080173  0.49907945  0.16540891  1
  Mn  Mn82  1  0.33346629  0.50084665  0.49844370  1
  Mn  Mn83  1  0.33685924  0.49961965  0.83231343  1
  Mn  Mn84  1  0.66718669  0.00161660  0.16772469  1
  Mn  Mn85  1  0.66639311  0.00012742  0.50131566  1
  Mn  Mn86  1  0.66646487  -0.00174069  0.83694894  1
  Mn  Mn87  1  0.66753700  0.49964494  0.16947003  1
  Mn  Mn88  1  0.66459960  0.49961027  0.50269329  1
  Mn  Mn89  1  0.66500541  0.49935110  0.83578789  1
  Mn  Mn90  1  -0.00055430  0.25212737  0.16591233  1
  Mn  Mn91  1  -0.00158168  0.25232319  0.49895492  1
  Mn  Mn92  1  0.00047223  0.25090124  0.83073094  1
  Mn  Mn93  1  0.00094670  0.74944520  0.16618094  1
  Mn  Mn94  1  -0.00215733  0.74833027  0.49843675  1
  Mn  Mn95  1  0.00141751  0.75051249  0.83359050  1
  Mn  Mn96  1  0.33384740  0.25072888  0.16486402  1
  Mn  Mn97  1  0.33263675  0.24938838  0.49708720  1
  Mn  Mn98  1  0.33524342  0.24893802  0.82997065  1
  Mn  Mn99  1  0.33158137  0.75086606  0.16667295  1
  Mn  Mn100  1  0.33460097  0.74977963  0.50026448  1
  Mn  Mn101  1  0.33578762  0.75065118  0.83331794  1
  Mn  Mn102  1  0.66519427  0.25047555  0.16786800  1
  Mn  Mn103  1  0.66683411  0.25104054  0.50036268  1
  Mn  Mn104  1  0.66495791  0.25066099  0.83695250  1
  Mn  Mn105  1  0.66910512  0.74761029  0.17004925  1
  Mn  Mn106  1  0.66512930  0.74923202  0.50369360  1
  Mn  Mn107  1  0.66699582  0.75109099  0.83601564  1
  Mn  Mn108  1  0.16725646  0.24917239  -0.00396901  1
  Mn  Mn109  1  0.16734638  0.25207409  0.32861779  1
  Mn  Mn110  1  0.16775746  0.25028277  0.66169296  1
  Mn  Mn111  1  0.16953058  0.75219836  -0.00097761  1
  Mn  Mn112  1  0.16767380  0.74821337  0.33077349  1
  Mn  Mn113  1  0.16819966  0.75031579  0.66497604  1
  Mn  Mn114  1  0.50005203  0.25234520  0.00035954  1
  Mn  Mn115  1  0.49959356  0.25069414  0.33141911  1
  Mn  Mn116  1  0.49994839  0.24943960  0.66602257  1
  Mn  Mn117  1  0.50121798  0.75017264  -0.00029691  1
  Mn  Mn118  1  0.49839166  0.74981705  0.33425475  1
  Mn  Mn119  1  0.50046227  0.74988830  0.66889445  1
  Mn  Mn120  1  0.83106492  0.25127971  0.00334593  1
  Mn  Mn121  1  0.82874248  0.25065758  0.33515956  1
  Mn  Mn122  1  0.83285341  0.25087877  0.66778601  1
  Mn  Mn123  1  0.83277792  0.74993823  0.00506525  1
  Mn  Mn124  1  0.83312335  0.74779521  0.33530013  1
  Mn  Mn125  1  0.83316864  0.74839375  0.67070538  1
  Mn  Mn126  1  0.16783068  -0.00029447  -0.00400065  1
  Mn  Mn127  1  0.16958699  0.00151797  0.33043480  1
  Mn  Mn128  1  0.16954813  0.00175332  0.66492019  1
  Mn  Mn129  1  0.16761958  0.49742195  -0.00088161  1
  Mn  Mn130  1  0.16598683  0.49905441  0.32854404  1
  Mn  Mn131  1  0.16646135  0.49964591  0.66066460  1
  Mn  Mn132  1  0.50112164  -0.00095655  0.00036716  1
  Mn  Mn133  1  0.49902704  0.00082350  0.33330429  1
  Mn  Mn134  1  0.49904999  -0.00137277  0.66674826  1
  Mn  Mn135  1  0.49998819  0.49834640  -0.00104194  1
  Mn  Mn136  1  0.49883807  0.49863029  0.33306578  1
  Mn  Mn137  1  0.50089251  0.50136683  0.66825214  1
  Mn  Mn138  1  0.83271721  -0.00045708  0.00391862  1
  Mn  Mn139  1  0.83000116  0.00052828  0.33416075  1
  Mn  Mn140  1  0.83464956  -0.00010496  0.66909667  1
  Mn  Mn141  1  0.83102015  0.49919750  0.00450429  1
  Mn  Mn142  1  0.83241061  0.50083167  0.33631018  1
  Mn  Mn143  1  0.83121733  0.50034034  0.67143460  1
  O  O144  1  0.16638351  0.12335185  0.02161398  1
  O  O145  1  0.17358103  0.12897737  0.35187958  1
  O  O146  1  0.17012445  0.12661756  0.68911338  1
  O  O147  1  0.17491183  0.62446419  0.02118793  1
  O  O148  1  0.16861102  0.62135800  0.35450822  1
  O  O149  1  0.16560754  0.62424077  0.67645969  1
  O  O150  1  0.50462197  0.12837643  0.02557509  1
  O  O151  1  0.49666119  0.12544052  0.35479010  1
  O  O152  1  0.49281237  0.12528147  0.69236014  1
  O  O153  1  0.49802656  0.62512413  0.01251412  1
  O  O154  1  0.49806486  0.62392563  0.35486615  1
  O  O155  1  0.50694635  0.62703308  0.69739711  1
  O  O156  1  0.82591136  0.12693987  0.01928129  1
  O  O157  1  0.82213918  0.12833240  0.35806368  1
  O  O158  1  0.83909276  0.12791000  0.67854471  1
  O  O159  1  0.82831058  0.62294819  0.02092856  1
  O  O160  1  0.84626664  0.62260982  0.34799095  1
  O  O161  1  0.82307150  0.62281220  0.68326980  1
  O  O162  1  0.17563627  0.37619292  0.30368125  1
  O  O163  1  0.17855037  0.37555033  0.65092790  1
  O  O164  1  0.17218673  0.37251126  0.98508381  1
  O  O165  1  0.17528214  0.87308460  0.30920091  1
  O  O166  1  0.17783101  0.87532472  0.65419578  1
  O  O167  1  0.17588664  0.87806263  0.97305680  1
  O  O168  1  0.50094454  0.37388828  0.31362817  1
  O  O169  1  0.50214171  0.37565641  0.65339734  1
  O  O170  1  0.49949018  0.37632074  0.97377851  1
  O  O171  1  0.49480890  0.87652952  0.30885915  1
  O  O172  1  0.49320701  0.87115291  0.63988542  1
  O  O173  1  0.50098377  0.87127994  0.97864258  1
  O  O174  1  0.82670635  0.37632831  0.31210106  1
  O  O175  1  0.83336763  0.37618893  0.65127150  1
  O  O176  1  0.82210299  0.37535508  0.98126508  1
  O  O177  1  0.83088720  0.87315136  0.31300485  1
  O  O178  1  0.82910271  0.87266455  0.64719684  1
  O  O179  1  0.82518965  0.87454723  0.98865787  1
  O  O180  1  0.00669276  0.37565192  0.19329890  1
  O  O181  1  -0.00111434  0.37573662  0.52291548  1
  O  O182  1  -0.00188006  0.37422445  0.85030651  1
  O  O183  1  0.00277579  0.87400093  0.17870411  1
  O  O184  1  -0.00494889  0.87685007  0.50904039  1
  O  O185  1  0.00915182  0.87716149  0.84909079  1
  O  O186  1  0.32431198  0.37251252  0.19059784  1
  O  O187  1  0.33237842  0.37751969  0.52468859  1
  O  O188  1  0.33983564  0.37530106  0.85406851  1
  O  O189  1  0.32610578  0.87516409  0.19210532  1
  O  O190  1  0.33607017  0.87584198  0.52637078  1
  O  O191  1  0.32314356  0.87528637  0.85360731  1
  O  O192  1  0.66759989  0.37434382  0.19368239  1
  O  O193  1  0.66442612  0.37540418  0.52582176  1
  O  O194  1  0.65453191  0.37557745  0.86076710  1
  O  O195  1  0.65847094  0.87434797  0.17871287  1
  O  O196  1  0.65773976  0.87253085  0.52502915  1
  O  O197  1  0.65631418  0.87607110  0.86327921  1
  O  O198  1  0.00499510  0.12630354  0.15496845  1
  O  O199  1  -0.00197693  0.12868450  0.48894418  1
  O  O200  1  0.00600847  0.12684908  0.81041554  1
  O  O201  1  0.00216605  0.62371576  0.15278992  1
  O  O202  1  0.00262436  0.62075632  0.47420049  1
  O  O203  1  0.00022988  0.62123986  0.81517746  1
  O  O204  1  0.34339616  0.12541357  0.15082904  1
  O  O205  1  0.34243294  0.12224875  0.47330439  1
  O  O206  1  0.34618437  0.12280358  0.80700315  1
  O  O207  1  0.32730817  0.62801834  0.13821342  1
  O  O208  1  0.34302274  0.62493725  0.47603997  1
  O  O209  1  0.34491595  0.62580630  0.80991502  1
  O  O210  1  0.66438935  0.12750596  0.14050946  1
  O  O211  1  0.67464244  0.12725741  0.48010658  1
  O  O212  1  0.66290187  0.12409807  0.82437358  1
  O  O213  1  0.67071007  0.62329504  0.14395237  1
  O  O214  1  0.66166713  0.62426202  0.48072081  1
  O  O215  1  0.66215642  0.62403230  0.80998014  1
  O  O216  1  0.09004214  0.01073596  0.24070732  1
  O  O217  1  0.08102637  0.02233819  0.58792774  1
  O  O218  1  0.08528465  0.01444229  0.91414725  1
  O  O219  1  0.08578086  0.52309053  0.24607404  1
  O  O220  1  0.08454037  0.52056462  0.57400927  1
  O  O221  1  0.08297778  0.50272997  0.91795996  1
  O  O222  1  0.41171222  0.01878498  0.25640316  1
  O  O223  1  0.40894990  0.02016434  0.58855246  1
  O  O224  1  0.41732035  0.00783017  0.91414483  1
  O  O225  1  0.40675673  0.51012010  0.25331167  1
  O  O226  1  0.41375518  0.52258741  0.59274669  1
  O  O227  1  0.41626301  0.51996305  0.91667033  1
  O  O228  1  0.73933662  0.02061255  0.25840045  1
  O  O229  1  0.74946395  0.00697809  0.58511552  1
  O  O230  1  0.73814621  0.00974905  0.93305205  1
  O  O231  1  0.74575823  0.51840635  0.26028396  1
  O  O232  1  0.73751822  0.50933588  0.59825462  1
  O  O233  1  0.73607970  0.51277372  0.92934232  1
  O  O234  1  0.24989102  0.22616669  0.24378826  1
  O  O235  1  0.24725550  0.22379552  0.57523233  1
  O  O236  1  0.24843736  0.23194560  0.90366467  1
  O  O237  1  0.24388469  0.72599398  0.24174466  1
  O  O238  1  0.24800535  0.72734160  0.57651190  1
  O  O239  1  0.25761143  0.73353333  0.92222796  1
  O  O240  1  0.57841278  0.22490336  0.24470609  1
  O  O241  1  0.57610885  0.23022339  0.57663024  1
  O  O242  1  0.57894666  0.22824725  0.91568181  1
  O  O243  1  0.58420868  0.73364927  0.25203836  1
  O  O244  1  0.57643525  0.72579674  0.58301866  1
  O  O245  1  0.57850279  0.72810472  0.91022846  1
  O  O246  1  0.91121973  0.24725033  0.24752651  1
  O  O247  1  0.92103035  0.23740418  0.58898997  1
  O  O248  1  0.91251312  0.25017222  0.91831985  1
  O  O249  1  0.91767213  0.73714803  0.24723310  1
  O  O250  1  0.91843634  0.73367071  0.58735151  1
  O  O251  1  0.91559349  0.75170213  0.92020133  1
  O  O252  1  0.08373051  0.47796227  0.08418989  1
  O  O253  1  0.07608738  0.48344876  0.40195684  1
  O  O254  1  0.07590545  0.48750844  0.73498239  1
  O  O255  1  0.08740084  0.97717223  0.07826441  1
  O  O256  1  0.08913130  0.99930360  0.42001376  1
  O  O257  1  0.09914837  0.98939915  0.75636398  1
  O  O258  1  0.41185331  0.48116514  0.07853192  1
  O  O259  1  0.41412716  0.48473983  0.41428890  1
  O  O260  1  0.42407595  0.47895862  0.75453905  1
  O  O261  1  0.42275573  0.97723603  0.08989270  1
  O  O262  1  0.42207237  0.97737941  0.42496880  1
  O  O263  1  0.42237214  0.97231230  0.75482051  1
  O  O264  1  0.75317059  0.47665645  0.09229831  1
  O  O265  1  0.74700733  0.48497498  0.41999558  1
  O  O266  1  0.75081185  0.47346409  0.76074941  1
  O  O267  1  0.75757696  0.98024150  0.09628299  1
  O  O268  1  0.75562529  0.98342267  0.42655136  1
  O  O269  1  0.74972940  0.98078762  0.75653420  1
  O  O270  1  0.25066166  0.26707741  0.08188196  1
  O  O271  1  0.25568197  0.26486789  0.40521666  1
  O  O272  1  0.26146592  0.26035263  0.73664055  1
  O  O273  1  0.25253755  0.77608826  0.08211069  1
  O  O274  1  0.25857000  0.75928774  0.40366913  1
  O  O275  1  0.25968646  0.76201450  0.74388865  1
  O  O276  1  0.58881076  0.27152118  0.07944209  1
  O  O277  1  0.58937694  0.26020206  0.40508776  1
  O  O278  1  0.58451757  0.26803377  0.75026348  1
  O  O279  1  0.58903403  0.76327877  0.07616591  1
  O  O280  1  0.58027653  0.75934864  0.42385792  1
  O  O281  1  0.58694386  0.77576972  0.74362785  1
  O  O282  1  0.91758036  0.27610269  0.08336075  1
  O  O283  1  0.91369244  0.26783303  0.41621094  1
  O  O284  1  0.91542914  0.27128833  0.75087776  1
  O  O285  1  0.92085647  0.77176662  0.08140471  1
  O  O286  1  0.91367277  0.76396436  0.42023281  1
  O  O287  1  0.91881776  0.75470889  0.74886242  1
  O  O288  1  0.24972913  0.47731608  0.08341358  1
  O  O289  1  0.25474515  0.48657780  0.40321333  1
  O  O290  1  0.26292147  0.49135194  0.74078293  1
  O  O291  1  0.25331391  0.97960377  0.07819202  1
  O  O292  1  0.26272836  0.98835718  0.40561943  1
  O  O293  1  0.26389112  0.98769112  0.73669790  1
  O  O294  1  0.58785208  0.48477293  0.07549781  1
  O  O295  1  0.58855222  0.48800041  0.41191376  1
  O  O296  1  0.58937156  0.47938974  0.74560179  1
  O  O297  1  0.59111420  0.98337892  0.07708295  1
  O  O298  1  0.58404861  0.99436362  0.41531416  1
  O  O299  1  0.58612279  0.97728374  0.74765779  1
  O  O300  1  0.91855408  0.47280697  0.08632954  1
  O  O301  1  0.91461026  0.47666304  0.41796066  1
  O  O302  1  0.91394680  0.47888600  0.75387320  1
  O  O303  1  0.92019472  0.97869904  0.08056272  1
  O  O304  1  0.91149878  0.99324852  0.41991600  1
  O  O305  1  0.92170867  0.99309349  0.74894360  1
  O  O306  1  0.08006198  0.27123415  0.07989840  1
  O  O307  1  0.07907047  0.26666340  0.40565835  1
  O  O308  1  0.07746825  0.26361956  0.73528962  1
  O  O309  1  0.08977689  0.77047862  0.08458705  1
  O  O310  1  0.08732973  0.75205705  0.41596939  1
  O  O311  1  0.09249886  0.76203228  0.75207839  1
  O  O312  1  0.41519755  0.27395940  0.08002043  1
  O  O313  1  0.41400204  0.26495456  0.41081578  1
  O  O314  1  0.41959052  0.27315617  0.74940159  1
  O  O315  1  0.41864444  0.77322214  0.08784106  1
  O  O316  1  0.42046295  0.77167292  0.42467194  1
  O  O317  1  0.42443009  0.77498914  0.75649562  1
  O  O318  1  0.75300049  0.27311219  0.09259078  1
  O  O319  1  0.74647999  0.27355537  0.41674470  1
  O  O320  1  0.74943041  0.27276580  0.75664357  1
  O  O321  1  0.75801372  0.77010885  0.09658640  1
  O  O322  1  0.75301221  0.76437505  0.43075090  1
  O  O323  1  0.75001450  0.77208681  0.75909550  1
  O  O324  1  0.24821111  0.02457992  0.24176483  1
  O  O325  1  0.24493824  0.02693716  0.57315556  1
  O  O326  1  0.24350518  0.01827842  0.90057380  1
  O  O327  1  0.24564578  0.52520172  0.24339690  1
  O  O328  1  0.24861054  0.52535455  0.57524948  1
  O  O329  1  0.25917209  0.51172635  0.92131049  1
  O  O330  1  0.57679337  0.02159998  0.24178138  1
  O  O331  1  0.57332530  0.01489642  0.57573666  1
  O  O332  1  0.57623891  0.02057606  0.91188581  1
  O  O333  1  0.58540722  0.51483907  0.25286776  1
  O  O334  1  0.57669347  0.52555753  0.58213587  1
  O  O335  1  0.57799253  0.52259544  0.91128332  1
  O  O336  1  0.90663623  0.00834131  0.24505748  1
  O  O337  1  0.91558884  0.01749464  0.58097678  1
  O  O338  1  0.91488996  -0.00049790  0.91930451  1
  O  O339  1  0.92198403  0.50780921  0.25416905  1
  O  O340  1  0.92382337  0.51420282  0.59601947  1
  O  O341  1  0.91206067  0.49874567  0.92063898  1
  O  O342  1  0.09204517  0.23809505  0.23919841  1
  O  O343  1  0.08657275  0.23005493  0.57863113  1
  O  O344  1  0.08617877  0.23576120  0.90799298  1
  O  O345  1  0.08350311  0.72779543  0.24993500  1
  O  O346  1  0.07991780  0.72974005  0.58191132  1
  O  O347  1  0.08660269  0.74805439  0.91900262  1
  O  O348  1  0.41566377  0.23287448  0.24966410  1
  O  O349  1  0.41209550  0.23087065  0.58605879  1
  O  O350  1  0.42192496  0.23646108  0.90890391  1
  O  O351  1  0.40417200  0.73621257  0.25714763  1
  O  O352  1  0.41396351  0.72492373  0.59367777  1
  O  O353  1  0.41514051  0.73368530  0.92079425  1
  O  O354  1  0.74074788  0.23175177  0.25651881  1
  O  O355  1  0.75435845  0.23923675  0.58270302  1
  O  O356  1  0.73876446  0.24014491  0.92924633  1
  O  O357  1  0.74558377  0.72656084  0.26170308  1
  O  O358  1  0.73682762  0.73916726  0.59768833  1
  O  O359  1  0.73842388  0.73743677  0.93523550  1
