# generated using pymatgen
data_Ba17Sr5La8Pr42Mn72O216
_symmetry_space_group_name_H-M   'P 1'
_cell_length_a   16.67180458
_cell_length_b   15.69998284
_cell_length_c   16.81843618
_cell_angle_alpha   89.99970132
_cell_angle_beta   90.00493982
_cell_angle_gamma   90.01279934
_symmetry_Int_Tables_number   1
_chemical_formula_structural   Ba17Sr5La8Pr42Mn72O216
_chemical_formula_sum   'Ba17 Sr5 La8 Pr42 Mn72 O216'
_cell_volume   4402.17585931
_cell_formula_units_Z   1
loop_
 _symmetry_equiv_pos_site_id
 _symmetry_equiv_pos_as_xyz
  1  'x, y, z'
loop_
 _atom_site_type_symbol
 _atom_site_label
 _atom_site_symmetry_multiplicity
 _atom_site_fract_x
 _atom_site_fract_y
 _atom_site_fract_z
 _atom_site_occupancy
  Ba  Ba0  1  0.49812356  0.87429620  0.83278234  1
  Ba  Ba1  1  0.83513193  0.37728753  0.16372686  1
  Ba  Ba2  1  0.17053943  0.12545678  0.83699948  1
  Ba  Ba3  1  0.83128749  0.87300823  0.16491745  1
  Ba  Ba4  1  0.66696848  0.62523099  0.66388836  1
  Ba  Ba5  1  0.50040031  0.37309777  0.49492441  1
  Ba  Ba6  1  0.00323500  0.12568919  1.00217464  1
  Ba  Ba7  1  0.16594632  0.62422270  0.50431048  1
  Ba  Ba8  1  0.00093327  0.87378391  0.00295333  1
  Ba  Ba9  1  0.49790515  0.37411312  0.16313789  1
  Ba  Ba10  1  0.83512363  0.12599210  0.16729746  1
  Ba  Ba11  1  0.33119781  0.62645057  0.33442730  1
  Ba  Ba12  1  0.50254587  0.62600226  0.83117420  1
  Ba  Ba13  1  -0.00201996  0.87338747  0.67021624  1
  Ba  Ba14  1  0.50013712  0.62379404  0.49846145  1
  Ba  Ba15  1  0.83548573  0.12693480  0.50026572  1
  Ba  Ba16  1  0.33081800  0.87600588  0.33308610  1
  Sr  Sr17  1  0.66777623  0.62352497  0.99632514  1
  Sr  Sr18  1  0.00385381  0.37429685  0.00394332  1
  Sr  Sr19  1  0.83117784  0.62449939  0.16435710  1
  Sr  Sr20  1  0.83517679  0.37596740  0.83455087  1
  Sr  Sr21  1  0.49404700  0.87375002  0.16247029  1
  La  La22  1  0.66364542  0.87656441  0.66537209  1
  La  La23  1  0.00214000  0.12495954  0.33013582  1
  La  La24  1  0.67011102  0.37896038  -0.00073579  1
  La  La25  1  0.16578850  0.87226958  0.16849027  1
  La  La26  1  0.83170860  0.37722751  0.49846810  1
  La  La27  1  0.66974454  0.12664369  0.66396801  1
  La  La28  1  0.17078014  0.12236769  0.50550590  1
  La  La29  1  0.16568133  0.37105606  0.83654042  1
  Pr  Pr30  1  0.00864859  0.12618439  0.66884797  1
  Pr  Pr31  1  -0.00392263  0.37598384  0.33557207  1
  Pr  Pr32  1  0.49664442  0.87155045  0.49674653  1
  Pr  Pr33  1  0.83383527  0.62526581  0.50230367  1
  Pr  Pr34  1  0.33054793  0.37536765  0.33855472  1
  Pr  Pr35  1  0.66275863  0.62209852  0.32727994  1
  Pr  Pr36  1  0.32851941  0.87165075  0.66854747  1
  Pr  Pr37  1  0.33336073  0.37882093  0.66737652  1
  Pr  Pr38  1  0.33303249  0.87654435  0.00357892  1
  Pr  Pr39  1  0.16337245  0.87802192  0.83445335  1
  Pr  Pr40  1  -0.00882696  0.87341503  0.33733725  1
  Pr  Pr41  1  -0.00256604  0.62166990  0.66716030  1
  Pr  Pr42  1  0.33873827  0.12564859  0.32879682  1
  Pr  Pr43  1  0.16870851  0.37727498  0.16751663  1
  Pr  Pr44  1  0.66640327  0.12967400  0.32633200  1
  Pr  Pr45  1  0.50251673  0.37652447  0.82770268  1
  Pr  Pr46  1  0.83357510  0.62622664  0.83641701  1
  Pr  Pr47  1  0.67237165  0.37488508  0.33085911  1
  Pr  Pr48  1  0.15449140  0.87372797  0.49841427  1
  Pr  Pr49  1  0.84093875  0.12527085  0.83800520  1
  Pr  Pr50  1  0.33966753  0.12655826  0.99728540  1
  Pr  Pr51  1  -0.00713446  0.62366630  1.00346625  1
  Pr  Pr52  1  0.33905692  0.62599223  0.65983764  1
  Pr  Pr53  1  0.16315848  0.62483543  0.17411264  1
  Pr  Pr54  1  0.82932756  0.87593119  0.83389288  1
  Pr  Pr55  1  0.67336058  0.12694731  0.99759222  1
  Pr  Pr56  1  0.50160045  0.62767420  0.16754884  1
  Pr  Pr57  1  -0.00029000  0.37400772  0.67213623  1
  Pr  Pr58  1  -0.00280790  0.62445382  0.33296659  1
  Pr  Pr59  1  0.82738253  0.87279238  0.49537149  1
  Pr  Pr60  1  0.33505035  0.37479409  0.00033039  1
  Pr  Pr61  1  0.16413591  0.37396159  0.50051098  1
  Pr  Pr62  1  0.16630511  0.12450563  0.16814471  1
  Pr  Pr63  1  0.33575499  0.62473967  1.00114657  1
  Pr  Pr64  1  0.34080859  0.12499796  0.66630794  1
  Pr  Pr65  1  0.50449002  0.12117480  0.16451419  1
  Pr  Pr66  1  0.50365935  0.12230531  0.49769386  1
  Pr  Pr67  1  0.66525667  0.37466777  0.66563411  1
  Pr  Pr68  1  0.66193506  0.87840656  0.33116234  1
  Pr  Pr69  1  0.16429949  0.62482551  0.83750874  1
  Pr  Pr70  1  0.66063241  0.87202720  0.00329148  1
  Pr  Pr71  1  0.50732282  0.12309279  0.83435995  1
  Mn  Mn72  1  0.00184692  -0.00001370  0.16989460  1
  Mn  Mn73  1  -0.00205773  0.00131888  0.50150754  1
  Mn  Mn74  1  0.00003404  -0.00124398  0.83404670  1
  Mn  Mn75  1  0.00089075  0.50018216  0.16785864  1
  Mn  Mn76  1  -0.00077341  0.49864529  0.50318750  1
  Mn  Mn77  1  0.00123516  0.49948939  0.83563485  1
  Mn  Mn78  1  0.33128770  0.00202375  0.16507101  1
  Mn  Mn79  1  0.33259250  0.00091239  0.50097723  1
  Mn  Mn80  1  0.33489890  -0.00069835  0.83374087  1
  Mn  Mn81  1  0.33204467  0.49964686  0.16592452  1
  Mn  Mn82  1  0.33136928  0.49802508  0.50165262  1
  Mn  Mn83  1  0.33284501  0.50020495  0.83348584  1
  Mn  Mn84  1  0.66444516  -0.00072325  0.16468774  1
  Mn  Mn85  1  0.66650537  0.00135099  0.49882844  1
  Mn  Mn86  1  0.66889204  0.00085220  0.83149313  1
  Mn  Mn87  1  0.66486004  0.50103809  0.16259706  1
  Mn  Mn88  1  0.66772707  0.49880898  0.49670456  1
  Mn  Mn89  1  0.66909909  0.49830194  0.83174108  1
  Mn  Mn90  1  0.00318145  0.25093800  0.16857207  1
  Mn  Mn91  1  0.00145818  0.25060294  0.50187569  1
  Mn  Mn92  1  0.00041225  0.25292891  0.83534350  1
  Mn  Mn93  1  -0.00008053  0.74764292  0.16949636  1
  Mn  Mn94  1  -0.00362190  0.74842853  0.50329478  1
  Mn  Mn95  1  0.00028375  0.74798114  0.83601164  1
  Mn  Mn96  1  0.33205035  0.24914371  0.16643792  1
  Mn  Mn97  1  0.33207806  0.24703810  0.49913914  1
  Mn  Mn98  1  0.33706159  0.25159159  0.83281348  1
  Mn  Mn99  1  0.33200861  0.75007034  0.16451236  1
  Mn  Mn100  1  0.33166912  0.75207957  0.50241994  1
  Mn  Mn101  1  0.33051655  0.74772299  0.83396027  1
  Mn  Mn102  1  0.66550957  0.25149872  0.16246197  1
  Mn  Mn103  1  0.66773300  0.24896533  0.49713537  1
  Mn  Mn104  1  0.66926286  0.25012219  0.83110121  1
  Mn  Mn105  1  0.66409971  0.74904955  0.16441828  1
  Mn  Mn106  1  0.66641265  0.75196511  0.49651536  1
  Mn  Mn107  1  0.66829437  0.75143014  0.83267460  1
  Mn  Mn108  1  0.17059332  0.25244245  0.00301470  1
  Mn  Mn109  1  0.16571886  0.24944606  0.33647796  1
  Mn  Mn110  1  0.16934584  0.25023371  0.66724513  1
  Mn  Mn111  1  0.16900019  0.74600545  0.00240927  1
  Mn  Mn112  1  0.16247544  0.75046888  0.33558613  1
  Mn  Mn113  1  0.16689730  0.74925415  0.67130497  1
  Mn  Mn114  1  0.50193505  0.24981150  -0.00476945  1
  Mn  Mn115  1  0.49898520  0.24977666  0.32893847  1
  Mn  Mn116  1  0.50067462  0.24929898  0.66458433  1
  Mn  Mn117  1  0.49932566  0.74917931  0.00000147  1
  Mn  Mn118  1  0.49970844  0.75147775  0.33067547  1
  Mn  Mn119  1  0.49962300  0.75236032  0.66436094  1
  Mn  Mn120  1  0.83558012  0.25160539  -0.00106160  1
  Mn  Mn121  1  0.83418260  0.25116153  0.33429390  1
  Mn  Mn122  1  0.83497321  0.25064893  0.66891239  1
  Mn  Mn123  1  0.83161700  0.74909614  -0.00109323  1
  Mn  Mn124  1  0.82944772  0.74807961  0.33299552  1
  Mn  Mn125  1  0.83220459  0.75095420  0.66678149  1
  Mn  Mn126  1  0.16979701  -0.00137494  0.00202237  1
  Mn  Mn127  1  0.16408583  0.00041873  0.33725383  1
  Mn  Mn128  1  0.16865817  -0.00007730  0.66766575  1
  Mn  Mn129  1  0.16845019  0.50203637  0.00337800  1
  Mn  Mn130  1  0.16396538  0.49832102  0.33524186  1
  Mn  Mn131  1  0.16753131  0.49814113  0.67156917  1
  Mn  Mn132  1  0.50058143  0.00132399  -0.00094330  1
  Mn  Mn133  1  0.50006538  -0.00006661  0.33193966  1
  Mn  Mn134  1  0.49923274  0.00225325  0.66458408  1
  Mn  Mn135  1  0.50013219  0.49998675  -0.00321879  1
  Mn  Mn136  1  0.49821444  0.49967268  0.32896143  1
  Mn  Mn137  1  0.50063346  0.49709527  0.66438522  1
  Mn  Mn138  1  0.83272663  0.00044408  -0.00088345  1
  Mn  Mn139  1  0.83168209  -0.00035816  0.33433511  1
  Mn  Mn140  1  0.83366682  0.00132764  0.66745919  1
  Mn  Mn141  1  0.83399693  0.50040019  -0.00171756  1
  Mn  Mn142  1  0.83190444  0.50141174  0.33287897  1
  Mn  Mn143  1  0.83396666  0.49839090  0.66666858  1
  O  O144  1  0.17950549  0.12976817  0.02230913  1
  O  O145  1  0.16101800  0.12601765  0.36371967  1
  O  O146  1  0.16287722  0.12563444  0.67957199  1
  O  O147  1  0.17914891  0.62338907  0.03167223  1
  O  O148  1  0.16037420  0.62345810  0.34723967  1
  O  O149  1  0.16791205  0.62006579  0.69282505  1
  O  O150  1  0.50316102  0.12656921  0.02059860  1
  O  O151  1  0.50167921  0.12523192  0.35454887  1
  O  O152  1  0.49689481  0.12685485  0.69118388  1
  O  O153  1  0.50032161  0.62501334  0.02066949  1
  O  O154  1  0.50800212  0.62608175  0.34231864  1
  O  O155  1  0.49166122  0.62062330  0.67317839  1
  O  O156  1  0.82694089  0.12490230  0.00850151  1
  O  O157  1  0.83025994  0.12616315  0.34291933  1
  O  O158  1  0.82620503  0.12644207  0.69325292  1
  O  O159  1  0.83360889  0.62437367  0.01229319  1
  O  O160  1  0.82936143  0.62401709  0.35946711  1
  O  O161  1  0.83570458  0.62075313  0.69184641  1
  O  O162  1  0.16759317  0.37225508  0.31109349  1
  O  O163  1  0.16669914  0.37294568  0.64421782  1
  O  O164  1  0.17027266  0.37934908  0.97913458  1
  O  O165  1  0.15714996  0.87702444  0.31388908  1
  O  O166  1  0.17332011  0.87864696  0.64251334  1
  O  O167  1  0.17418596  0.86642200  0.97625250  1
  O  O168  1  0.48956053  0.37166971  0.31898561  1
  O  O169  1  0.50390161  0.37063894  0.65179164  1
  O  O170  1  0.49242494  0.37161789  0.97198995  1
  O  O171  1  0.50620946  0.87841347  0.31172366  1
  O  O172  1  0.49984594  0.88338070  0.64202536  1
  O  O173  1  0.49345812  0.87667589  0.98943276  1
  O  O174  1  0.83445551  0.37730031  0.32073006  1
  O  O175  1  0.84243199  0.37478503  0.64154122  1
  O  O176  1  0.82989843  0.37618405  0.98499303  1
  O  O177  1  0.83813936  0.87274469  0.32196262  1
  O  O178  1  0.83179637  0.88008287  0.63886146  1
  O  O179  1  0.82622186  0.87543605  0.97963050  1
  O  O180  1  0.00903019  0.37641147  0.19044750  1
  O  O181  1  -0.00034794  0.37502098  0.52875443  1
  O  O182  1  0.00463736  0.37819858  0.85397435  1
  O  O183  1  0.00777937  0.87281315  0.19124837  1
  O  O184  1  -0.00364163  0.87310675  0.51422254  1
  O  O185  1  0.00345117  0.87114052  0.84594154  1
  O  O186  1  0.33008415  0.37152695  0.19560733  1
  O  O187  1  0.32722852  0.36934371  0.52133720  1
  O  O188  1  0.34103587  0.37590917  0.85825880  1
  O  O189  1  0.33543468  0.87850700  0.17646957  1
  O  O190  1  0.34144873  0.88053634  0.52354387  1
  O  O191  1  0.32823470  0.87014172  0.85951337  1
  O  O192  1  0.66591520  0.37599212  0.18557608  1
  O  O193  1  0.67217089  0.37194848  0.51941276  1
  O  O194  1  0.66123843  0.36877470  0.85601919  1
  O  O195  1  0.66272551  0.87466549  0.18627067  1
  O  O196  1  0.67224579  0.87990605  0.52227315  1
  O  O197  1  0.67428317  0.87945533  0.85778029  1
  O  O198  1  0.00600839  0.12688860  0.16166497  1
  O  O199  1  0.00819587  0.12855707  0.47530041  1
  O  O200  1  -0.00544908  0.12724485  0.81373322  1
  O  O201  1  0.00917393  0.62334362  0.14874677  1
  O  O202  1  -0.00535195  0.62294211  0.47734705  1
  O  O203  1  0.00349495  0.62293445  0.80942861  1
  O  O204  1  0.31972534  0.12651077  0.14096177  1
  O  O205  1  0.32344557  0.12358679  0.47250001  1
  O  O206  1  0.33796780  0.12895048  0.80903345  1
  O  O207  1  0.32204306  0.62402872  0.14572173  1
  O  O208  1  0.33188333  0.62543237  0.49612169  1
  O  O209  1  0.32234921  0.62266892  0.80373183  1
  O  O210  1  0.65935543  0.12500656  0.14380885  1
  O  O211  1  0.66112027  0.12387653  0.47044127  1
  O  O212  1  0.66665384  0.12710822  0.80608459  1
  O  O213  1  0.65591011  0.62531663  0.14684185  1
  O  O214  1  0.67420792  0.62573645  0.47402374  1
  O  O215  1  0.67661726  0.62530199  0.82088216  1
  O  O216  1  0.08981622  0.02252947  0.25216574  1
  O  O217  1  0.09083761  0.01472759  0.57605305  1
  O  O218  1  0.09208464  0.00367660  0.91655548  1
  O  O219  1  0.07591507  0.51629748  0.25963198  1
  O  O220  1  0.07596332  0.51177932  0.59699022  1
  O  O221  1  0.08370607  0.52566094  0.92666401  1
  O  O222  1  0.41683886  0.02499559  0.24291051  1
  O  O223  1  0.42063888  0.02855594  0.57804255  1
  O  O224  1  0.42563801  0.02311842  0.90978667  1
  O  O225  1  0.41703426  0.51893939  0.24127963  1
  O  O226  1  0.41048888  0.50278064  0.59050406  1
  O  O227  1  0.40984467  0.51951117  0.91923743  1
  O  O228  1  0.74380245  0.01007073  0.25347994  1
  O  O229  1  0.74578785  0.01899564  0.58661553  1
  O  O230  1  0.75387222  0.02280666  0.90714196  1
  O  O231  1  0.74261320  0.51587315  0.25396328  1
  O  O232  1  0.75766126  0.51143611  0.57483371  1
  O  O233  1  0.75410912  0.50983631  0.91014735  1
  O  O234  1  0.25161560  0.22681135  0.25935575  1
  O  O235  1  0.25747529  0.22907670  0.58855570  1
  O  O236  1  0.26401208  0.24242176  0.92622889  1
  O  O237  1  0.24229272  0.74277009  0.24163575  1
  O  O238  1  0.25687041  0.73920770  0.59677122  1
  O  O239  1  0.24841900  0.72077608  0.91693521  1
  O  O240  1  0.57964352  0.22885964  0.24304344  1
  O  O241  1  0.58482409  0.22697235  0.57836860  1
  O  O242  1  0.58774803  0.22524341  0.91207104  1
  O  O243  1  0.58628579  0.73205998  0.25069511  1
  O  O244  1  0.58560165  0.75010504  0.57852645  1
  O  O245  1  0.59016835  0.74589579  0.92260046  1
  O  O246  1  0.92654419  0.24328528  0.26181109  1
  O  O247  1  0.92991894  0.23171317  0.59373426  1
  O  O248  1  0.91446121  0.23843922  0.91197384  1
  O  O249  1  0.91903269  0.73149872  0.25965170  1
  O  O250  1  0.91805682  0.72487030  0.58911598  1
  O  O251  1  0.92049237  0.72807661  0.91922154  1
  O  O252  1  0.09440878  0.48593998  0.09349670  1
  O  O253  1  0.08204632  0.47533692  0.42260782  1
  O  O254  1  0.08980853  0.47777742  0.75813874  1
  O  O255  1  0.08903519  0.98991989  0.09226013  1
  O  O256  1  0.07315414  0.97873674  0.41174071  1
  O  O257  1  0.08369832  0.99063311  0.74812690  1
  O  O258  1  0.41170328  0.48918656  0.07700946  1
  O  O259  1  0.40986040  0.48690532  0.41017946  1
  O  O260  1  0.41772592  0.47844165  0.75154867  1
  O  O261  1  0.40723688  0.99646209  0.07297369  1
  O  O262  1  0.41812859  0.99085802  0.41757602  1
  O  O263  1  0.40686497  0.98634427  0.73924061  1
  O  O264  1  0.74685066  0.49076873  0.07883911  1
  O  O265  1  0.75073835  0.47768561  0.41538152  1
  O  O266  1  0.74860856  0.47530730  0.74284372  1
  O  O267  1  0.73819104  0.98853438  0.07134024  1
  O  O268  1  0.74601866  0.97891215  0.41546166  1
  O  O269  1  0.74775705  0.97677300  0.74673844  1
  O  O270  1  0.24956225  0.27800904  0.08898070  1
  O  O271  1  0.24241789  0.27166223  0.42286240  1
  O  O272  1  0.25076261  0.27284847  0.75519452  1
  O  O273  1  0.25339365  0.77255105  0.07884560  1
  O  O274  1  0.24054465  0.76908476  0.42773566  1
  O  O275  1  0.24615043  0.77501857  0.75564135  1
  O  O276  1  0.58688120  0.26641048  0.07142961  1
  O  O277  1  0.59026166  0.26356909  0.40306530  1
  O  O278  1  0.58580905  0.26843717  0.75150701  1
  O  O279  1  0.57860403  0.76840090  0.08614435  1
  O  O280  1  0.58299079  0.77472372  0.41603948  1
  O  O281  1  0.58461691  0.76520620  0.74509669  1
  O  O282  1  0.92235359  0.26066737  0.08344076  1
  O  O283  1  0.91687912  0.27189262  0.42456239  1
  O  O284  1  0.91829768  0.26873886  0.75087905  1
  O  O285  1  0.91854560  0.75120638  0.08615644  1
  O  O286  1  0.90691400  0.76278452  0.42497551  1
  O  O287  1  0.90670687  0.76054545  0.75973453  1
  O  O288  1  0.25427405  0.47362739  0.08112250  1
  O  O289  1  0.24627257  0.47695236  0.41769244  1
  O  O290  1  0.25186981  0.47074610  0.75271002  1
  O  O291  1  0.24554609  0.97690612  0.08899449  1
  O  O292  1  0.23487335  0.98168988  0.43123641  1
  O  O293  1  0.24622360  0.97799880  0.75626359  1
  O  O294  1  0.58613865  0.48246298  0.07389705  1
  O  O295  1  0.59189233  0.48584162  0.40390275  1
  O  O296  1  0.58480676  0.47909397  0.74781098  1
  O  O297  1  0.57663051  0.98417877  0.08499479  1
  O  O298  1  0.58210542  0.97787530  0.42033753  1
  O  O299  1  0.58534483  0.99006087  0.74647653  1
  O  O300  1  0.92572872  0.49456346  0.07786023  1
  O  O301  1  0.91775720  0.48135608  0.41756194  1
  O  O302  1  0.92340362  0.48416617  0.74303497  1
  O  O303  1  0.91506053  0.99295899  0.08754464  1
  O  O304  1  0.91020789  0.98318292  0.42460323  1
  O  O305  1  0.90637547  0.98788700  0.75764758  1
  O  O306  1  0.09116162  0.26488743  0.09056325  1
  O  O307  1  0.07876750  0.27752136  0.41468311  1
  O  O308  1  0.08039199  0.26739371  0.74688733  1
  O  O309  1  0.09394659  0.76061580  0.09240584  1
  O  O310  1  0.07397962  0.76803927  0.41742469  1
  O  O311  1  0.09007376  0.76080521  0.76136422  1
  O  O312  1  0.41004395  0.25973605  0.06998775  1
  O  O313  1  0.40414234  0.25752876  0.40535245  1
  O  O314  1  0.41317237  0.27262359  0.74591064  1
  O  O315  1  0.41067852  0.75623203  0.07819634  1
  O  O316  1  0.41845225  0.76533146  0.41824937  1
  O  O317  1  0.40674606  0.76212199  0.74373348  1
  O  O318  1  0.74544412  0.26081154  0.07559171  1
  O  O319  1  0.75106702  0.26982015  0.41717407  1
  O  O320  1  0.74582008  0.27334331  0.74773256  1
  O  O321  1  0.73962803  0.76270425  0.07346794  1
  O  O322  1  0.74271065  0.77459255  0.40947271  1
  O  O323  1  0.74688790  0.77572320  0.74236982  1
  O  O324  1  0.25070731  0.02211642  0.25709027  1
  O  O325  1  0.25940116  0.02064173  0.59387437  1
  O  O326  1  0.26488388  0.01219414  0.92755737  1
  O  O327  1  0.24039332  0.50945778  0.24350686  1
  O  O328  1  0.25140785  0.50886350  0.59268165  1
  O  O329  1  0.24703546  0.51982307  0.91569135  1
  O  O330  1  0.58431228  0.02360693  0.25197277  1
  O  O331  1  0.58393461  0.02388198  0.58156804  1
  O  O332  1  0.59028890  0.02076393  0.91859034  1
  O  O333  1  0.58007975  0.51718363  0.24293154  1
  O  O334  1  0.58776626  0.50311865  0.58035352  1
  O  O335  1  0.58360583  0.50363845  0.91343100  1
  O  O336  1  0.92713083  0.00829577  0.26230892  1
  O  O337  1  0.92680980  0.02377562  0.59497291  1
  O  O338  1  0.91423823  0.00992786  0.91521153  1
  O  O339  1  0.91551677  0.51979443  0.25348648  1
  O  O340  1  0.91535595  0.52357626  0.58248174  1
  O  O341  1  0.91670007  0.52250538  0.91282869  1
  O  O342  1  0.08984731  0.22951959  0.25246258  1
  O  O343  1  0.09045169  0.23348787  0.57654997  1
  O  O344  1  0.08984308  0.24642743  0.91633314  1
  O  O345  1  0.07886345  0.72864081  0.25410034  1
  O  O346  1  0.08057668  0.73541302  0.59125813  1
  O  O347  1  0.08453845  0.72249688  0.92556403  1
  O  O348  1  0.41770498  0.22140113  0.24166466  1
  O  O349  1  0.41840539  0.22385300  0.57444373  1
  O  O350  1  0.42541138  0.22538115  0.90802602  1
  O  O351  1  0.42017025  0.73586785  0.24076246  1
  O  O352  1  0.41571958  0.74482139  0.58430838  1
  O  O353  1  0.41059551  0.73173976  0.91858871  1
  O  O354  1  0.74111718  0.24133474  0.25478795  1
  O  O355  1  0.74782179  0.23846926  0.58827188  1
  O  O356  1  0.74956713  0.23065348  0.90956225  1
  O  O357  1  0.74768110  0.72987718  0.24809165  1
  O  O358  1  0.75867382  0.73789542  0.57020903  1
  O  O359  1  0.76050485  0.73948045  0.90400436  1
