# generated using pymatgen
data_Ba17Sr5La8Pr42Mn72O216
_symmetry_space_group_name_H-M   'P 1'
_cell_length_a   16.67259094
_cell_length_b   15.70286669
_cell_length_c   16.82252291
_cell_angle_alpha   90.00376409
_cell_angle_beta   89.98300769
_cell_angle_gamma   89.94307697
_symmetry_Int_Tables_number   1
_chemical_formula_structural   Ba17Sr5La8Pr42Mn72O216
_chemical_formula_sum   'Ba17 Sr5 La8 Pr42 Mn72 O216'
_cell_volume   4404.25983416
_cell_formula_units_Z   1
loop_
 _symmetry_equiv_pos_site_id
 _symmetry_equiv_pos_as_xyz
  1  'x, y, z'
loop_
 _atom_site_type_symbol
 _atom_site_label
 _atom_site_symmetry_multiplicity
 _atom_site_fract_x
 _atom_site_fract_y
 _atom_site_fract_z
 _atom_site_occupancy
  Ba  Ba0  1  0.16564515  0.87512730  0.16330664  1
  Ba  Ba1  1  0.66696170  0.87418806  0.33716446  1
  Ba  Ba2  1  0.33010112  0.87577741  0.33155332  1
  Ba  Ba3  1  0.83362611  0.12397670  0.83506559  1
  Ba  Ba4  1  0.66464866  0.87251407  0.00303800  1
  Ba  Ba5  1  0.49876488  0.12484706  0.83412012  1
  Ba  Ba6  1  -0.00184346  0.37501778  -0.00200529  1
  Ba  Ba7  1  0.66996876  0.12263403  0.33701487  1
  Ba  Ba8  1  0.49884129  0.37455069  0.16786640  1
  Ba  Ba9  1  0.32951439  0.37460581  0.66580109  1
  Ba  Ba10  1  0.83148103  0.37708804  0.50076625  1
  Ba  Ba11  1  0.83014101  0.37415821  0.83160870  1
  Ba  Ba12  1  0.33808306  0.12611155  0.66706864  1
  Ba  Ba13  1  0.83379499  0.12399724  0.16835441  1
  Ba  Ba14  1  0.00117219  0.62547989  0.33188672  1
  Ba  Ba15  1  0.00279909  0.62650265  0.66458134  1
  Ba  Ba16  1  0.16789862  0.62381288  0.16519698  1
  Sr  Sr17  1  0.33593716  0.62558501  1.00071737  1
  Sr  Sr18  1  0.16501321  0.87499155  0.83314639  1
  Sr  Sr19  1  0.66063191  0.87299736  0.67178776  1
  Sr  Sr20  1  0.33759832  0.12460022  0.99694204  1
  Sr  Sr21  1  0.16142319  0.37706171  0.16378517  1
  La  La22  1  0.00771300  0.62595985  0.99718544  1
  La  La23  1  0.17275314  0.62736690  0.49895410  1
  La  La24  1  -0.00434372  0.87531836  0.66958540  1
  La  La25  1  0.17327835  0.12542443  0.83409361  1
  La  La26  1  0.50558435  0.62796142  0.50172774  1
  La  La27  1  0.16068361  0.37331148  0.49889906  1
  La  La28  1  0.67254718  0.62477443  0.66771922  1
  La  La29  1  0.66945453  0.62187417  1.00088797  1
  Pr  Pr30  1  0.32885016  0.87726877  0.66829321  1
  Pr  Pr31  1  0.67267482  0.12399654  0.66515450  1
  Pr  Pr32  1  0.83562830  0.62645465  0.16708143  1
  Pr  Pr33  1  0.83112942  0.87520853  0.16815235  1
  Pr  Pr34  1  0.16077256  0.37550418  0.82842890  1
  Pr  Pr35  1  -0.00444428  0.37697482  0.32994844  1
  Pr  Pr36  1  0.50990378  0.12123850  0.50770005  1
  Pr  Pr37  1  0.66503168  0.37028559  0.00177108  1
  Pr  Pr38  1  0.49687612  0.87665182  0.16504172  1
  Pr  Pr39  1  0.83797820  0.12071038  0.50308865  1
  Pr  Pr40  1  0.49053828  0.87336706  0.83460876  1
  Pr  Pr41  1  0.67457052  0.62185658  0.33385803  1
  Pr  Pr42  1  0.82557305  0.87624004  0.83118445  1
  Pr  Pr43  1  0.49240866  0.37622820  0.83456417  1
  Pr  Pr44  1  0.49283532  0.87601484  0.49855085  1
  Pr  Pr45  1  -0.00071601  0.87433108  0.33171881  1
  Pr  Pr46  1  0.32177690  0.37728602  0.33474291  1
  Pr  Pr47  1  0.17144983  0.12960650  0.16507338  1
  Pr  Pr48  1  0.16122733  0.87701656  0.49380135  1
  Pr  Pr49  1  0.17148563  0.62316362  0.83666217  1
  Pr  Pr50  1  0.82995771  0.37472068  0.16319078  1
  Pr  Pr51  1  0.50528793  0.12249457  0.16668307  1
  Pr  Pr52  1  0.83141440  0.87038191  0.49965089  1
  Pr  Pr53  1  -0.00585736  0.37556361  0.67193863  1
  Pr  Pr54  1  0.00336704  0.12620354  0.66389994  1
  Pr  Pr55  1  0.84027894  0.62702382  0.83777307  1
  Pr  Pr56  1  0.83889436  0.62848134  0.50288867  1
  Pr  Pr57  1  0.33707921  0.62441721  0.32531731  1
  Pr  Pr58  1  0.66450894  0.36964262  0.33654306  1
  Pr  Pr59  1  0.33682813  0.62503381  0.66501821  1
  Pr  Pr60  1  0.33165524  0.87909898  0.00471928  1
  Pr  Pr61  1  0.32639883  0.37131209  0.00111242  1
  Pr  Pr62  1  -0.00710150  0.87795677  0.00117966  1
  Pr  Pr63  1  0.50255660  0.62519943  0.83694615  1
  Pr  Pr64  1  0.50326529  0.62641678  0.17061007  1
  Pr  Pr65  1  0.66820527  0.12595217  0.99882417  1
  Pr  Pr66  1  0.00334653  0.12734902  0.32875227  1
  Pr  Pr67  1  0.34081836  0.12624744  0.33021457  1
  Pr  Pr68  1  0.65833414  0.37520448  0.67177952  1
  Pr  Pr69  1  0.00900175  0.12581275  0.99670587  1
  Pr  Pr70  1  0.17684975  0.12338325  0.50188806  1
  Pr  Pr71  1  0.49293036  0.37379215  0.49421604  1
  Mn  Mn72  1  0.00048571  0.00098024  0.16559390  1
  Mn  Mn73  1  0.00078972  0.00058867  0.49874755  1
  Mn  Mn74  1  0.00099275  -0.00100655  0.83292773  1
  Mn  Mn75  1  -0.00170843  0.49997675  0.16450860  1
  Mn  Mn76  1  0.00116541  0.49891464  0.49903263  1
  Mn  Mn77  1  0.00053452  0.50129718  0.83072717  1
  Mn  Mn78  1  0.33340525  0.00404339  0.16501708  1
  Mn  Mn79  1  0.33479626  0.00036878  0.49970459  1
  Mn  Mn80  1  0.33141327  -0.00192619  0.83491428  1
  Mn  Mn81  1  0.33450791  0.49768535  0.16494888  1
  Mn  Mn82  1  0.33349835  0.50151046  0.49763834  1
  Mn  Mn83  1  0.33247553  0.50141679  0.83342236  1
  Mn  Mn84  1  0.66648950  -0.00228764  0.16805899  1
  Mn  Mn85  1  0.66888470  -0.00350922  0.50515316  1
  Mn  Mn86  1  0.66401796  -0.00239010  0.83387215  1
  Mn  Mn87  1  0.66654282  0.50093866  0.16758664  1
  Mn  Mn88  1  0.66530949  0.50140374  0.50150621  1
  Mn  Mn89  1  0.66452193  0.50182775  0.83407238  1
  Mn  Mn90  1  0.00002613  0.24916380  0.16484280  1
  Mn  Mn91  1  0.00010277  0.24894495  0.49758819  1
  Mn  Mn92  1  0.00089155  0.24717718  0.83084029  1
  Mn  Mn93  1  -0.00152011  0.75199237  0.16403536  1
  Mn  Mn94  1  0.00258740  0.75157239  0.49979280  1
  Mn  Mn95  1  0.00161560  0.75266813  0.83306745  1
  Mn  Mn96  1  0.33350278  0.24973331  0.16598691  1
  Mn  Mn97  1  0.33451721  0.25134926  0.49644003  1
  Mn  Mn98  1  0.33174230  0.25132692  0.83513968  1
  Mn  Mn99  1  0.33493344  0.74905563  0.16436976  1
  Mn  Mn100  1  0.33373850  0.74868398  0.50003366  1
  Mn  Mn101  1  0.33185358  0.74981995  0.83258154  1
  Mn  Mn102  1  0.66638376  0.25017552  0.16857629  1
  Mn  Mn103  1  0.66708666  0.25106591  0.50376799  1
  Mn  Mn104  1  0.66337618  0.25036349  0.83388409  1
  Mn  Mn105  1  0.66576158  0.74850415  0.17010854  1
  Mn  Mn106  1  0.66755192  0.74934812  0.50379409  1
  Mn  Mn107  1  0.66471138  0.74947299  0.83461642  1
  Mn  Mn108  1  0.16785588  0.24998546  -0.00051797  1
  Mn  Mn109  1  0.16582813  0.24933443  0.33230083  1
  Mn  Mn110  1  0.16507239  0.24854303  0.66415831  1
  Mn  Mn111  1  0.16816484  0.75097289  -0.00406977  1
  Mn  Mn112  1  0.16675996  0.75133063  0.33277117  1
  Mn  Mn113  1  0.16857198  0.75209543  0.66603771  1
  Mn  Mn114  1  0.49950101  0.25153545  0.00032720  1
  Mn  Mn115  1  0.49967850  0.24907863  0.33436192  1
  Mn  Mn116  1  0.50198169  0.25217887  0.66666982  1
  Mn  Mn117  1  0.49865815  0.74735530  0.00155655  1
  Mn  Mn118  1  0.50086262  0.74942244  0.33569350  1
  Mn  Mn119  1  0.49835803  0.74938193  0.66869007  1
  Mn  Mn120  1  0.83252116  0.24959719  0.00104638  1
  Mn  Mn121  1  0.83476999  0.25091398  0.33424235  1
  Mn  Mn122  1  0.83320376  0.24838891  0.66510753  1
  Mn  Mn123  1  0.83425507  0.74927817  0.00110927  1
  Mn  Mn124  1  0.83461369  0.74927994  0.33420798  1
  Mn  Mn125  1  0.83232772  0.75115931  0.66856979  1
  Mn  Mn126  1  0.16740943  -0.00019781  -0.00251398  1
  Mn  Mn127  1  0.16552993  0.00330037  0.33250565  1
  Mn  Mn128  1  0.16665695  -0.00130673  0.66473009  1
  Mn  Mn129  1  0.16829252  0.50011974  -0.00208923  1
  Mn  Mn130  1  0.16549539  0.49796713  0.33275685  1
  Mn  Mn131  1  0.16701388  0.50193266  0.66479774  1
  Mn  Mn132  1  0.49990053  -0.00032688  0.00070036  1
  Mn  Mn133  1  0.50029075  -0.00028000  0.33512279  1
  Mn  Mn134  1  0.50208650  -0.00313256  0.66819719  1
  Mn  Mn135  1  0.49909396  0.50059474  0.00068730  1
  Mn  Mn136  1  0.50042619  0.50048076  0.33530183  1
  Mn  Mn137  1  0.49930063  0.50209661  0.66727982  1
  Mn  Mn138  1  0.83259145  -0.00031904  0.00065707  1
  Mn  Mn139  1  0.83672834  -0.00153142  0.33657900  1
  Mn  Mn140  1  0.83296567  -0.00140500  0.66766303  1
  Mn  Mn141  1  0.83262742  0.50031991  0.00059903  1
  Mn  Mn142  1  0.83288023  0.49956331  0.33143163  1
  Mn  Mn143  1  0.83242152  0.50106823  0.66645153  1
  O  O144  1  0.16083383  0.12432971  0.01958364  1
  O  O145  1  0.15657120  0.12709055  0.36054743  1
  O  O146  1  0.15962859  0.12283361  0.68811123  1
  O  O147  1  0.15941951  0.62529751  0.00624384  1
  O  O148  1  0.17165752  0.62379219  0.35405987  1
  O  O149  1  0.17255107  0.63086833  0.69196007  1
  O  O150  1  0.49907493  0.12631233  0.02177570  1
  O  O151  1  0.49253504  0.12766464  0.36182313  1
  O  O152  1  0.50914127  0.12462187  0.67550425  1
  O  O153  1  0.49553096  0.62355094  0.02625516  1
  O  O154  1  0.49173131  0.62494007  0.35859952  1
  O  O155  1  0.49131145  0.62604693  0.69415997  1
  O  O156  1  0.82285236  0.12457402  0.01169028  1
  O  O157  1  0.84260641  0.12334338  0.35775299  1
  O  O158  1  0.83352357  0.12190566  0.67858150  1
  O  O159  1  0.83198049  0.62495809  0.02409768  1
  O  O160  1  0.82868215  0.62308465  0.35907227  1
  O  O161  1  0.82984531  0.62811518  0.69124542  1
  O  O162  1  0.17216713  0.37071475  0.31260844  1
  O  O163  1  0.15943622  0.37173060  0.64333298  1
  O  O164  1  0.17361172  0.37550417  0.97369717  1
  O  O165  1  0.16171158  0.88011749  0.32087589  1
  O  O166  1  0.17402388  0.87569514  0.63720453  1
  O  O167  1  0.17503105  0.87550406  0.98215955  1
  O  O168  1  0.51368867  0.37540892  0.32437781  1
  O  O169  1  0.50788191  0.38037712  0.63981448  1
  O  O170  1  0.51251765  0.37918777  0.97754493  1
  O  O171  1  0.50114947  0.87131019  0.31064215  1
  O  O172  1  0.49580439  0.87001347  0.64124081  1
  O  O173  1  0.49739256  0.87058838  0.97940152  1
  O  O174  1  0.83490968  0.37781663  0.30917416  1
  O  O175  1  0.83550143  0.37339903  0.65676753  1
  O  O176  1  0.82649995  0.37723172  0.98740431  1
  O  O177  1  0.84086359  0.87361348  0.31342247  1
  O  O178  1  0.83705765  0.87602817  0.64380222  1
  O  O179  1  0.84019745  0.87263651  0.97446741  1
  O  O180  1  -0.00416189  0.37238373  0.18467376  1
  O  O181  1  0.00876581  0.36918957  0.52803775  1
  O  O182  1  0.00597598  0.37379101  0.83945479  1
  O  O183  1  -0.00582575  0.87744826  0.18691766  1
  O  O184  1  0.01037883  0.87768185  0.52582250  1
  O  O185  1  -0.00274179  0.87600923  0.85739523  1
  O  O186  1  0.33095946  0.37105748  0.19172883  1
  O  O187  1  0.33712507  0.37559036  0.51044725  1
  O  O188  1  0.32908771  0.37807865  0.85440289  1
  O  O189  1  0.33877808  0.87715177  0.17586137  1
  O  O190  1  0.33940408  0.87061948  0.52418466  1
  O  O191  1  0.33630847  0.87109933  0.85895642  1
  O  O192  1  0.67124463  0.38007697  0.19249199  1
  O  O193  1  0.66057541  0.37886710  0.52631593  1
  O  O194  1  0.66012177  0.38195663  0.85808580  1
  O  O195  1  0.66426912  0.87078332  0.18065955  1
  O  O196  1  0.67851485  0.87157875  0.52187092  1
  O  O197  1  0.66880640  0.87159491  0.84749085  1
  O  O198  1  0.00315475  0.12337661  0.14199818  1
  O  O199  1  -0.01089505  0.12299445  0.47098447  1
  O  O200  1  0.00704974  0.12105735  0.80848701  1
  O  O201  1  -0.01002660  0.62901718  0.14311947  1
  O  O202  1  -0.00386197  0.62963604  0.48801377  1
  O  O203  1  0.00144329  0.62804823  0.82125550  1
  O  O204  1  0.33041825  0.12762625  0.14490421  1
  O  O205  1  0.33206205  0.12945023  0.47617660  1
  O  O206  1  0.32876584  0.12523915  0.82377332  1
  O  O207  1  0.34335807  0.62357673  0.15160857  1
  O  O208  1  0.33063899  0.62509239  0.47058251  1
  O  O209  1  0.33257997  0.62626840  0.80698580  1
  O  O210  1  0.66065110  0.12380181  0.14544146  1
  O  O211  1  0.65830365  0.12400892  0.49433985  1
  O  O212  1  0.66433405  0.12008736  0.81031750  1
  O  O213  1  0.66685558  0.62442015  0.14503902  1
  O  O214  1  0.66435259  0.62534938  0.47743190  1
  O  O215  1  0.66015470  0.62594571  0.81018363  1
  O  O216  1  0.08986968  0.02504144  0.24335964  1
  O  O217  1  0.08760819  0.02471088  0.57281800  1
  O  O218  1  0.08887240  0.02017672  0.90991004  1
  O  O219  1  0.08410823  0.50288249  0.24907721  1
  O  O220  1  0.09722460  0.51605596  0.57245932  1
  O  O221  1  0.09088340  0.51233913  0.90569680  1
  O  O222  1  0.41774128  0.02336327  0.24501096  1
  O  O223  1  0.42927645  0.01169694  0.57610101  1
  O  O224  1  0.41715223  0.00315809  0.91785598  1
  O  O225  1  0.42481394  0.51792094  0.24761147  1
  O  O226  1  0.42320934  0.52209817  0.57722892  1
  O  O227  1  0.42534935  0.51403083  0.90786425  1
  O  O228  1  0.75643340  0.00229017  0.25076968  1
  O  O229  1  0.75586273  0.01944393  0.58181530  1
  O  O230  1  0.75112659  0.00649355  0.91514219  1
  O  O231  1  0.75455191  0.52463277  0.24438494  1
  O  O232  1  0.75463821  0.52443008  0.57572995  1
  O  O233  1  0.75380171  0.52570761  0.91249426  1
  O  O234  1  0.25339358  0.22512495  0.25648378  1
  O  O235  1  0.24806824  0.23648538  0.57951107  1
  O  O236  1  0.25340596  0.23513607  0.92273951  1
  O  O237  1  0.25837085  0.73487274  0.25462361  1
  O  O238  1  0.25839800  0.72655657  0.58797330  1
  O  O239  1  0.25067038  0.72939874  0.91080088  1
  O  O240  1  0.58088167  0.23294076  0.25074720  1
  O  O241  1  0.59629411  0.23700705  0.59665698  1
  O  O242  1  0.58860898  0.23388491  0.92427357  1
  O  O243  1  0.58629889  0.72212949  0.25892580  1
  O  O244  1  0.58535986  0.72788708  0.59297921  1
  O  O245  1  0.58520864  0.72536066  0.92570834  1
  O  O246  1  0.92813493  0.23681963  0.25662021  1
  O  O247  1  0.92165783  0.22800723  0.58220458  1
  O  O248  1  0.92558017  0.23325166  0.92210336  1
  O  O249  1  0.90849952  0.73718297  0.24252096  1
  O  O250  1  0.91249395  0.74272653  0.57831519  1
  O  O251  1  0.91909884  0.72871610  0.92159734  1
  O  O252  1  0.07859231  0.49490201  0.07705066  1
  O  O253  1  0.07983412  0.47580927  0.41260076  1
  O  O254  1  0.07867742  0.48195597  0.74120336  1
  O  O255  1  0.07386654  0.98583107  0.06936216  1
  O  O256  1  0.07503637  0.98196757  0.41011944  1
  O  O257  1  0.07634507  0.97927160  0.73719144  1
  O  O258  1  0.40941676  0.47856651  0.07093968  1
  O  O259  1  0.40937657  0.47980044  0.40690704  1
  O  O260  1  0.41435016  0.48444442  0.74906766  1
  O  O261  1  0.41628345  0.98220145  0.08167003  1
  O  O262  1  0.41676173  0.98497917  0.41650346  1
  O  O263  1  0.41230636  0.97704803  0.74703118  1
  O  O264  1  0.74385710  0.48170186  0.07932057  1
  O  O265  1  0.73650460  0.48386124  0.40223300  1
  O  O266  1  0.73644956  0.48874348  0.74149039  1
  O  O267  1  0.75117341  0.98436552  0.08520838  1
  O  O268  1  0.75691665  0.98910585  0.42481685  1
  O  O269  1  0.74663038  0.98141815  0.74716804  1
  O  O270  1  0.24588800  0.26709264  0.08748830  1
  O  O271  1  0.24503987  0.26753837  0.41800565  1
  O  O272  1  0.23943311  0.26202256  0.75955970  1
  O  O273  1  0.25345111  0.75932815  0.07562386  1
  O  O274  1  0.24269989  0.76572773  0.42965080  1
  O  O275  1  0.24958360  0.77333388  0.74780998  1
  O  O276  1  0.58632849  0.26246190  0.08146765  1
  O  O277  1  0.57683933  0.26580531  0.42873391  1
  O  O278  1  0.57672797  0.27701171  0.75631389  1
  O  O279  1  0.57284179  0.75915126  0.09791648  1
  O  O280  1  0.57693235  0.76388188  0.42930537  1
  O  O281  1  0.56969984  0.76486951  0.75890506  1
  O  O282  1  0.90880590  0.26384557  0.09049493  1
  O  O283  1  0.92011861  0.27054919  0.41510419  1
  O  O284  1  0.91901967  0.25737131  0.74365313  1
  O  O285  1  0.91482223  0.77526189  0.08269159  1
  O  O286  1  0.92010519  0.77182708  0.41680460  1
  O  O287  1  0.91264244  0.77075350  0.75523856  1
  O  O288  1  0.24721830  0.48182939  0.08139280  1
  O  O289  1  0.24136006  0.48004582  0.42256367  1
  O  O290  1  0.23789093  0.48704722  0.75853676  1
  O  O291  1  0.25170616  0.99115596  0.08000626  1
  O  O292  1  0.23987100  0.99092331  0.42379461  1
  O  O293  1  0.24789155  0.98245180  0.75047531  1
  O  O294  1  0.58482559  0.48996088  0.08334534  1
  O  O295  1  0.57267515  0.48803740  0.42939448  1
  O  O296  1  0.57542769  0.48135679  0.75621867  1
  O  O297  1  0.57304782  0.98681786  0.09223797  1
  O  O298  1  0.57805859  0.98440537  0.43242351  1
  O  O299  1  0.57354279  0.97587848  0.75918531  1
  O  O300  1  0.90539662  0.48708555  0.09011466  1
  O  O301  1  0.91747369  0.48411433  0.41080878  1
  O  O302  1  0.91566606  0.49166576  0.75088578  1
  O  O303  1  0.91072541  0.97833674  0.08897438  1
  O  O304  1  0.91497598  0.97108195  0.42566869  1
  O  O305  1  0.91082817  0.97723405  0.75508706  1
  O  O306  1  0.08127346  0.25774515  0.07940199  1
  O  O307  1  0.07888252  0.27262776  0.40989982  1
  O  O308  1  0.07805850  0.26697243  0.74021642  1
  O  O309  1  0.07428545  0.76284082  0.07080290  1
  O  O310  1  0.08111809  0.77044656  0.41516709  1
  O  O311  1  0.08028136  0.77339592  0.74018919  1
  O  O312  1  0.41053635  0.26784669  0.07534460  1
  O  O313  1  0.40889379  0.27231736  0.40476194  1
  O  O314  1  0.41731440  0.26617843  0.74937729  1
  O  O315  1  0.41440114  0.77205046  0.07915250  1
  O  O316  1  0.41778796  0.76550928  0.42004917  1
  O  O317  1  0.40950353  0.77386546  0.74465368  1
  O  O318  1  0.74590765  0.27013143  0.08477074  1
  O  O319  1  0.74075525  0.26549973  0.41405436  1
  O  O320  1  0.73687201  0.26084727  0.74043178  1
  O  O321  1  0.75626953  0.76062442  0.09121905  1
  O  O322  1  0.75851762  0.75957808  0.42363664  1
  O  O323  1  0.75073551  0.76614695  0.75067109  1
  O  O324  1  0.25244565  0.02606852  0.25306588  1
  O  O325  1  0.25227507  0.01487802  0.58317162  1
  O  O326  1  0.24923339  0.01560028  0.91638007  1
  O  O327  1  0.25973716  0.51165045  0.26122945  1
  O  O328  1  0.25728365  0.52290452  0.58813735  1
  O  O329  1  0.25491337  0.52050890  0.91730926  1
  O  O330  1  0.57859942  0.01439731  0.25080445  1
  O  O331  1  0.59317643  0.01018610  0.59493522  1
  O  O332  1  0.58946185  0.01637605  0.92734829  1
  O  O333  1  0.58866359  0.52338314  0.25876223  1
  O  O334  1  0.58872981  0.52657760  0.59462961  1
  O  O335  1  0.58624520  0.52684208  0.92061382  1
  O  O336  1  0.92905812  0.01252192  0.26384623  1
  O  O337  1  0.92422506  0.01850547  0.58723098  1
  O  O338  1  0.92706384  0.01456600  0.93006727  1
  O  O339  1  0.91311970  0.51375072  0.24680420  1
  O  O340  1  0.91765046  0.51181377  0.57972703  1
  O  O341  1  0.91947868  0.52118584  0.91938900  1
  O  O342  1  0.08916352  0.22881590  0.24489825  1
  O  O343  1  0.08506908  0.22111286  0.57391299  1
  O  O344  1  0.09030650  0.23118504  0.90888204  1
  O  O345  1  0.07946319  0.74514310  0.24701576  1
  O  O346  1  0.09563601  0.73747167  0.57373200  1
  O  O347  1  0.08839386  0.73551878  0.90845454  1
  O  O348  1  0.41937743  0.22652979  0.24547719  1
  O  O349  1  0.43093866  0.23948779  0.56908052  1
  O  O350  1  0.41922067  0.25261009  0.91552711  1
  O  O351  1  0.42352478  0.73071544  0.24690447  1
  O  O352  1  0.41968498  0.72544953  0.58075454  1
  O  O353  1  0.42281102  0.73146713  0.90701256  1
  O  O354  1  0.75071173  0.24557332  0.25042402  1
  O  O355  1  0.75680725  0.22813322  0.57743829  1
  O  O356  1  0.74454006  0.24026184  0.92120999  1
  O  O357  1  0.74852842  0.72850905  0.25361278  1
  O  O358  1  0.75201553  0.72670074  0.58392944  1
  O  O359  1  0.75519231  0.72787894  0.91704207  1
