# generated using pymatgen
data_Ba17Sr5La8Pr42Mn72O216
_symmetry_space_group_name_H-M   'P 1'
_cell_length_a   16.67238989
_cell_length_b   15.70234662
_cell_length_c   16.81730087
_cell_angle_alpha   89.99183716
_cell_angle_beta   89.99035962
_cell_angle_gamma   89.99476648
_symmetry_Int_Tables_number   1
_chemical_formula_structural   Ba17Sr5La8Pr42Mn72O216
_chemical_formula_sum   'Ba17 Sr5 La8 Pr42 Mn72 O216'
_cell_volume   4402.69600570
_cell_formula_units_Z   1
loop_
 _symmetry_equiv_pos_site_id
 _symmetry_equiv_pos_as_xyz
  1  'x, y, z'
loop_
 _atom_site_type_symbol
 _atom_site_label
 _atom_site_symmetry_multiplicity
 _atom_site_fract_x
 _atom_site_fract_y
 _atom_site_fract_z
 _atom_site_occupancy
  Ba  Ba0  1  0.83066705  0.62610120  0.16765861  1
  Ba  Ba1  1  0.00292967  0.37815957  0.33584672  1
  Ba  Ba2  1  0.66819690  0.12489096  0.99928855  1
  Ba  Ba3  1  0.49722815  0.87360909  0.83168709  1
  Ba  Ba4  1  0.33247186  0.12393466  0.33314998  1
  Ba  Ba5  1  -0.00313457  0.87446948  0.00230547  1
  Ba  Ba6  1  0.00262744  0.37645109  0.66796589  1
  Ba  Ba7  1  0.83535567  0.12305789  0.50105369  1
  Ba  Ba8  1  0.49597931  0.62399988  0.16624084  1
  Ba  Ba9  1  0.66841441  0.37343013  0.66483695  1
  Ba  Ba10  1  0.33182983  0.12709474  0.99714656  1
  Ba  Ba11  1  0.83440914  0.37504337  0.83118749  1
  Ba  Ba12  1  0.50197919  0.37492547  0.16864666  1
  Ba  Ba13  1  0.00373525  0.12510894  0.66477480  1
  Ba  Ba14  1  0.49925407  0.62431624  0.83361773  1
  Ba  Ba15  1  0.33056198  0.87514409  -0.00321712  1
  Ba  Ba16  1  0.16662976  0.12660197  0.83207883  1
  Sr  Sr17  1  0.67049501  0.37822385  0.33601009  1
  Sr  Sr18  1  0.67094992  0.12518837  0.66517587  1
  Sr  Sr19  1  0.00035399  0.87648773  0.67197417  1
  Sr  Sr20  1  0.16166492  0.62511117  0.83607127  1
  Sr  Sr21  1  0.17093946  0.12664453  0.50514195  1
  La  La22  1  0.16460680  0.87841578  0.16335469  1
  La  La23  1  0.66603311  0.87666193  0.66881943  1
  La  La24  1  0.49859862  0.62120855  0.50091432  1
  La  La25  1  0.00277172  0.12702471  0.33636528  1
  La  La26  1  0.82548747  0.87383516  0.16247447  1
  La  La27  1  0.33096464  0.87435788  0.33025236  1
  La  La28  1  0.33239785  0.62833979  0.66580443  1
  La  La29  1  0.66525151  0.62446534  0.66833786  1
  Pr  Pr30  1  0.84125055  0.36827930  0.49904641  1
  Pr  Pr31  1  0.49888863  0.12204510  0.16813750  1
  Pr  Pr32  1  0.66283587  0.62198967  0.99762472  1
  Pr  Pr33  1  0.17025344  0.37568233  0.83253667  1
  Pr  Pr34  1  0.50856554  0.37178839  0.49060320  1
  Pr  Pr35  1  0.49301357  0.87757893  0.15868160  1
  Pr  Pr36  1  0.50755361  0.12557908  0.50031827  1
  Pr  Pr37  1  -0.01034804  0.62652971  0.99921984  1
  Pr  Pr38  1  0.33730560  0.37549972  -0.00126291  1
  Pr  Pr39  1  0.34121140  0.37494801  0.33658843  1
  Pr  Pr40  1  -0.00125862  0.12462303  0.99592080  1
  Pr  Pr41  1  0.65769573  0.87349733  0.00094492  1
  Pr  Pr42  1  0.16168400  0.62462937  0.50671587  1
  Pr  Pr43  1  -0.00173337  0.86985558  0.33712589  1
  Pr  Pr44  1  0.33787812  0.12202938  0.65838823  1
  Pr  Pr45  1  0.32837109  0.87412257  0.67120655  1
  Pr  Pr46  1  0.49748357  0.87501292  0.49940780  1
  Pr  Pr47  1  0.00711594  0.37711804  0.00449785  1
  Pr  Pr48  1  0.16383045  0.12209185  0.16774667  1
  Pr  Pr49  1  0.32772984  0.62223730  0.99574362  1
  Pr  Pr50  1  0.17441480  0.37129790  0.49706947  1
  Pr  Pr51  1  0.17305486  0.37374410  0.16753348  1
  Pr  Pr52  1  -0.00792488  0.62375307  0.33315264  1
  Pr  Pr53  1  0.83906557  0.12876190  0.82898941  1
  Pr  Pr54  1  0.16593259  0.87709468  0.83206052  1
  Pr  Pr55  1  0.50130466  0.37115993  0.83111549  1
  Pr  Pr56  1  0.66505882  0.62325802  0.32976707  1
  Pr  Pr57  1  0.67011013  0.37628430  0.00161163  1
  Pr  Pr58  1  0.16526223  0.87743514  0.50158079  1
  Pr  Pr59  1  0.66142671  0.86989218  0.33393746  1
  Pr  Pr60  1  0.50373470  0.12618364  0.83214958  1
  Pr  Pr61  1  0.82999339  0.62319450  0.50112726  1
  Pr  Pr62  1  0.83452705  0.12222276  0.17113380  1
  Pr  Pr63  1  0.83654742  0.87884174  0.50130134  1
  Pr  Pr64  1  0.83068081  0.62211583  0.83623571  1
  Pr  Pr65  1  0.83627452  0.37538914  0.16277599  1
  Pr  Pr66  1  0.33514283  0.37610241  0.66468281  1
  Pr  Pr67  1  -0.00713931  0.62616511  0.67046562  1
  Pr  Pr68  1  0.16103420  0.62960837  0.16975155  1
  Pr  Pr69  1  0.32923610  0.62427239  0.32784720  1
  Pr  Pr70  1  0.66836306  0.12694677  0.32816483  1
  Pr  Pr71  1  0.83130269  0.87806128  0.83117052  1
  Mn  Mn72  1  -0.00222537  0.00080723  0.16961706  1
  Mn  Mn73  1  0.00304488  -0.00376300  0.50104611  1
  Mn  Mn74  1  -0.00068533  -0.00083076  0.83504173  1
  Mn  Mn75  1  0.00144871  0.50057820  0.16881025  1
  Mn  Mn76  1  0.00171434  0.50393586  0.50209486  1
  Mn  Mn77  1  0.00132897  0.50212434  0.83633808  1
  Mn  Mn78  1  0.33150136  0.00164012  0.16580082  1
  Mn  Mn79  1  0.33512397  -0.00319916  0.49908760  1
  Mn  Mn80  1  0.33252764  0.00084184  0.82921246  1
  Mn  Mn81  1  0.33001591  0.49952219  0.16576840  1
  Mn  Mn82  1  0.33413346  0.50229561  0.49820081  1
  Mn  Mn83  1  0.33248884  0.49916309  0.83193884  1
  Mn  Mn84  1  0.66569286  -0.00051236  0.16659734  1
  Mn  Mn85  1  0.66638109  -0.00389069  0.49858108  1
  Mn  Mn86  1  0.66754882  0.00054087  0.83210768  1
  Mn  Mn87  1  0.66726108  0.49880656  0.16805618  1
  Mn  Mn88  1  0.66895077  0.50175505  0.49875138  1
  Mn  Mn89  1  0.66557805  0.49849522  0.83300716  1
  Mn  Mn90  1  0.00007569  0.25071792  0.16626933  1
  Mn  Mn91  1  0.00478020  0.25054692  0.49978429  1
  Mn  Mn92  1  0.00106874  0.25099914  0.83580280  1
  Mn  Mn93  1  -0.00170503  0.75012397  0.16999074  1
  Mn  Mn94  1  0.00017183  0.74958783  0.50336120  1
  Mn  Mn95  1  -0.00098993  0.75032976  0.83480683  1
  Mn  Mn96  1  0.33254712  0.25084116  0.16590822  1
  Mn  Mn97  1  0.33728442  0.24948256  0.49965935  1
  Mn  Mn98  1  0.33446506  0.25199706  0.82915084  1
  Mn  Mn99  1  0.32929830  0.74889486  0.16553509  1
  Mn  Mn100  1  0.33305039  0.75054561  0.49719045  1
  Mn  Mn101  1  0.32964378  0.74731702  0.83239640  1
  Mn  Mn102  1  0.66891191  0.25084373  0.16618616  1
  Mn  Mn103  1  0.66990705  0.24966356  0.49768316  1
  Mn  Mn104  1  0.66730096  0.24749974  0.83263842  1
  Mn  Mn105  1  0.66240929  0.74985526  0.16770339  1
  Mn  Mn106  1  0.66674171  0.75046418  0.50029780  1
  Mn  Mn107  1  0.66789204  0.75097558  0.83370066  1
  Mn  Mn108  1  0.16595635  0.25313667  0.00108000  1
  Mn  Mn109  1  0.16758280  0.24918054  0.33319626  1
  Mn  Mn110  1  0.17136501  0.25301249  0.66560400  1
  Mn  Mn111  1  0.16374671  0.74777836  0.00113554  1
  Mn  Mn112  1  0.16582902  0.74962582  0.33656068  1
  Mn  Mn113  1  0.16539316  0.74748978  0.66898849  1
  Mn  Mn114  1  0.50102880  0.25080252  -0.00132804  1
  Mn  Mn115  1  0.50260334  0.24731267  0.33205318  1
  Mn  Mn116  1  0.50086383  0.25061255  0.66364498  1
  Mn  Mn117  1  0.49764979  0.74875081  0.00101699  1
  Mn  Mn118  1  0.49736290  0.75111875  0.33285624  1
  Mn  Mn119  1  0.49985297  0.74731761  0.66297318  1
  Mn  Mn120  1  0.83483429  0.24962997  0.00057310  1
  Mn  Mn121  1  0.83361722  0.24985201  0.33166978  1
  Mn  Mn122  1  0.83477568  0.24961734  0.66531429  1
  Mn  Mn123  1  0.82856919  0.75072902  -0.00119655  1
  Mn  Mn124  1  0.83175554  0.75313313  0.33546682  1
  Mn  Mn125  1  0.83323023  0.75051016  0.66778375  1
  Mn  Mn126  1  0.16413613  0.00012126  -0.00014347  1
  Mn  Mn127  1  0.16446362  -0.00150220  0.33417198  1
  Mn  Mn128  1  0.16876389  -0.00093383  0.66541580  1
  Mn  Mn129  1  0.16531925  0.50039270  0.00243080  1
  Mn  Mn130  1  0.16938834  0.50248249  0.33570957  1
  Mn  Mn131  1  0.16809829  0.50211775  0.66830554  1
  Mn  Mn132  1  0.49887753  0.00240127  -0.00155118  1
  Mn  Mn133  1  0.50118359  -0.00310386  0.33193802  1
  Mn  Mn134  1  0.50134794  0.00019798  0.66352290  1
  Mn  Mn135  1  0.49969298  0.49924505  -0.00071508  1
  Mn  Mn136  1  0.50008660  0.50178874  0.33504944  1
  Mn  Mn137  1  0.49949752  0.49880617  0.66448005  1
  Mn  Mn138  1  0.83079602  -0.00004508  -0.00041879  1
  Mn  Mn139  1  0.83339535  -0.00252501  0.33247153  1
  Mn  Mn140  1  0.83392134  -0.00261702  0.66579354  1
  Mn  Mn141  1  0.83316912  0.49909557  -0.00000455  1
  Mn  Mn142  1  0.83252598  0.49949676  0.33505553  1
  Mn  Mn143  1  0.83340800  0.50334121  0.66694897  1
  O  O144  1  0.15957345  0.13061046  0.02331184  1
  O  O145  1  0.16089780  0.11912341  0.35452603  1
  O  O146  1  0.17885190  0.12708810  0.67329788  1
  O  O147  1  0.17559612  0.62050567  0.02750398  1
  O  O148  1  0.17904945  0.62806400  0.36477287  1
  O  O149  1  0.17764440  0.62432074  0.68654597  1
  O  O150  1  0.50048732  0.12840390  0.02289120  1
  O  O151  1  0.50447313  0.11818027  0.35666112  1
  O  O152  1  0.49284090  0.12625686  0.68814641  1
  O  O153  1  0.50655157  0.62276537  0.01016375  1
  O  O154  1  0.48998357  0.62865051  0.35606938  1
  O  O155  1  0.50074646  0.62250638  0.67749546  1
  O  O156  1  0.84078503  0.12747702  0.02792239  1
  O  O157  1  0.82314145  0.12002421  0.34547118  1
  O  O158  1  0.83075270  0.11854036  0.68165717  1
  O  O159  1  0.83231728  0.62556773  0.01281519  1
  O  O160  1  0.82650225  0.63117398  0.35676690  1
  O  O161  1  0.83199467  0.62985415  0.69146944  1
  O  O162  1  0.17266676  0.38001593  0.31158040  1
  O  O163  1  0.17361056  0.38102852  0.64112371  1
  O  O164  1  0.15596634  0.38016937  0.97628379  1
  O  O165  1  0.16150349  0.87220841  0.30663322  1
  O  O166  1  0.17129557  0.86952144  0.64515884  1
  O  O167  1  0.16239621  0.86938596  0.97876598  1
  O  O168  1  0.50031365  0.37685128  0.32779700  1
  O  O169  1  0.49399915  0.37596579  0.63446732  1
  O  O170  1  0.49589629  0.37496750  0.97657608  1
  O  O171  1  0.50713713  0.87396893  0.30359549  1
  O  O172  1  0.50186297  0.87271972  0.64271309  1
  O  O173  1  0.50313670  0.87599246  0.99216865  1
  O  O174  1  0.83429470  0.37325914  0.30887787  1
  O  O175  1  0.83451918  0.38300763  0.64426864  1
  O  O176  1  0.82830158  0.37482480  0.98680616  1
  O  O177  1  0.84265824  0.87548208  0.30675207  1
  O  O178  1  0.83223908  0.87038977  0.64468551  1
  O  O179  1  0.82382881  0.87222399  0.97496640  1
  O  O180  1  -0.00301152  0.37626008  0.18118081  1
  O  O181  1  -0.00644594  0.38379960  0.50941993  1
  O  O182  1  0.00553706  0.37834004  0.85871741  1
  O  O183  1  0.00367165  0.87622533  0.19390596  1
  O  O184  1  0.00080037  0.86930300  0.52206679  1
  O  O185  1  0.00069221  0.87389002  0.84652915  1
  O  O186  1  0.32512747  0.37577062  0.19304110  1
  O  O187  1  0.33323828  0.37771847  0.51992828  1
  O  O188  1  0.33738012  0.37658093  0.85516993  1
  O  O189  1  0.33307501  0.87461499  0.18451927  1
  O  O190  1  0.33706862  0.87111590  0.52676855  1
  O  O191  1  0.32867430  0.87057567  0.83947612  1
  O  O192  1  0.67554221  0.37381844  0.18643249  1
  O  O193  1  0.65581425  0.37839907  0.50751876  1
  O  O194  1  0.66303765  0.37231709  0.85461769  1
  O  O195  1  0.66257368  0.87499701  0.18979156  1
  O  O196  1  0.65566671  0.87131519  0.52636215  1
  O  O197  1  0.67590100  0.87486310  0.85670733  1
  O  O198  1  -0.00078278  0.12792479  0.14038520  1
  O  O199  1  0.00733668  0.11806610  0.48068234  1
  O  O200  1  -0.00567159  0.12291777  0.82455425  1
  O  O201  1  0.00589730  0.62279788  0.14430624  1
  O  O202  1  0.00834826  0.62840928  0.47522856  1
  O  O203  1  -0.00329321  0.62754742  0.81457571  1
  O  O204  1  0.33254528  0.12701139  0.15594603  1
  O  O205  1  0.33452157  0.12241955  0.48898186  1
  O  O206  1  0.33622287  0.13026993  0.80387902  1
  O  O207  1  0.32353308  0.62325216  0.14216372  1
  O  O208  1  0.33428662  0.62867446  0.46922379  1
  O  O209  1  0.32738880  0.62170034  0.81020007  1
  O  O210  1  0.67259354  0.12361676  0.15505789  1
  O  O211  1  0.66397845  0.11787863  0.47249593  1
  O  O212  1  0.65695721  0.12297731  0.81467351  1
  O  O213  1  0.66556295  0.62644669  0.14390273  1
  O  O214  1  0.67824833  0.62969367  0.47183050  1
  O  O215  1  0.67070917  0.62763781  0.81391140  1
  O  O216  1  0.08206467  0.02327555  0.24901084  1
  O  O217  1  0.09658187  0.00411741  0.57552303  1
  O  O218  1  0.07957964  0.01384741  0.92226291  1
  O  O219  1  0.08186456  0.52700797  0.26282012  1
  O  O220  1  0.07751023  0.52653631  0.59321555  1
  O  O221  1  0.07316654  0.52170331  0.93572021  1
  O  O222  1  0.42587933  0.01054623  0.24359424  1
  O  O223  1  0.42756789  0.01609851  0.57204979  1
  O  O224  1  0.42081150  0.01753208  0.90318912  1
  O  O225  1  0.40519652  0.51023198  0.26221259  1
  O  O226  1  0.40835194  0.52380982  0.58447864  1
  O  O227  1  0.40656215  0.51381933  0.92229476  1
  O  O228  1  0.75525132  0.00999084  0.24198218  1
  O  O229  1  0.75042938  -0.00058968  0.57851150  1
  O  O230  1  0.75932553  0.01827498  0.90202755  1
  O  O231  1  0.74278173  0.51604442  0.26045952  1
  O  O232  1  0.74819790  0.52552995  0.58480145  1
  O  O233  1  0.74606384  0.51792089  0.92042798  1
  O  O234  1  0.23856826  0.23496867  0.24230407  1
  O  O235  1  0.26168640  0.24202890  0.58745669  1
  O  O236  1  0.24761441  0.25126863  0.91514903  1
  O  O237  1  0.24568010  0.73023814  0.25056905  1
  O  O238  1  0.25039110  0.72981062  0.57949094  1
  O  O239  1  0.24634624  0.72917784  0.91968327  1
  O  O240  1  0.58319223  0.22630866  0.24672968  1
  O  O241  1  0.58325015  0.23102495  0.57892401  1
  O  O242  1  0.57978176  0.23732509  0.91120309  1
  O  O243  1  0.58581259  0.73097476  0.25812987  1
  O  O244  1  0.58473190  0.72425496  0.57858030  1
  O  O245  1  0.59084968  0.74085426  0.92485601  1
  O  O246  1  0.91287254  0.22834270  0.24470227  1
  O  O247  1  0.91899173  0.24684350  0.57910909  1
  O  O248  1  0.91545463  0.22999808  0.91814607  1
  O  O249  1  0.92131841  0.73419587  0.25908294  1
  O  O250  1  0.91415349  0.72495052  0.58293698  1
  O  O251  1  0.91264651  0.73166725  0.91510082  1
  O  O252  1  0.09315846  0.48023768  0.09270433  1
  O  O253  1  0.10130180  0.48911098  0.43201428  1
  O  O254  1  0.09221078  0.48944613  0.76579741  1
  O  O255  1  0.08171493  0.98825862  0.09075487  1
  O  O256  1  0.08009767  0.97144348  0.41256179  1
  O  O257  1  0.08519424  0.98402703  0.75091244  1
  O  O258  1  0.41317623  0.48677555  0.08089467  1
  O  O259  1  0.42478881  0.48144133  0.42676706  1
  O  O260  1  0.41848984  0.47755254  0.74917812  1
  O  O261  1  0.41723908  0.99099151  0.08525795  1
  O  O262  1  0.41455180  0.97258473  0.41010524  1
  O  O263  1  0.40703769  0.98692807  0.73336358  1
  O  O264  1  0.75532059  0.48032013  0.08645301  1
  O  O265  1  0.75934656  0.48080944  0.42673449  1
  O  O266  1  0.75025504  0.49726672  0.75114263  1
  O  O267  1  0.74225542  0.97678261  0.07678460  1
  O  O268  1  0.74664500  0.97029112  0.41236405  1
  O  O269  1  0.74713218  0.97788520  0.74557681  1
  O  O270  1  0.25005025  0.27551508  0.07924657  1
  O  O271  1  0.25682598  0.27107316  0.41618120  1
  O  O272  1  0.25223330  0.27824478  0.74869751  1
  O  O273  1  0.24291430  0.76552983  0.08938280  1
  O  O274  1  0.25097584  0.77865551  0.41507455  1
  O  O275  1  0.24694885  0.76881502  0.74913613  1
  O  O276  1  0.59231069  0.26842740  0.07762661  1
  O  O277  1  0.58506286  0.25643544  0.41429925  1
  O  O278  1  0.57483957  0.26392716  0.75256630  1
  O  O279  1  0.57959338  0.77066464  0.08941781  1
  O  O280  1  0.58237346  0.76803537  0.41823168  1
  O  O281  1  0.59191279  0.76218687  0.74513526  1
  O  O282  1  0.92129573  0.27344166  0.08022833  1
  O  O283  1  0.91873613  0.25654885  0.41292166  1
  O  O284  1  0.91759778  0.25408444  0.75195992  1
  O  O285  1  0.90610266  0.76450747  0.08702299  1
  O  O286  1  0.91591272  0.76849472  0.41980444  1
  O  O287  1  0.91530125  0.76607652  0.74994493  1
  O  O288  1  0.25174555  0.47269762  0.07629399  1
  O  O289  1  0.26281935  0.47966535  0.40643288  1
  O  O290  1  0.25570733  0.47597793  0.74571532  1
  O  O291  1  0.24076502  0.99073631  0.08810290  1
  O  O292  1  0.24734501  0.97492021  0.42025798  1
  O  O293  1  0.24574019  0.97851219  0.75075773  1
  O  O294  1  0.59254886  0.48459727  0.07643454  1
  O  O295  1  0.58600267  0.49950210  0.41643435  1
  O  O296  1  0.58133251  0.48399746  0.75432747  1
  O  O297  1  0.57879089  0.98496098  0.09194438  1
  O  O298  1  0.57960889  0.97228805  0.41779501  1
  O  O299  1  0.58400083  0.98562917  0.74514815  1
  O  O300  1  0.92117843  0.48407797  0.07619861  1
  O  O301  1  0.91722335  0.49897644  0.41868273  1
  O  O302  1  0.92008770  0.49927591  0.74630233  1
  O  O303  1  0.90483942  0.98453013  0.09891645  1
  O  O304  1  0.91629517  0.97656600  0.41776240  1
  O  O305  1  0.90857730  0.98606564  0.75934493  1
  O  O306  1  0.08833004  0.27396659  0.09028728  1
  O  O307  1  0.09279050  0.26580466  0.42085014  1
  O  O308  1  0.09147803  0.26645600  0.75865576  1
  O  O309  1  0.08629971  0.76153682  0.09392718  1
  O  O310  1  0.08697352  0.77184265  0.42200479  1
  O  O311  1  0.08633672  0.76365180  0.75652283  1
  O  O312  1  0.41320970  0.26741291  0.07616414  1
  O  O313  1  0.42043670  0.26718617  0.41863325  1
  O  O314  1  0.41527333  0.27591454  0.74227880  1
  O  O315  1  0.41608857  0.76079456  0.08869036  1
  O  O316  1  0.41660093  0.77826193  0.41499919  1
  O  O317  1  0.40842550  0.75706391  0.73774778  1
  O  O318  1  0.75578955  0.26953937  0.08746198  1
  O  O319  1  0.75541055  0.26992665  0.41719096  1
  O  O320  1  0.75024937  0.25015824  0.75101929  1
  O  O321  1  0.74116379  0.77106123  0.08019009  1
  O  O322  1  0.75010461  0.78069041  0.42044800  1
  O  O323  1  0.75278655  0.77254070  0.75150207  1
  O  O324  1  0.24481114  0.00804002  0.24865616  1
  O  O325  1  0.26303495  0.00680364  0.59141041  1
  O  O326  1  0.24803747  0.00490585  0.91279055  1
  O  O327  1  0.24150340  0.52419802  0.24445846  1
  O  O328  1  0.24687609  0.52073584  0.57158885  1
  O  O329  1  0.24267292  0.51283285  0.91685283  1
  O  O330  1  0.58852919  0.02163003  0.25474702  1
  O  O331  1  0.58453933  0.01990238  0.58091283  1
  O  O332  1  0.58443656  0.00897042  0.91574812  1
  O  O333  1  0.58189181  0.51621669  0.25484688  1
  O  O334  1  0.58412786  0.52124082  0.57899417  1
  O  O335  1  0.58706579  0.50894368  0.91963177  1
  O  O336  1  0.92159167  0.02547191  0.25590844  1
  O  O337  1  0.92051415  0.00134983  0.58430835  1
  O  O338  1  0.91719833  0.01728596  0.92437593  1
  O  O339  1  0.91618794  0.51668550  0.25375434  1
  O  O340  1  0.91393665  0.52820158  0.58189661  1
  O  O341  1  0.91272389  0.52118850  0.91401712  1
  O  O342  1  0.07789879  0.22810833  0.25085768  1
  O  O343  1  0.09396610  0.24733445  0.58013190  1
  O  O344  1  0.07426133  0.23896371  0.92982398  1
  O  O345  1  0.08209908  0.72410233  0.26223083  1
  O  O346  1  0.08186570  0.72595257  0.58973874  1
  O  O347  1  0.07680062  0.72659142  0.92719161  1
  O  O348  1  0.42179543  0.23674498  0.24750119  1
  O  O349  1  0.42208935  0.22721901  0.57919869  1
  O  O350  1  0.42269181  0.23642556  0.90271088  1
  O  O351  1  0.40483804  0.73830267  0.25580172  1
  O  O352  1  0.41670052  0.72799300  0.57407386  1
  O  O353  1  0.40846731  0.73306132  0.91968479  1
  O  O354  1  0.74948548  0.23023539  0.25100331  1
  O  O355  1  0.75176300  0.24585677  0.57871573  1
  O  O356  1  0.75492168  0.23393407  0.91454829  1
  O  O357  1  0.74345745  0.74237737  0.25578909  1
  O  O358  1  0.74845314  0.73015082  0.58541656  1
  O  O359  1  0.74928408  0.72567500  0.91565707  1
