# generated using pymatgen
data_Ba17Sr5La8Pr42Mn72O216
_symmetry_space_group_name_H-M   'P 1'
_cell_length_a   16.67688169
_cell_length_b   15.70289188
_cell_length_c   16.82537235
_cell_angle_alpha   89.99969505
_cell_angle_beta   89.99846946
_cell_angle_gamma   89.97166070
_symmetry_Int_Tables_number   1
_chemical_formula_structural   Ba17Sr5La8Pr42Mn72O216
_chemical_formula_sum   'Ba17 Sr5 La8 Pr42 Mn72 O216'
_cell_volume   4406.14838666
_cell_formula_units_Z   1
loop_
 _symmetry_equiv_pos_site_id
 _symmetry_equiv_pos_as_xyz
  1  'x, y, z'
loop_
 _atom_site_type_symbol
 _atom_site_label
 _atom_site_symmetry_multiplicity
 _atom_site_fract_x
 _atom_site_fract_y
 _atom_site_fract_z
 _atom_site_occupancy
  Ba  Ba0  1  0.49868435  0.87679882  0.16688345  1
  Ba  Ba1  1  0.83292429  0.87474539  0.49869985  1
  Ba  Ba2  1  0.33213944  0.37455006  -0.00177225  1
  Ba  Ba3  1  0.49714687  0.37372418  0.16523807  1
  Ba  Ba4  1  0.16487970  0.62586692  0.16894136  1
  Ba  Ba5  1  0.33308698  0.62526029  1.00034785  1
  Ba  Ba6  1  -0.00217923  0.87720260  0.00117705  1
  Ba  Ba7  1  0.83131654  0.87465541  0.83180253  1
  Ba  Ba8  1  0.49943002  0.62497625  0.16767332  1
  Ba  Ba9  1  0.66672568  0.12464046  0.99992457  1
  Ba  Ba10  1  0.16668166  0.37504800  0.83369466  1
  Ba  Ba11  1  0.33532609  0.62563654  0.66456587  1
  Ba  Ba12  1  0.00447514  0.12525693  0.66579858  1
  Ba  Ba13  1  0.82965381  0.37529252  0.83324707  1
  Ba  Ba14  1  0.83069387  0.62385925  0.83592160  1
  Ba  Ba15  1  0.00267806  0.12331169  0.99963346  1
  Ba  Ba16  1  0.83191242  0.62417568  0.16884964  1
  Sr  Sr17  1  0.49643008  0.37378702  0.83414700  1
  Sr  Sr18  1  0.50184945  0.12700386  0.16756664  1
  Sr  Sr19  1  0.67065488  0.62658658  0.33182488  1
  Sr  Sr20  1  0.83416828  0.62411467  0.50142217  1
  Sr  Sr21  1  0.33892080  0.12425681  0.33040411  1
  La  La22  1  0.67565654  0.12557228  0.66514564  1
  La  La23  1  -0.00062351  0.62196579  0.66914388  1
  La  La24  1  -0.00135468  0.87124017  0.33475096  1
  La  La25  1  0.65933897  0.37967708  0.33310949  1
  La  La26  1  0.16918815  0.12394051  0.16850589  1
  La  La27  1  0.17350317  0.12441649  0.83653910  1
  La  La28  1  0.49694478  0.87567150  0.83260912  1
  La  La29  1  -0.00440970  0.37537035  0.00254057  1
  Pr  Pr30  1  0.51264059  0.12523802  0.49948556  1
  Pr  Pr31  1  0.32915717  0.37400039  0.67356462  1
  Pr  Pr32  1  0.32998993  0.87524407  0.00286978  1
  Pr  Pr33  1  0.66341306  0.37811618  0.00205642  1
  Pr  Pr34  1  0.84067313  0.12572919  0.16680432  1
  Pr  Pr35  1  0.50407851  0.12668793  0.83584429  1
  Pr  Pr36  1  0.16370315  0.87593697  0.50107372  1
  Pr  Pr37  1  0.65927840  0.86946083  0.33376976  1
  Pr  Pr38  1  0.32779760  0.87631152  0.33299384  1
  Pr  Pr39  1  0.33302477  0.62575046  0.32616926  1
  Pr  Pr40  1  0.51059918  0.62390195  0.50167733  1
  Pr  Pr41  1  0.00453120  0.12527715  0.33338562  1
  Pr  Pr42  1  0.16452532  0.37483346  0.50149772  1
  Pr  Pr43  1  0.16702133  0.62667176  0.50222778  1
  Pr  Pr44  1  0.84473316  0.12529243  0.50193448  1
  Pr  Pr45  1  0.84135191  0.12499310  0.83692791  1
  Pr  Pr46  1  0.49066973  0.37567814  0.49648955  1
  Pr  Pr47  1  -0.00096223  0.62499136  0.99778793  1
  Pr  Pr48  1  0.65797784  0.37852417  0.67104443  1
  Pr  Pr49  1  0.32856758  0.37460680  0.33079173  1
  Pr  Pr50  1  0.17761675  0.12445355  0.50494062  1
  Pr  Pr51  1  0.49514726  0.87373635  0.49336944  1
  Pr  Pr52  1  0.32748757  0.87666420  0.66767542  1
  Pr  Pr53  1  0.67242869  0.62480269  0.66634938  1
  Pr  Pr54  1  -0.00570387  0.62658255  0.33200000  1
  Pr  Pr55  1  0.66717187  0.87237474  0.00198135  1
  Pr  Pr56  1  -0.00399581  0.87228736  0.67311810  1
  Pr  Pr57  1  0.82998988  0.37372537  0.49983848  1
  Pr  Pr58  1  0.50043411  0.62327299  0.83717758  1
  Pr  Pr59  1  0.82587206  0.37398438  0.16326937  1
  Pr  Pr60  1  0.66074156  0.62565381  1.00048095  1
  Pr  Pr61  1  -0.00220580  0.38050820  0.33440083  1
  Pr  Pr62  1  0.67390127  0.12295856  0.32540679  1
  Pr  Pr63  1  0.16765021  0.62519201  0.84084002  1
  Pr  Pr64  1  0.16380224  0.37374743  0.15974906  1
  Pr  Pr65  1  0.66196258  0.87169041  0.66696809  1
  Pr  Pr66  1  -0.00674643  0.37547120  0.67229306  1
  Pr  Pr67  1  0.34165577  0.12520952  0.99991043  1
  Pr  Pr68  1  0.82802437  0.87535803  0.16474092  1
  Pr  Pr69  1  0.16570105  0.87659522  0.16544474  1
  Pr  Pr70  1  0.16354780  0.87356671  0.83336975  1
  Pr  Pr71  1  0.34341227  0.12738217  0.66305836  1
  Mn  Mn72  1  -0.00054638  0.00185917  0.17103022  1
  Mn  Mn73  1  0.00300287  -0.00096027  0.49963825  1
  Mn  Mn74  1  0.00195340  -0.00025626  0.83151285  1
  Mn  Mn75  1  -0.00149112  0.49945706  0.16922273  1
  Mn  Mn76  1  0.00121030  0.49979434  0.50167690  1
  Mn  Mn77  1  0.00046895  0.49903464  0.83391527  1
  Mn  Mn78  1  0.33309460  0.00077482  0.16720870  1
  Mn  Mn79  1  0.33600553  0.00086228  0.49970887  1
  Mn  Mn80  1  0.33463582  -0.00059176  0.83183211  1
  Mn  Mn81  1  0.33063982  0.49962898  0.16790065  1
  Mn  Mn82  1  0.33235935  0.49976106  0.49805030  1
  Mn  Mn83  1  0.33366385  0.49997427  0.83048049  1
  Mn  Mn84  1  0.66743910  0.00097152  0.16655236  1
  Mn  Mn85  1  0.66803571  0.00113643  0.49739204  1
  Mn  Mn86  1  0.66512569  -0.00042162  0.82972375  1
  Mn  Mn87  1  0.66578592  0.50028254  0.16909679  1
  Mn  Mn88  1  0.66761913  0.49879280  0.50187916  1
  Mn  Mn89  1  0.66227494  0.49898480  0.83355968  1
  Mn  Mn90  1  -0.00010124  0.25000701  0.16997465  1
  Mn  Mn91  1  0.00311611  0.25322418  0.49909547  1
  Mn  Mn92  1  0.00181070  0.24995042  0.83308868  1
  Mn  Mn93  1  -0.00147703  0.75096958  0.16891142  1
  Mn  Mn94  1  0.00137064  0.74776777  0.50269041  1
  Mn  Mn95  1  0.00059591  0.74916700  0.83383073  1
  Mn  Mn96  1  0.33176134  0.24708569  0.16787134  1
  Mn  Mn97  1  0.33501107  0.24919337  0.49950625  1
  Mn  Mn98  1  0.33540173  0.24793974  0.83031259  1
  Mn  Mn99  1  0.33182280  0.75197878  0.16803879  1
  Mn  Mn100  1  0.33329451  0.75057850  0.49724243  1
  Mn  Mn101  1  0.33314905  0.75175151  0.83152087  1
  Mn  Mn102  1  0.66696407  0.24881525  0.16712556  1
  Mn  Mn103  1  0.66826330  0.25129000  0.49847150  1
  Mn  Mn104  1  0.66475978  0.25017193  0.83072667  1
  Mn  Mn105  1  0.66628613  0.75073349  0.16839761  1
  Mn  Mn106  1  0.66663192  0.74897989  0.50090147  1
  Mn  Mn107  1  0.66319685  0.75085619  0.83298345  1
  Mn  Mn108  1  0.16724134  0.24784412  0.00058254  1
  Mn  Mn109  1  0.16627525  0.25047377  0.33426023  1
  Mn  Mn110  1  0.16905664  0.24928717  0.66569379  1
  Mn  Mn111  1  0.16511391  0.75147420  0.00087602  1
  Mn  Mn112  1  0.16617257  0.75122197  0.33699879  1
  Mn  Mn113  1  0.16669693  0.74901366  0.66732946  1
  Mn  Mn114  1  0.50083213  0.24905410  -0.00081185  1
  Mn  Mn115  1  0.49977712  0.24996263  0.33415911  1
  Mn  Mn116  1  0.50268468  0.24877992  0.66437952  1
  Mn  Mn117  1  0.49895012  0.75154979  -0.00230078  1
  Mn  Mn118  1  0.49766660  0.75007992  0.33492031  1
  Mn  Mn119  1  0.49995625  0.75073564  0.66436126  1
  Mn  Mn120  1  0.83203376  0.24967523  -0.00055971  1
  Mn  Mn121  1  0.83394933  0.25224261  0.33411721  1
  Mn  Mn122  1  0.83298585  0.25047924  0.66508114  1
  Mn  Mn123  1  0.83176849  0.75003945  0.00219567  1
  Mn  Mn124  1  0.83245668  0.75070034  0.33398208  1
  Mn  Mn125  1  0.83336423  0.74815584  0.66477106  1
  Mn  Mn126  1  0.16970173  0.00031231  0.00034049  1
  Mn  Mn127  1  0.16562594  0.00130506  0.33583215  1
  Mn  Mn128  1  0.16938729  -0.00078939  0.66699657  1
  Mn  Mn129  1  0.16411895  0.49959230  0.00077125  1
  Mn  Mn130  1  0.16616990  0.49773599  0.33548147  1
  Mn  Mn131  1  0.16684987  0.50131434  0.66568802  1
  Mn  Mn132  1  0.50043281  -0.00000962  -0.00236753  1
  Mn  Mn133  1  0.50046150  0.00142508  0.33399451  1
  Mn  Mn134  1  0.50225473  -0.00038352  0.66403260  1
  Mn  Mn135  1  0.49901207  0.49977257  -0.00125682  1
  Mn  Mn136  1  0.49705358  0.49900663  0.33531428  1
  Mn  Mn137  1  0.49983981  0.50092919  0.66567127  1
  Mn  Mn138  1  0.83171587  0.00003571  -0.00040602  1
  Mn  Mn139  1  0.83397884  0.00125259  0.33278156  1
  Mn  Mn140  1  0.83396041  -0.00022771  0.66476832  1
  Mn  Mn141  1  0.83155786  0.49952822  0.00242618  1
  Mn  Mn142  1  0.83238236  0.49759975  0.33506623  1
  Mn  Mn143  1  0.83228098  0.50067506  0.66465261  1
  O  O144  1  0.17430770  0.12186122  0.02212235  1
  O  O145  1  0.15732952  0.12587597  0.36473873  1
  O  O146  1  0.17417210  0.12019192  0.69036920  1
  O  O147  1  0.15860712  0.62617885  0.01064503  1
  O  O148  1  0.17246685  0.62393067  0.36036638  1
  O  O149  1  0.16306797  0.62757937  0.69424834  1
  O  O150  1  0.49416426  0.12236118  0.01465348  1
  O  O151  1  0.50322058  0.12591360  0.35642495  1
  O  O152  1  0.49774182  0.12149218  0.69291928  1
  O  O153  1  0.50490712  0.62724535  0.00854127  1
  O  O154  1  0.48686589  0.62302169  0.35818333  1
  O  O155  1  0.50439249  0.62814807  0.69257360  1
  O  O156  1  0.83310465  0.12561683  0.02167835  1
  O  O157  1  0.82505106  0.12931874  0.36126595  1
  O  O158  1  0.82757790  0.12662523  0.68945212  1
  O  O159  1  0.83466313  0.62385739  0.01273849  1
  O  O160  1  0.83668982  0.62013179  0.35235440  1
  O  O161  1  0.82845168  0.62391947  0.67813558  1
  O  O162  1  0.16636265  0.37168291  0.30477107  1
  O  O163  1  0.17653576  0.37565784  0.64419318  1
  O  O164  1  0.15884967  0.37432316  0.99208311  1
  O  O165  1  0.16512675  0.87912302  0.30949033  1
  O  O166  1  0.16986755  0.87438435  0.64318180  1
  O  O167  1  0.17293839  0.87730229  0.97841506  1
  O  O168  1  0.50325572  0.37437699  0.32349037  1
  O  O169  1  0.50547462  0.37322178  0.63825283  1
  O  O170  1  0.50841032  0.37461887  0.98514104  1
  O  O171  1  0.50878301  0.87768553  0.32567676  1
  O  O172  1  0.50593191  0.87626179  0.63554184  1
  O  O173  1  0.50068312  0.87632496  0.97682637  1
  O  O174  1  0.84235909  0.37214349  0.30676655  1
  O  O175  1  0.83710881  0.37540201  0.64430630  1
  O  O176  1  0.83194136  0.37388692  0.98981906  1
  O  O177  1  0.84250374  0.88067980  0.31030558  1
  O  O178  1  0.83875553  0.87283179  0.65545956  1
  O  O179  1  0.82461972  0.87633841  0.98853270  1
  O  O180  1  0.00706562  0.37319920  0.19264414  1
  O  O181  1  0.00755823  0.37649102  0.52968999  1
  O  O182  1  0.00071835  0.37557344  0.85407107  1
  O  O183  1  0.00264225  0.88035130  0.19315007  1
  O  O184  1  0.00894264  0.86972190  0.52866848  1
  O  O185  1  0.00682559  0.87390031  0.84204684  1
  O  O186  1  0.32268211  0.37131803  0.18605869  1
  O  O187  1  0.33924862  0.36980484  0.52973605  1
  O  O188  1  0.33691506  0.37137263  0.83872120  1
  O  O189  1  0.32560883  0.87819444  0.18897933  1
  O  O190  1  0.34017110  0.87618137  0.52589138  1
  O  O191  1  0.33634577  0.87785062  0.85832887  1
  O  O192  1  0.67152431  0.37141052  0.18766557  1
  O  O193  1  0.67164740  0.37307767  0.52870938  1
  O  O194  1  0.66282179  0.37400961  0.85656937  1
  O  O195  1  0.67230023  0.87796760  0.18945897  1
  O  O196  1  0.65823245  0.87222718  0.52310417  1
  O  O197  1  0.66126659  0.87489804  0.85661392  1
  O  O198  1  -0.00326691  0.12661727  0.15471857  1
  O  O199  1  -0.00059100  0.13156928  0.47696128  1
  O  O200  1  -0.00035763  0.12462168  0.82270675  1
  O  O201  1  -0.00155072  0.62187645  0.14361495  1
  O  O202  1  0.00876253  0.62207528  0.47333491  1
  O  O203  1  0.00952177  0.62430621  0.81501095  1
  O  O204  1  0.32543112  0.12176580  0.14516580  1
  O  O205  1  0.32611065  0.12520632  0.47843803  1
  O  O206  1  0.33481770  0.12079563  0.80519118  1
  O  O207  1  0.33173923  0.62831384  0.16266878  1
  O  O208  1  0.32415350  0.62957243  0.47075663  1
  O  O209  1  0.33172514  0.62833686  0.82119648  1
  O  O210  1  0.66853318  0.12483420  0.15835809  1
  O  O211  1  0.66368272  0.13095695  0.46936789  1
  O  O212  1  0.65589191  0.12401288  0.80634151  1
  O  O213  1  0.66680023  0.62836354  0.14788116  1
  O  O214  1  0.66239656  0.62332854  0.48081355  1
  O  O215  1  0.65502826  0.62617380  0.81021222  1
  O  O216  1  0.08366550  0.02297056  0.25421689  1
  O  O217  1  0.10076895  0.01504230  0.57272758  1
  O  O218  1  0.09651723  0.01018554  0.90666912  1
  O  O219  1  0.07849627  0.51591338  0.26043382  1
  O  O220  1  0.08676558  0.52312753  0.58115321  1
  O  O221  1  0.08264082  0.51937892  0.91694795  1
  O  O222  1  0.42005986  0.01373272  0.24692986  1
  O  O223  1  0.42745412  0.02482393  0.57646348  1
  O  O224  1  0.42114680  0.02053334  0.90617038  1
  O  O225  1  0.41114020  0.50705175  0.25733543  1
  O  O226  1  0.42849651  0.51756620  0.57128295  1
  O  O227  1  0.42269498  0.51105323  0.90759215  1
  O  O228  1  0.76130427  0.02053891  0.24230685  1
  O  O229  1  0.75639170  0.02305474  0.57033314  1
  O  O230  1  0.75322205  0.01878279  0.90169143  1
  O  O231  1  0.74865429  0.50352035  0.25559038  1
  O  O232  1  0.75150707  0.51471022  0.57971690  1
  O  O233  1  0.74064899  0.51152933  0.92426504  1
  O  O234  1  0.25003960  0.22832136  0.25651269  1
  O  O235  1  0.25947045  0.22817493  0.58812990  1
  O  O236  1  0.25811568  0.22697013  0.91741498  1
  O  O237  1  0.25038865  0.74132767  0.25975201  1
  O  O238  1  0.24546063  0.73842694  0.57713635  1
  O  O239  1  0.24265080  0.74191814  0.91010054  1
  O  O240  1  0.59268928  0.23705444  0.26020055  1
  O  O241  1  0.59140729  0.22555244  0.58776863  1
  O  O242  1  0.58108198  0.23489788  0.91101269  1
  O  O243  1  0.58620243  0.74132261  0.25777232  1
  O  O244  1  0.58838121  0.72623450  0.58959317  1
  O  O245  1  0.58154682  0.73179429  0.91349771  1
  O  O246  1  0.92136240  0.22766051  0.25909693  1
  O  O247  1  0.91822640  0.23919976  0.57968263  1
  O  O248  1  0.91712401  0.23838823  0.91736101  1
  O  O249  1  0.92025366  0.73699450  0.25487499  1
  O  O250  1  0.92196897  0.72959748  0.58293205  1
  O  O251  1  0.92102385  0.73576564  0.92158764  1
  O  O252  1  0.07681132  0.48085564  0.08270102  1
  O  O253  1  0.08389559  0.47469273  0.41875235  1
  O  O254  1  0.07799710  0.48389801  0.73941078  1
  O  O255  1  0.08716436  0.98880172  0.09341275  1
  O  O256  1  0.07977665  0.97497950  0.41412331  1
  O  O257  1  0.08293065  0.97817076  0.74165127  1
  O  O258  1  0.41591920  0.49322277  0.08060741  1
  O  O259  1  0.40974541  0.47535101  0.41412368  1
  O  O260  1  0.41341737  0.48270266  0.73820452  1
  O  O261  1  0.40725206  0.98704352  0.06920601  1
  O  O262  1  0.41087231  0.98033193  0.41165146  1
  O  O263  1  0.41076636  0.97662868  0.74058603  1
  O  O264  1  0.74940519  0.48047603  0.08544236  1
  O  O265  1  0.74880461  0.47386186  0.41681219  1
  O  O266  1  0.73824687  0.48803748  0.74395147  1
  O  O267  1  0.74502214  0.97983127  0.08078289  1
  O  O268  1  0.73831463  0.98272319  0.39995006  1
  O  O269  1  0.73659747  0.98564174  0.73609864  1
  O  O270  1  0.23889969  0.26029018  0.09364143  1
  O  O271  1  0.24393713  0.27347358  0.42242869  1
  O  O272  1  0.25126278  0.25923217  0.74806377  1
  O  O273  1  0.24829176  0.77188672  0.08391718  1
  O  O274  1  0.24922300  0.77991332  0.41818734  1
  O  O275  1  0.25023519  0.77406921  0.74849458  1
  O  O276  1  0.58579693  0.26188458  0.08135076  1
  O  O277  1  0.57809865  0.27170532  0.42838216  1
  O  O278  1  0.57953264  0.26982915  0.74836736  1
  O  O279  1  0.58946253  0.76416297  0.07631609  1
  O  O280  1  0.57495925  0.76239385  0.42590376  1
  O  O281  1  0.57762056  0.77570319  0.75047387  1
  O  O282  1  0.91210607  0.26834735  0.09555045  1
  O  O283  1  0.91324014  0.27412449  0.42032279  1
  O  O284  1  0.91514427  0.26315530  0.74640368  1
  O  O285  1  0.91111614  0.76724674  0.09024935  1
  O  O286  1  0.92453941  0.76152126  0.41385771  1
  O  O287  1  0.92435225  0.75550322  0.74450880  1
  O  O288  1  0.24093050  0.48688385  0.08946307  1
  O  O289  1  0.24721220  0.46954763  0.41683949  1
  O  O290  1  0.25154728  0.48826016  0.74307232  1
  O  O291  1  0.24738006  0.97694709  0.08624604  1
  O  O292  1  0.24391539  0.97871542  0.42276598  1
  O  O293  1  0.24511378  0.97449523  0.75672358  1
  O  O294  1  0.58976490  0.49021522  0.07614355  1
  O  O295  1  0.57677736  0.48250680  0.42770704  1
  O  O296  1  0.57762433  0.47979655  0.75173265  1
  O  O297  1  0.58456210  0.98509912  0.07957267  1
  O  O298  1  0.57494934  0.98590995  0.42849196  1
  O  O299  1  0.57770920  0.97380964  0.74928527  1
  O  O300  1  0.91397817  0.47597811  0.09017556  1
  O  O301  1  0.91571674  0.47561634  0.42177062  1
  O  O302  1  0.91856640  0.48966739  0.74685000  1
  O  O303  1  0.90907953  0.98819245  0.09812322  1
  O  O304  1  0.91727186  0.99263141  0.41354409  1
  O  O305  1  0.91971677  0.98946625  0.74741182  1
  O  O306  1  0.07600398  0.26729224  0.08486450  1
  O  O307  1  0.07828979  0.27755971  0.41078537  1
  O  O308  1  0.07860264  0.26685314  0.73767426  1
  O  O309  1  0.08610972  0.76864824  0.09160995  1
  O  O310  1  0.08899535  0.76969193  0.42428809  1
  O  O311  1  0.08679381  0.77029567  0.75007097  1
  O  O312  1  0.41035865  0.25161047  0.07826677  1
  O  O313  1  0.41017573  0.27061271  0.41366119  1
  O  O314  1  0.41145625  0.26187402  0.73661502  1
  O  O315  1  0.41169713  0.76743733  0.07421347  1
  O  O316  1  0.40978581  0.77517604  0.41217944  1
  O  O317  1  0.41382139  0.77529798  0.74001589  1
  O  O318  1  0.74581267  0.26992971  0.08088427  1
  O  O319  1  0.74649678  0.27923290  0.41021742  1
  O  O320  1  0.73822828  0.26566113  0.73584979  1
  O  O321  1  0.74802900  0.77041029  0.08596987  1
  O  O322  1  0.74124253  0.76610473  0.41154182  1
  O  O323  1  0.73923641  0.76101367  0.74456513  1
  O  O324  1  0.24617954  0.01862165  0.25481182  1
  O  O325  1  0.26247560  0.01609999  0.59308047  1
  O  O326  1  0.26022001  0.02101324  0.91946473  1
  O  O327  1  0.25258970  0.51181928  0.26092936  1
  O  O328  1  0.24546400  0.51615130  0.57486731  1
  O  O329  1  0.24465403  0.51232641  0.91258961  1
  O  O330  1  0.59345092  0.01283711  0.26052120  1
  O  O331  1  0.59165850  0.02505128  0.58923748  1
  O  O332  1  0.57988535  0.01347608  0.90887708  1
  O  O333  1  0.58469065  0.50935748  0.25968847  1
  O  O334  1  0.59022502  0.52059901  0.59134515  1
  O  O335  1  0.58298320  0.52054137  0.91578307  1
  O  O336  1  0.91966289  0.02731120  0.25678699  1
  O  O337  1  0.92022467  0.01424739  0.57866629  1
  O  O338  1  0.91515142  0.01204752  0.91449324  1
  O  O339  1  0.92215116  0.51271977  0.25969918  1
  O  O340  1  0.92358237  0.51633288  0.58475939  1
  O  O341  1  0.92284855  0.51065390  0.92773763  1
  O  O342  1  0.08684905  0.22676976  0.24890008  1
  O  O343  1  0.09943394  0.23609209  0.57014426  1
  O  O344  1  0.09497397  0.23261494  0.91057028  1
  O  O345  1  0.07684174  0.73624956  0.26389332  1
  O  O346  1  0.08338468  0.72481281  0.58696361  1
  O  O347  1  0.08208979  0.73274600  0.91707962  1
  O  O348  1  0.41699548  0.23687006  0.24702498  1
  O  O349  1  0.42748840  0.22495379  0.57534005  1
  O  O350  1  0.41963654  0.22908249  0.90936657  1
  O  O351  1  0.41206933  0.74355200  0.25570744  1
  O  O352  1  0.42668042  0.73275342  0.56968486  1
  O  O353  1  0.42287372  0.73998161  0.90422433  1
  O  O354  1  0.75877550  0.23109485  0.24578388  1
  O  O355  1  0.75857333  0.22870942  0.57144785  1
  O  O356  1  0.75413111  0.23026831  0.90208138  1
  O  O357  1  0.74901602  0.74695991  0.25174493  1
  O  O358  1  0.74815054  0.73511868  0.58231971  1
  O  O359  1  0.74021463  0.73666403  0.92453159  1
