# generated using pymatgen
data_Ba17Sr5La8Pr42Mn72O216
_symmetry_space_group_name_H-M   'P 1'
_cell_length_a   16.66937278
_cell_length_b   15.70182389
_cell_length_c   16.80743489
_cell_angle_alpha   90.01213616
_cell_angle_beta   90.01989102
_cell_angle_gamma   89.99253314
_symmetry_Int_Tables_number   1
_chemical_formula_structural   Ba17Sr5La8Pr42Mn72O216
_chemical_formula_sum   'Ba17 Sr5 La8 Pr42 Mn72 O216'
_cell_volume   4399.17013955
_cell_formula_units_Z   1
loop_
 _symmetry_equiv_pos_site_id
 _symmetry_equiv_pos_as_xyz
  1  'x, y, z'
loop_
 _atom_site_type_symbol
 _atom_site_label
 _atom_site_symmetry_multiplicity
 _atom_site_fract_x
 _atom_site_fract_y
 _atom_site_fract_z
 _atom_site_occupancy
  Ba  Ba0  1  0.16801911  0.37271644  0.16096035  1
  Ba  Ba1  1  0.83191476  0.12427954  0.50475449  1
  Ba  Ba2  1  0.33379728  0.62455745  0.99965767  1
  Ba  Ba3  1  -0.00331419  0.62594311  0.66331029  1
  Ba  Ba4  1  -0.00135664  0.62570286  0.32906066  1
  Ba  Ba5  1  0.50261080  0.87551233  0.16704998  1
  Ba  Ba6  1  0.16781145  0.37498521  0.49384301  1
  Ba  Ba7  1  0.49766642  0.12631802  0.50432507  1
  Ba  Ba8  1  0.00231615  0.37295201  -0.00301858  1
  Ba  Ba9  1  0.33497687  0.87509427  0.00118671  1
  Ba  Ba10  1  -0.00262041  0.62395859  0.99588363  1
  Ba  Ba11  1  0.33426443  0.62438040  0.66622329  1
  Ba  Ba12  1  0.83201102  0.62437504  0.16924008  1
  Ba  Ba13  1  0.16785701  0.87625508  0.16233626  1
  Ba  Ba14  1  0.33518148  0.87329545  0.66723753  1
  Ba  Ba15  1  -0.00214409  0.12416114  0.66207781  1
  Ba  Ba16  1  0.16829016  0.87617196  0.83012416  1
  Sr  Sr17  1  0.67282276  0.37559111  0.34176973  1
  Sr  Sr18  1  0.49619928  0.12774003  0.83476640  1
  Sr  Sr19  1  -0.00261971  0.12561185  0.99443971  1
  Sr  Sr20  1  0.67105650  0.37286081  0.66997153  1
  Sr  Sr21  1  0.33029614  0.62274448  0.32959190  1
  La  La22  1  0.16432241  0.12473005  0.49922008  1
  La  La23  1  0.49436849  0.62395944  0.83572202  1
  La  La24  1  0.84126542  0.87532679  0.50125718  1
  La  La25  1  0.50653044  0.37681871  0.50117555  1
  La  La26  1  0.50638889  0.37714710  0.83340532  1
  La  La27  1  0.16865335  0.86950710  0.49521811  1
  La  La28  1  0.00179054  0.37863025  0.33018005  1
  La  La29  1  0.16655873  0.37847538  0.82718827  1
  Pr  Pr30  1  0.66075396  0.12807635  0.66673885  1
  Pr  Pr31  1  0.33897093  0.37551256  0.33722508  1
  Pr  Pr32  1  0.16014234  0.12232340  0.16034837  1
  Pr  Pr33  1  0.00657800  0.87609596  0.00112604  1
  Pr  Pr34  1  0.32758160  0.12328645  0.66314770  1
  Pr  Pr35  1  0.65618090  0.12768724  0.33623190  1
  Pr  Pr36  1  0.50457295  0.87203959  0.49914478  1
  Pr  Pr37  1  0.84136201  0.87560239  0.83478896  1
  Pr  Pr38  1  0.00529661  0.87795593  0.66490857  1
  Pr  Pr39  1  0.49309699  0.62606333  0.17018834  1
  Pr  Pr40  1  0.84021508  0.37471189  0.50243567  1
  Pr  Pr41  1  0.50084111  0.87333878  0.83356919  1
  Pr  Pr42  1  0.16300795  0.62594592  0.16228100  1
  Pr  Pr43  1  0.33646395  0.87435220  0.33666338  1
  Pr  Pr44  1  0.32503838  0.12548556  0.33161617  1
  Pr  Pr45  1  0.67150755  0.37300696  0.00546775  1
  Pr  Pr46  1  0.00250052  0.37141866  0.66632417  1
  Pr  Pr47  1  0.50653255  0.37650956  0.16863088  1
  Pr  Pr48  1  0.16856525  0.63018987  0.83402758  1
  Pr  Pr49  1  0.84037433  0.37657217  0.16771863  1
  Pr  Pr50  1  0.33900562  0.37380556  0.66784577  1
  Pr  Pr51  1  0.32837436  0.12317375  0.99974675  1
  Pr  Pr52  1  -0.00186060  0.12743360  0.32898699  1
  Pr  Pr53  1  0.82864723  0.12681555  0.17369684  1
  Pr  Pr54  1  0.00637934  0.87117866  0.32938440  1
  Pr  Pr55  1  0.66898263  0.88024780  0.67390674  1
  Pr  Pr56  1  0.49188698  0.12389856  0.17303827  1
  Pr  Pr57  1  0.66304180  0.62308660  0.66978347  1
  Pr  Pr58  1  0.16729371  0.12191384  0.82987592  1
  Pr  Pr59  1  0.34037083  0.37331040  0.00311283  1
  Pr  Pr60  1  0.16945750  0.62222882  0.49745212  1
  Pr  Pr61  1  0.66031043  0.62557627  1.00179706  1
  Pr  Pr62  1  0.84219118  0.37487711  0.83219910  1
  Pr  Pr63  1  0.82850238  0.62440592  0.50326918  1
  Pr  Pr64  1  0.84025633  0.87494088  0.16661008  1
  Pr  Pr65  1  0.66076083  0.62286854  0.33165026  1
  Pr  Pr66  1  0.49701092  0.62277324  0.50188306  1
  Pr  Pr67  1  0.82655617  0.12616243  0.83804999  1
  Pr  Pr68  1  0.67109424  0.87492052  0.34048550  1
  Pr  Pr69  1  0.82696724  0.62411871  0.84240855  1
  Pr  Pr70  1  0.67008040  0.87797300  0.00834266  1
  Pr  Pr71  1  0.65886587  0.12581627  1.00359215  1
  Mn  Mn72  1  -0.00379075  0.00256536  0.16228621  1
  Mn  Mn73  1  0.00207741  -0.00384950  0.49487148  1
  Mn  Mn74  1  -0.00265813  0.00183280  0.83178867  1
  Mn  Mn75  1  0.00109473  0.49968135  0.16396845  1
  Mn  Mn76  1  -0.00137843  0.50179001  0.49762713  1
  Mn  Mn77  1  -0.00109716  0.50062167  0.82815610  1
  Mn  Mn78  1  0.33333232  0.00195870  0.16723975  1
  Mn  Mn79  1  0.33380258  -0.00094578  0.49933339  1
  Mn  Mn80  1  0.33688080  0.00287944  0.83180585  1
  Mn  Mn81  1  0.33414621  0.49818260  0.16716350  1
  Mn  Mn82  1  0.33567023  0.49928917  0.49799661  1
  Mn  Mn83  1  0.33285947  0.49661852  0.83353637  1
  Mn  Mn84  1  0.66827670  0.00266581  0.17187557  1
  Mn  Mn85  1  0.66667657  -0.00106643  0.50542354  1
  Mn  Mn86  1  0.66443205  0.00070449  0.83960998  1
  Mn  Mn87  1  0.66631102  0.49743206  0.17026684  1
  Mn  Mn88  1  0.66868934  0.50088020  0.50231071  1
  Mn  Mn89  1  0.66775334  0.49909953  0.83666957  1
  Mn  Mn90  1  -0.00189079  0.24655609  0.16292703  1
  Mn  Mn91  1  -0.00012075  0.25090660  0.49607385  1
  Mn  Mn92  1  -0.00046662  0.24743260  0.83055961  1
  Mn  Mn93  1  -0.00025080  0.75121727  0.16353878  1
  Mn  Mn94  1  -0.00020214  0.74866218  0.49649484  1
  Mn  Mn95  1  -0.00226862  0.75096572  0.82970784  1
  Mn  Mn96  1  0.33453424  0.25081502  0.16684247  1
  Mn  Mn97  1  0.33459345  0.25044468  0.49990047  1
  Mn  Mn98  1  0.33402358  0.25062388  0.83376315  1
  Mn  Mn99  1  0.33320339  0.74794735  0.16776617  1
  Mn  Mn100  1  0.33520886  0.74923053  0.49720739  1
  Mn  Mn101  1  0.33491681  0.75061729  0.83255268  1
  Mn  Mn102  1  0.66641293  0.25125923  0.17154975  1
  Mn  Mn103  1  0.66765908  0.25158990  0.50348722  1
  Mn  Mn104  1  0.66627028  0.24932924  0.83713512  1
  Mn  Mn105  1  0.66680221  0.74998193  0.16979766  1
  Mn  Mn106  1  0.66758784  0.74884503  0.50400632  1
  Mn  Mn107  1  0.66602318  0.75190161  0.83726399  1
  Mn  Mn108  1  0.16858962  0.24783792  -0.00615027  1
  Mn  Mn109  1  0.16647390  0.24853598  0.32773600  1
  Mn  Mn110  1  0.16805358  0.25176263  0.66277920  1
  Mn  Mn111  1  0.16626831  0.74914036  -0.00245320  1
  Mn  Mn112  1  0.16948711  0.74849258  0.32869340  1
  Mn  Mn113  1  0.16623763  0.74657137  0.66268506  1
  Mn  Mn114  1  0.50098164  0.25008358  0.00290617  1
  Mn  Mn115  1  0.49938374  0.25035362  0.33554145  1
  Mn  Mn116  1  0.50049558  0.25154312  0.67059587  1
  Mn  Mn117  1  0.50222082  0.75031993  0.00014253  1
  Mn  Mn118  1  0.50052145  0.75043710  0.33426702  1
  Mn  Mn119  1  0.50394042  0.74971002  0.66652498  1
  Mn  Mn120  1  0.83109349  0.24845859  0.00300007  1
  Mn  Mn121  1  0.83265814  0.24930897  0.33630875  1
  Mn  Mn122  1  0.83128627  0.25105369  0.66976305  1
  Mn  Mn123  1  0.82995300  0.75229235  0.00063203  1
  Mn  Mn124  1  0.83126141  0.75266249  0.33542481  1
  Mn  Mn125  1  0.83042973  0.75134205  0.66928720  1
  Mn  Mn126  1  0.16598055  0.00304361  -0.00346721  1
  Mn  Mn127  1  0.16670407  0.00013267  0.33022589  1
  Mn  Mn128  1  0.16721613  0.00006294  0.66194274  1
  Mn  Mn129  1  0.16825430  0.49935198  -0.00452557  1
  Mn  Mn130  1  0.16797288  0.50025308  0.32838537  1
  Mn  Mn131  1  0.16678837  0.49995165  0.66245307  1
  Mn  Mn132  1  0.50119298  0.00338371  0.00086190  1
  Mn  Mn133  1  0.49965695  -0.00018725  0.33628686  1
  Mn  Mn134  1  0.50085129  0.00076095  0.67002095  1
  Mn  Mn135  1  0.50247708  0.49727709  0.00169086  1
  Mn  Mn136  1  0.50093491  0.49911724  0.33411980  1
  Mn  Mn137  1  0.50259866  0.49901944  0.66749669  1
  Mn  Mn138  1  0.83138475  0.00178329  0.00252573  1
  Mn  Mn139  1  0.83259111  0.00016380  0.33454095  1
  Mn  Mn140  1  0.83072362  -0.00180757  0.67043004  1
  Mn  Mn141  1  0.83069214  0.49857670  0.00113752  1
  Mn  Mn142  1  0.83194789  0.49807926  0.33599303  1
  Mn  Mn143  1  0.83125631  0.50054211  0.66910812  1
  O  O144  1  0.17480051  0.12671161  0.01591884  1
  O  O145  1  0.16609576  0.12357639  0.35579410  1
  O  O146  1  0.17314865  0.13017891  0.68411044  1
  O  O147  1  0.16628009  0.62499492  0.01411325  1
  O  O148  1  0.16909103  0.62643348  0.35386157  1
  O  O149  1  0.16579506  0.62125677  0.68807162  1
  O  O150  1  0.50530800  0.12964293  0.02996634  1
  O  O151  1  0.49978771  0.12590931  0.34895322  1
  O  O152  1  0.50518161  0.12933583  0.68676322  1
  O  O153  1  0.50803605  0.61756318  0.02581384  1
  O  O154  1  0.50511330  0.62701008  0.35839719  1
  O  O155  1  0.50839326  0.62465716  0.69141251  1
  O  O156  1  0.83081180  0.12497055  0.02903327  1
  O  O157  1  0.84744833  0.12314755  0.34989528  1
  O  O158  1  0.82861709  0.12298958  0.69311426  1
  O  O159  1  0.82663580  0.62594290  0.01126642  1
  O  O160  1  0.82958556  0.62867200  0.35839185  1
  O  O161  1  0.82826093  0.62791480  0.69749512  1
  O  O162  1  0.16870085  0.37152532  0.31743910  1
  O  O163  1  0.16496083  0.37507078  0.65018916  1
  O  O164  1  0.17441590  0.37005788  0.97388661  1
  O  O165  1  0.17187793  0.87584197  0.31797884  1
  O  O166  1  0.16196030  0.87174729  0.64204578  1
  O  O167  1  0.15878499  0.87833994  0.98870181  1
  O  O168  1  0.49632433  0.37195433  0.31128976  1
  O  O169  1  0.49709309  0.37535921  0.64631476  1
  O  O170  1  0.50305268  0.37283580  0.97746231  1
  O  O171  1  0.50496868  0.87484986  0.32258344  1
  O  O172  1  0.50984109  0.87130070  0.64421742  1
  O  O173  1  0.50967053  0.88079146  0.97878471  1
  O  O174  1  0.82855132  0.36989365  0.31152488  1
  O  O175  1  0.82713586  0.37757757  0.64672822  1
  O  O176  1  0.82129220  0.37142138  0.97683954  1
  O  O177  1  0.81945235  0.87858925  0.31059833  1
  O  O178  1  0.81813103  0.87312695  0.64466156  1
  O  O179  1  0.81863247  0.87856590  0.97773964  1
  O  O180  1  -0.00287764  0.36942642  0.18406477  1
  O  O181  1  -0.00342189  0.38075615  0.52159851  1
  O  O182  1  0.00059800  0.37291701  0.84099331  1
  O  O183  1  -0.00106158  0.87983760  0.18350528  1
  O  O184  1  0.00831317  0.87096001  0.51930091  1
  O  O185  1  -0.00481792  0.87826831  0.85697724  1
  O  O186  1  0.33589222  0.37282852  0.19423482  1
  O  O187  1  0.33638196  0.37557815  0.52229510  1
  O  O188  1  0.32433985  0.37169060  0.86024227  1
  O  O189  1  0.33190881  0.87734925  0.19060436  1
  O  O190  1  0.32575838  0.87550446  0.51096073  1
  O  O191  1  0.34141462  0.87782889  0.84280543  1
  O  O192  1  0.65839110  0.37312139  0.19452108  1
  O  O193  1  0.66510622  0.37850788  0.51987844  1
  O  O194  1  0.66176010  0.37262407  0.86200586  1
  O  O195  1  0.67080309  0.88135850  0.19594882  1
  O  O196  1  0.65782164  0.87102753  0.52971716  1
  O  O197  1  0.65446627  0.87492901  0.86639816  1
  O  O198  1  -0.01533361  0.12362971  0.14555997  1
  O  O199  1  0.00315592  0.11908473  0.47373134  1
  O  O200  1  -0.01283153  0.12389547  0.81715172  1
  O  O201  1  0.00302928  0.62771557  0.15521771  1
  O  O202  1  -0.01466564  0.62665294  0.48428344  1
  O  O203  1  -0.01252994  0.62537170  0.81984390  1
  O  O204  1  0.34429843  0.12967718  0.14493437  1
  O  O205  1  0.33188987  0.12424159  0.47637775  1
  O  O206  1  0.33718647  0.12979596  0.80623068  1
  O  O207  1  0.34360574  0.61987560  0.15551810  1
  O  O208  1  0.34273694  0.62406766  0.47971377  1
  O  O209  1  0.33918885  0.62176195  0.82379993  1
  O  O210  1  0.67279545  0.12804636  0.14623078  1
  O  O211  1  0.66685543  0.12459936  0.48133213  1
  O  O212  1  0.67279554  0.12576553  0.80938031  1
  O  O213  1  0.66383496  0.61930179  0.14520152  1
  O  O214  1  0.67347147  0.62665189  0.47419159  1
  O  O215  1  0.67487865  0.62798448  0.81248966  1
  O  O216  1  0.07595859  0.02280663  0.24875290  1
  O  O217  1  0.08847342  0.01212003  0.57203049  1
  O  O218  1  0.08262409  0.02019452  0.90927755  1
  O  O219  1  0.08548868  0.51010036  0.24498588  1
  O  O220  1  0.08518443  0.51904763  0.57284011  1
  O  O221  1  0.08464823  0.51143201  0.90292013  1
  O  O222  1  0.40828416  0.01757424  0.25722353  1
  O  O223  1  0.40886332  0.01378947  0.59251178  1
  O  O224  1  0.41301224  0.02202088  0.92360915  1
  O  O225  1  0.41614222  0.51240964  0.25320724  1
  O  O226  1  0.42234192  0.51137628  0.57881484  1
  O  O227  1  0.41986040  0.50364339  0.91649817  1
  O  O228  1  0.74199413  0.02824600  0.26257006  1
  O  O229  1  0.73946887  0.01500516  0.59917222  1
  O  O230  1  0.74110938  0.02430090  0.92924489  1
  O  O231  1  0.73975846  0.51440083  0.26408645  1
  O  O232  1  0.74402751  0.52491355  0.59389964  1
  O  O233  1  0.74016714  0.51748772  0.92786077  1
  O  O234  1  0.24376969  0.22259411  0.24006118  1
  O  O235  1  0.24829257  0.22883633  0.57722006  1
  O  O236  1  0.24706992  0.22215986  0.90633177  1
  O  O237  1  0.24744762  0.72751855  0.24558657  1
  O  O238  1  0.24585528  0.73328442  0.57143452  1
  O  O239  1  0.24587073  0.73865708  0.91174901  1
  O  O240  1  0.57761815  0.22738970  0.24595447  1
  O  O241  1  0.58259274  0.24121789  0.58695542  1
  O  O242  1  0.58149445  0.23084405  0.91910254  1
  O  O243  1  0.57884709  0.72688605  0.24703318  1
  O  O244  1  0.58273978  0.72096903  0.58048921  1
  O  O245  1  0.57929733  0.72285672  0.91052353  1
  O  O246  1  0.91315858  0.23384896  0.24973305  1
  O  O247  1  0.91294582  0.24898337  0.58154890  1
  O  O248  1  0.90673275  0.23698824  0.91162221  1
  O  O249  1  0.91338337  0.75353218  0.24573870  1
  O  O250  1  0.90495385  0.74331890  0.57539491  1
  O  O251  1  0.90106436  0.74349917  0.90710876  1
  O  O252  1  0.08864548  0.49442268  0.07982703  1
  O  O253  1  0.08203825  0.48969079  0.40890434  1
  O  O254  1  0.08299331  0.48164926  0.74366858  1
  O  O255  1  0.08004763  0.99839798  0.07872422  1
  O  O256  1  0.08558247  0.97633369  0.41245561  1
  O  O257  1  0.08053057  0.98875644  0.74000725  1
  O  O258  1  0.42456987  0.47524650  0.08920251  1
  O  O259  1  0.42256948  0.47705145  0.41983003  1
  O  O260  1  0.41745502  0.47758629  0.75369589  1
  O  O261  1  0.42377882  0.99561716  0.08840667  1
  O  O262  1  0.42064938  0.97665423  0.42325074  1
  O  O263  1  0.42887820  0.98617543  0.75914153  1
  O  O264  1  0.75127779  0.47410911  0.09362099  1
  O  O265  1  0.76042437  0.48547809  0.43155999  1
  O  O266  1  0.75858339  0.48311762  0.76448449  1
  O  O267  1  0.75865668  0.98371386  0.09763943  1
  O  O268  1  0.75225165  0.97753038  0.42801636  1
  O  O269  1  0.75194120  0.97722961  0.76774081  1
  O  O270  1  0.26504136  0.26111646  0.07090383  1
  O  O271  1  0.26019820  0.25967901  0.40138677  1
  O  O272  1  0.25656199  0.27076491  0.74281782  1
  O  O273  1  0.24728368  0.75089812  0.08520466  1
  O  O274  1  0.25423826  0.76618578  0.41006117  1
  O  O275  1  0.24805489  0.75135442  0.74899921  1
  O  O276  1  0.58885366  0.27093656  0.08210983  1
  O  O277  1  0.58623543  0.26473842  0.41388239  1
  O  O278  1  0.58607313  0.26779659  0.75248453  1
  O  O279  1  0.59462988  0.76313275  0.07336233  1
  O  O280  1  0.58891968  0.76865893  0.41704461  1
  O  O281  1  0.59099041  0.77081644  0.74833554  1
  O  O282  1  0.91086413  0.26785869  0.08626603  1
  O  O283  1  0.91917175  0.27384798  0.41212991  1
  O  O284  1  0.91812214  0.27202732  0.74518901  1
  O  O285  1  0.91727536  0.77510270  0.07534893  1
  O  O286  1  0.91973224  0.77771740  0.41032332  1
  O  O287  1  0.91787721  0.77893668  0.74222228  1
  O  O288  1  0.26280538  0.48287551  0.07425816  1
  O  O289  1  0.25987282  0.48806139  0.40562089  1
  O  O290  1  0.25403976  0.47788295  0.74540100  1
  O  O291  1  0.25439203  1.00129316  0.08259124  1
  O  O292  1  0.25724868  0.98609821  0.40929486  1
  O  O293  1  0.25315686  0.99950161  0.74516463  1
  O  O294  1  0.58952556  0.47437851  0.08049408  1
  O  O295  1  0.58692020  0.48758701  0.41586414  1
  O  O296  1  0.58820929  0.48499817  0.75205723  1
  O  O297  1  0.59723888  0.99073312  0.07754034  1
  O  O298  1  0.58997827  0.98183953  0.41792702  1
  O  O299  1  0.58865793  0.97961898  0.75204205  1
  O  O300  1  0.91260892  0.48404313  0.08165174  1
  O  O301  1  0.91826228  0.47495732  0.41267663  1
  O  O302  1  0.92042234  0.47593183  0.74039058  1
  O  O303  1  0.91912610  0.97289897  0.07437791  1
  O  O304  1  0.92324317  0.97259489  0.40739051  1
  O  O305  1  0.91733110  0.97350053  0.74537682  1
  O  O306  1  0.08684040  0.24797501  0.08069271  1
  O  O307  1  0.07838058  0.25947879  0.40351676  1
  O  O308  1  0.08605237  0.26500622  0.74506959  1
  O  O309  1  0.07783734  0.76189575  0.07470163  1
  O  O310  1  0.08615669  0.76723403  0.41016640  1
  O  O311  1  0.07880155  0.76375897  0.73943221  1
  O  O312  1  0.42624537  0.27492724  0.09321682  1
  O  O313  1  0.42218419  0.27398150  0.42355094  1
  O  O314  1  0.42130048  0.27768152  0.75976657  1
  O  O315  1  0.42225067  0.75472895  0.08791781  1
  O  O316  1  0.42109329  0.77270437  0.41847654  1
  O  O317  1  0.42825579  0.76032072  0.75461707  1
  O  O318  1  0.75157551  0.27261406  0.09359789  1
  O  O319  1  0.75733875  0.26639975  0.42671630  1
  O  O320  1  0.75781926  0.26732239  0.76496101  1
  O  O321  1  0.75413842  0.77268001  0.09351568  1
  O  O322  1  0.75398442  0.77479681  0.42962481  1
  O  O323  1  0.75282672  0.77588940  0.76252916  1
  O  O324  1  0.24489297  0.02726292  0.24550048  1
  O  O325  1  0.24793475  0.02110709  0.57648664  1
  O  O326  1  0.24952658  0.02163789  0.91050738  1
  O  O327  1  0.24437935  0.51983845  0.23906962  1
  O  O328  1  0.24743246  0.51670432  0.57332499  1
  O  O329  1  0.24160159  0.51529962  0.90313234  1
  O  O330  1  0.57984356  0.02447515  0.24769803  1
  O  O331  1  0.58382812  0.01469038  0.58897898  1
  O  O332  1  0.58025790  0.02671579  0.91637833  1
  O  O333  1  0.57668781  0.52053625  0.24476413  1
  O  O334  1  0.58349707  0.52215654  0.57884693  1
  O  O335  1  0.58112894  0.52152030  0.91419627  1
  O  O336  1  0.90738097  0.01171950  0.23880227  1
  O  O337  1  0.91851502  -0.00370585  0.57677809  1
  O  O338  1  0.90337831  0.01441836  0.91135780  1
  O  O339  1  0.91233861  0.49901179  0.24938816  1
  O  O340  1  0.90254633  0.51233368  0.57522815  1
  O  O341  1  0.90375018  0.50573821  0.90428661  1
  O  O342  1  0.08025418  0.22331182  0.24503294  1
  O  O343  1  0.08558602  0.23632611  0.57390044  1
  O  O344  1  0.08426230  0.23024083  0.90722194  1
  O  O345  1  0.08716882  0.74044629  0.24392548  1
  O  O346  1  0.08913409  0.73110595  0.57069642  1
  O  O347  1  0.08437001  0.73649521  0.90780883  1
  O  O348  1  0.40938682  0.23061358  0.25888139  1
  O  O349  1  0.40757388  0.23874752  0.59946327  1
  O  O350  1  0.40876029  0.23555157  0.92998512  1
  O  O351  1  0.41597362  0.73649046  0.25532662  1
  O  O352  1  0.42497284  0.73967860  0.57707430  1
  O  O353  1  0.42355574  0.74162700  0.91470729  1
  O  O354  1  0.74521640  0.22530497  0.26054459  1
  O  O355  1  0.74210885  0.23465221  0.59874012  1
  O  O356  1  0.74353900  0.22501727  0.92678044  1
  O  O357  1  0.73811756  0.73528715  0.26648813  1
  O  O358  1  0.74392936  0.72428482  0.59195361  1
  O  O359  1  0.73878683  0.73261399  0.92733916  1
