# generated using pymatgen
data_Ba17Sr5La8Pr42Mn72O216
_symmetry_space_group_name_H-M   'P 1'
_cell_length_a   16.67157515
_cell_length_b   15.70399353
_cell_length_c   16.81986524
_cell_angle_alpha   90.00321181
_cell_angle_beta   89.99355719
_cell_angle_gamma   90.03054571
_symmetry_Int_Tables_number   1
_chemical_formula_structural   Ba17Sr5La8Pr42Mn72O216
_chemical_formula_sum   'Ba17 Sr5 La8 Pr42 Mn72 O216'
_cell_volume   4403.61344385
_cell_formula_units_Z   1
loop_
 _symmetry_equiv_pos_site_id
 _symmetry_equiv_pos_as_xyz
  1  'x, y, z'
loop_
 _atom_site_type_symbol
 _atom_site_label
 _atom_site_symmetry_multiplicity
 _atom_site_fract_x
 _atom_site_fract_y
 _atom_site_fract_z
 _atom_site_occupancy
  Ba  Ba0  1  0.49699719  0.87541918  0.16308261  1
  Ba  Ba1  1  0.16876637  0.37510085  0.83176279  1
  Ba  Ba2  1  0.66824926  0.62475638  0.33203710  1
  Ba  Ba3  1  0.16755795  0.37696547  0.49926450  1
  Ba  Ba4  1  0.66771803  0.37425721  0.00072178  1
  Ba  Ba5  1  -0.00394208  0.87532745  0.33574732  1
  Ba  Ba6  1  0.83360185  0.37537222  0.16782648  1
  Ba  Ba7  1  0.50128813  0.37477334  0.16654567  1
  Ba  Ba8  1  0.33351409  0.12355445  0.33353877  1
  Ba  Ba9  1  0.66655568  0.62662394  0.66659768  1
  Ba  Ba10  1  0.16717873  0.12405450  0.50130243  1
  Ba  Ba11  1  0.33546121  0.37517329  0.66587376  1
  Ba  Ba12  1  0.83241316  0.37420958  0.49969897  1
  Ba  Ba13  1  0.16722078  0.37564068  0.16619680  1
  Ba  Ba14  1  0.83401773  0.62373803  0.16399667  1
  Ba  Ba15  1  0.49741922  0.87520170  0.83178793  1
  Ba  Ba16  1  0.83457366  0.12249148  0.83549532  1
  Sr  Sr17  1  0.67080214  0.37702712  0.33158396  1
  Sr  Sr18  1  0.50268297  0.62528618  0.83379846  1
  Sr  Sr19  1  0.66674608  0.62257854  0.99789511  1
  Sr  Sr20  1  0.00293906  0.62264264  0.99886905  1
  Sr  Sr21  1  0.17008188  0.12659105  0.83326873  1
  La  La22  1  0.16844253  0.12498992  0.17131503  1
  La  La23  1  -0.00103207  0.37323742  0.00076413  1
  La  La24  1  0.00455020  0.12772288  0.66716332  1
  La  La25  1  0.16187660  0.87373648  0.83445746  1
  La  La26  1  0.00195221  0.62388316  0.66939897  1
  La  La27  1  -0.00518751  0.87717526  0.66991169  1
  La  La28  1  0.50449814  0.37799764  0.83189100  1
  La  La29  1  0.49646061  0.87142721  0.49645288  1
  Pr  Pr30  1  0.66561962  0.12192104  0.66177696  1
  Pr  Pr31  1  0.00066820  0.62106686  0.32958674  1
  Pr  Pr32  1  0.33468238  0.62308436  0.32999412  1
  Pr  Pr33  1  0.66122669  0.87487842  0.66980562  1
  Pr  Pr34  1  0.82255786  0.87261774  0.49816950  1
  Pr  Pr35  1  0.66991839  0.12669787  0.33082956  1
  Pr  Pr36  1  0.15951782  0.87587423  0.49842253  1
  Pr  Pr37  1  0.83507550  0.12615652  0.16805620  1
  Pr  Pr38  1  0.49814334  0.12657136  0.50076364  1
  Pr  Pr39  1  0.00467113  0.12761674  0.99788765  1
  Pr  Pr40  1  -0.00089142  0.37769734  0.33677994  1
  Pr  Pr41  1  0.82543007  0.87151598  0.16669744  1
  Pr  Pr42  1  0.33458049  0.12660321  1.00160074  1
  Pr  Pr43  1  0.32850876  0.87578868  0.33611644  1
  Pr  Pr44  1  0.00251401  0.12974321  0.33435078  1
  Pr  Pr45  1  0.50258601  0.62267983  0.50182178  1
  Pr  Pr46  1  0.50470524  0.37819036  0.49350403  1
  Pr  Pr47  1  0.49763380  0.12642985  0.83225509  1
  Pr  Pr48  1  0.00192332  0.37265345  0.67059435  1
  Pr  Pr49  1  0.50624808  0.62301428  0.16588940  1
  Pr  Pr50  1  0.66218474  0.87537802  0.00054959  1
  Pr  Pr51  1  0.33365638  0.37630019  0.00135463  1
  Pr  Pr52  1  0.83570952  0.37786260  0.83063180  1
  Pr  Pr53  1  0.16812088  0.62818759  0.16805571  1
  Pr  Pr54  1  0.16102865  0.87788258  0.16580653  1
  Pr  Pr55  1  0.82575384  0.87418158  0.83368064  1
  Pr  Pr56  1  0.83501383  0.62612382  0.84374981  1
  Pr  Pr57  1  0.66335496  0.87150312  0.33250953  1
  Pr  Pr58  1  0.32590482  0.87391746  0.00286408  1
  Pr  Pr59  1  0.17588952  0.62369961  0.83781022  1
  Pr  Pr60  1  0.32555924  0.87720449  0.67110365  1
  Pr  Pr61  1  0.66055078  0.12697479  0.99910859  1
  Pr  Pr62  1  0.83659551  0.12303208  0.50623903  1
  Pr  Pr63  1  0.33785839  0.37306477  0.34026690  1
  Pr  Pr64  1  0.33579584  0.62582691  0.66681979  1
  Pr  Pr65  1  0.33873839  0.62373905  0.99935462  1
  Pr  Pr66  1  0.66993527  0.37482287  0.66973162  1
  Pr  Pr67  1  -0.00906445  0.87603150  0.00659211  1
  Pr  Pr68  1  0.16847513  0.62938588  0.50202612  1
  Pr  Pr69  1  0.50564911  0.12629898  0.17008946  1
  Pr  Pr70  1  0.83659136  0.62383398  0.49988658  1
  Pr  Pr71  1  0.33271896  0.12590956  0.66354176  1
  Mn  Mn72  1  -0.00232903  0.00026779  0.16737390  1
  Mn  Mn73  1  -0.00295202  -0.00129603  0.50320369  1
  Mn  Mn74  1  0.00163902  -0.00181007  0.83717945  1
  Mn  Mn75  1  0.00235517  0.50079841  0.16495124  1
  Mn  Mn76  1  0.00101082  0.50349288  0.50048533  1
  Mn  Mn77  1  0.00068420  0.50210263  0.83340010  1
  Mn  Mn78  1  0.33161898  -0.00109216  0.16588550  1
  Mn  Mn79  1  0.33387108  -0.00260176  0.50268338  1
  Mn  Mn80  1  0.33146476  0.00077956  0.83411984  1
  Mn  Mn81  1  0.33334461  0.50136164  0.16620778  1
  Mn  Mn82  1  0.33426615  0.50345273  0.49860714  1
  Mn  Mn83  1  0.33700339  0.50114996  0.83345461  1
  Mn  Mn84  1  0.66763885  0.00064479  0.16613309  1
  Mn  Mn85  1  0.66445829  -0.00111866  0.49763989  1
  Mn  Mn86  1  0.66508358  0.00214232  0.83297567  1
  Mn  Mn87  1  0.66742817  0.50010203  0.16479742  1
  Mn  Mn88  1  0.66742849  0.50039431  0.50002122  1
  Mn  Mn89  1  0.66836536  0.49961317  0.83230814  1
  Mn  Mn90  1  0.00027052  0.24872961  0.16607655  1
  Mn  Mn91  1  -0.00024338  0.25066836  0.50061261  1
  Mn  Mn92  1  0.00169098  0.24812116  0.83436286  1
  Mn  Mn93  1  0.00030509  0.75010341  0.16714609  1
  Mn  Mn94  1  -0.00190627  0.74915206  0.50252661  1
  Mn  Mn95  1  0.00003592  0.75225653  0.83583172  1
  Mn  Mn96  1  0.33343043  0.25068069  0.16658628  1
  Mn  Mn97  1  0.33498877  0.24950596  0.50066108  1
  Mn  Mn98  1  0.33549559  0.24777430  0.83351381  1
  Mn  Mn99  1  0.33134515  0.74957317  0.16667294  1
  Mn  Mn100  1  0.33226674  0.75033050  0.50039327  1
  Mn  Mn101  1  0.33331152  0.75131525  0.83419853  1
  Mn  Mn102  1  0.66882445  0.24822075  0.16576859  1
  Mn  Mn103  1  0.66570750  0.24796622  0.49863741  1
  Mn  Mn104  1  0.66741410  0.24807451  0.83176656  1
  Mn  Mn105  1  0.66499312  0.75038774  0.16453731  1
  Mn  Mn106  1  0.66497920  0.75058943  0.49991544  1
  Mn  Mn107  1  0.66655976  0.75034760  0.83327233  1
  Mn  Mn108  1  0.16864939  0.24930059  -0.00009121  1
  Mn  Mn109  1  0.16676232  0.25087045  0.33239132  1
  Mn  Mn110  1  0.16761449  0.25014199  0.66767512  1
  Mn  Mn111  1  0.16548058  0.74938639  0.00030273  1
  Mn  Mn112  1  0.16702523  0.75014092  0.33504096  1
  Mn  Mn113  1  0.16500524  0.75016150  0.66807457  1
  Mn  Mn114  1  0.49770075  0.24799743  -0.00089902  1
  Mn  Mn115  1  0.50216398  0.24826462  0.33391209  1
  Mn  Mn116  1  0.50252919  0.24915428  0.66563148  1
  Mn  Mn117  1  0.49938281  0.75072949  -0.00204143  1
  Mn  Mn118  1  0.49723372  0.75066828  0.33131907  1
  Mn  Mn119  1  0.49707023  0.74998917  0.66438416  1
  Mn  Mn120  1  0.83486199  0.24710970  0.00027871  1
  Mn  Mn121  1  0.83363923  0.24777462  0.33550301  1
  Mn  Mn122  1  0.83305023  0.24883110  0.66766206  1
  Mn  Mn123  1  0.83323590  0.75153720  -0.00068156  1
  Mn  Mn124  1  0.83355434  0.75119552  0.33361013  1
  Mn  Mn125  1  0.83412989  0.75004613  0.66834084  1
  Mn  Mn126  1  0.16652173  0.00024138  -0.00018386  1
  Mn  Mn127  1  0.16455470  -0.00091326  0.33369067  1
  Mn  Mn128  1  0.16518208  -0.00151606  0.66900864  1
  Mn  Mn129  1  0.16737524  0.50082942  -0.00019051  1
  Mn  Mn130  1  0.16839227  0.50181920  0.33243503  1
  Mn  Mn131  1  0.16636469  0.50360211  0.66693144  1
  Mn  Mn132  1  0.49720655  0.00078915  -0.00157637  1
  Mn  Mn133  1  0.50009988  -0.00174067  0.33300872  1
  Mn  Mn134  1  0.49830892  -0.00041965  0.66414489  1
  Mn  Mn135  1  0.50043050  0.50157969  -0.00179330  1
  Mn  Mn136  1  0.50097601  0.50179197  0.33270119  1
  Mn  Mn137  1  0.50070128  0.49983315  0.66536214  1
  Mn  Mn138  1  0.83272288  0.00027122  0.00303491  1
  Mn  Mn139  1  0.83190923  0.00112085  0.33543301  1
  Mn  Mn140  1  0.83275331  -0.00124566  0.66750488  1
  Mn  Mn141  1  0.83476709  0.49980236  -0.00132209  1
  Mn  Mn142  1  0.83452898  0.49964036  0.33442601  1
  Mn  Mn143  1  0.83438702  0.50155794  0.66785273  1
  O  O144  1  0.16756555  0.12154064  0.02674552  1
  O  O145  1  0.16003045  0.12373744  0.34431123  1
  O  O146  1  0.16502223  0.12005574  0.68167768  1
  O  O147  1  0.16923669  0.62615934  0.02390204  1
  O  O148  1  0.16989410  0.62815804  0.35897949  1
  O  O149  1  0.16521972  0.62952392  0.69336776  1
  O  O150  1  0.49420192  0.12206588  0.02568166  1
  O  O151  1  0.50935404  0.11984971  0.35756001  1
  O  O152  1  0.50013963  0.12364379  0.68874171  1
  O  O153  1  0.49342305  0.62841794  0.02040454  1
  O  O154  1  0.49493685  0.62920908  0.35787576  1
  O  O155  1  0.49322632  0.62800445  0.68315288  1
  O  O156  1  0.84262847  0.12062637  0.02392144  1
  O  O157  1  0.82878173  0.12179369  0.36255190  1
  O  O158  1  0.82649741  0.12402936  0.68035480  1
  O  O159  1  0.83119236  0.62881223  0.00369537  1
  O  O160  1  0.84189384  0.62662350  0.35392334  1
  O  O161  1  0.83807977  0.62883723  0.69746264  1
  O  O162  1  0.16244391  0.37712062  0.32249970  1
  O  O163  1  0.15859811  0.38031684  0.65683467  1
  O  O164  1  0.16848835  0.37606937  0.98654077  1
  O  O165  1  0.17082468  0.87216493  0.31098905  1
  O  O166  1  0.17016439  0.87225940  0.64223245  1
  O  O167  1  0.17293779  0.87547499  0.97567305  1
  O  O168  1  0.48780043  0.37646830  0.32528879  1
  O  O169  1  0.50740054  0.37013186  0.64003317  1
  O  O170  1  0.49131835  0.37240296  0.97660071  1
  O  O171  1  0.49581983  0.87484166  0.31827598  1
  O  O172  1  0.49731602  0.87586262  0.64220788  1
  O  O173  1  0.50192216  0.87786245  0.98727176  1
  O  O174  1  0.84076104  0.37142159  0.32500718  1
  O  O175  1  0.83595128  0.37320359  0.65428665  1
  O  O176  1  0.84106650  0.37221881  0.97683858  1
  O  O177  1  0.82899952  0.87955789  0.31103176  1
  O  O178  1  0.83762796  0.87394597  0.64046376  1
  O  O179  1  0.83550430  0.87779791  0.97799225  1
  O  O180  1  0.00167531  0.37087018  0.19197773  1
  O  O181  1  0.00040984  0.38205255  0.52509901  1
  O  O182  1  -0.00361630  0.37611721  0.85481870  1
  O  O183  1  0.00557835  0.87537347  0.18112720  1
  O  O184  1  0.00310555  0.87239879  0.52490035  1
  O  O185  1  0.00986561  0.87547284  0.86378492  1
  O  O186  1  0.33472408  0.38054416  0.19454366  1
  O  O187  1  0.34477590  0.37699119  0.50695566  1
  O  O188  1  0.34141508  0.37173443  0.85662735  1
  O  O189  1  0.32902649  0.87233017  0.19197348  1
  O  O190  1  0.34066622  0.87171764  0.52930821  1
  O  O191  1  0.32738266  0.87512871  0.85881080  1
  O  O192  1  0.66659694  0.36891489  0.17900931  1
  O  O193  1  0.66046268  0.37214286  0.52499302  1
  O  O194  1  0.66334959  0.37170887  0.84375072  1
  O  O195  1  0.67022165  0.87901543  0.18877577  1
  O  O196  1  0.67126947  0.87649473  0.52707388  1
  O  O197  1  0.66988815  0.87946742  0.85603169  1
  O  O198  1  -0.00486651  0.12201244  0.14125164  1
  O  O199  1  -0.00776613  0.11998323  0.48031952  1
  O  O200  1  0.00201212  0.11911137  0.81036910  1
  O  O201  1  0.00740573  0.62910380  0.14892810  1
  O  O202  1  -0.00570796  0.62806073  0.47488814  1
  O  O203  1  -0.01025778  0.62986029  0.81194893  1
  O  O204  1  0.32482416  0.12111900  0.14516819  1
  O  O205  1  0.33753928  0.12230946  0.49070352  1
  O  O206  1  0.33874645  0.12312119  0.80752362  1
  O  O207  1  0.32587422  0.62723243  0.14190132  1
  O  O208  1  0.32502129  0.62970343  0.47301682  1
  O  O209  1  0.32999608  0.63052475  0.81136280  1
  O  O210  1  0.66644506  0.12131110  0.14437752  1
  O  O211  1  0.66208875  0.11966916  0.47279014  1
  O  O212  1  0.66213854  0.12370811  0.80606973  1
  O  O213  1  0.66018593  0.62890016  0.15147476  1
  O  O214  1  0.65775039  0.62863010  0.48934041  1
  O  O215  1  0.67730626  0.62554990  0.82374644  1
  O  O216  1  0.08196960  0.01836662  0.24438010  1
  O  O217  1  0.07893812  0.00892634  0.58943913  1
  O  O218  1  0.08811500  0.02091910  0.91597213  1
  O  O219  1  0.08836865  0.52389258  0.24879670  1
  O  O220  1  0.08462673  0.52937957  0.57884778  1
  O  O221  1  0.08879974  0.52147668  0.90870706  1
  O  O222  1  0.42163663  0.01725208  0.23830749  1
  O  O223  1  0.42255211  0.02015685  0.57820486  1
  O  O224  1  0.41881615  0.02223891  0.91088206  1
  O  O225  1  0.41547336  0.52630818  0.24950373  1
  O  O226  1  0.41198476  0.52375196  0.58423427  1
  O  O227  1  0.41491011  0.51946184  0.91868814  1
  O  O228  1  0.75351812  0.02385385  0.24748761  1
  O  O229  1  0.74949867  0.01971807  0.57538470  1
  O  O230  1  0.74557393  0.01523486  0.92695709  1
  O  O231  1  0.75176952  0.50397287  0.25276918  1
  O  O232  1  0.75368576  0.51456201  0.58254991  1
  O  O233  1  0.75840224  0.50632716  0.90810532  1
  O  O234  1  0.24515562  0.23716547  0.24568577  1
  O  O235  1  0.25401366  0.23921510  0.58569304  1
  O  O236  1  0.25483842  0.23103971  0.91988387  1
  O  O237  1  0.25488316  0.72807522  0.25589274  1
  O  O238  1  0.25432070  0.72825083  0.58736433  1
  O  O239  1  0.25540724  0.72907876  0.92408582  1
  O  O240  1  0.58734612  0.22789440  0.25199362  1
  O  O241  1  0.58203845  0.22124861  0.58076740  1
  O  O242  1  0.57839184  0.22781699  0.91203901  1
  O  O243  1  0.57878670  0.73857553  0.24569849  1
  O  O244  1  0.57723282  0.74352748  0.57786244  1
  O  O245  1  0.58979772  0.74040391  0.91724326  1
  O  O246  1  0.91651885  0.22347722  0.25041771  1
  O  O247  1  0.91377548  0.22936403  0.58418066  1
  O  O248  1  0.92414813  0.23316561  0.92107054  1
  O  O249  1  0.92549415  0.73592340  0.25814370  1
  O  O250  1  0.92252802  0.72830816  0.59351101  1
  O  O251  1  0.92448424  0.74058774  0.92293719  1
  O  O252  1  0.08003483  0.48642966  0.07563217  1
  O  O253  1  0.08003651  0.49243803  0.41050951  1
  O  O254  1  0.07341034  0.49216233  0.74233785  1
  O  O255  1  0.07970015  0.98002143  0.07681201  1
  O  O256  1  0.08253207  0.98448701  0.42260355  1
  O  O257  1  0.07990869  0.97565299  0.74964379  1
  O  O258  1  0.41180070  0.48876144  0.07912307  1
  O  O259  1  0.42258235  0.49266198  0.42169707  1
  O  O260  1  0.42709387  0.48524154  0.75542171  1
  O  O261  1  0.40261907  0.98594037  0.07126361  1
  O  O262  1  0.41084438  0.97806428  0.41598065  1
  O  O263  1  0.40499710  0.98538798  0.73951375  1
  O  O264  1  0.75127721  0.49513603  0.07840247  1
  O  O265  1  0.75311912  0.49764273  0.42063222  1
  O  O266  1  0.75180363  0.47849677  0.74919139  1
  O  O267  1  0.74991261  0.97659035  0.08526186  1
  O  O268  1  0.74116534  0.97534110  0.41120128  1
  O  O269  1  0.74880458  0.97655326  0.74608195  1
  O  O270  1  0.25515609  0.26356502  0.07711641  1
  O  O271  1  0.25687352  0.26393053  0.41010500  1
  O  O272  1  0.25606372  0.25277487  0.74903521  1
  O  O273  1  0.24077939  0.77211243  0.09293425  1
  O  O274  1  0.24688416  0.77717937  0.42408466  1
  O  O275  1  0.24276392  0.77132825  0.75668891  1
  O  O276  1  0.58227157  0.24904385  0.08019520  1
  O  O277  1  0.58132158  0.26856879  0.41930029  1
  O  O278  1  0.59047017  0.26632430  0.74061139  1
  O  O279  1  0.58488264  0.76377911  0.07874551  1
  O  O280  1  0.58062607  0.77191213  0.41680048  1
  O  O281  1  0.58467572  0.76566146  0.74515556  1
  O  O282  1  0.92272046  0.26377061  0.08049396  1
  O  O283  1  0.92350027  0.25903960  0.41098776  1
  O  O284  1  0.91887882  0.26708917  0.74989092  1
  O  O285  1  0.91020282  0.77198785  0.08872491  1
  O  O286  1  0.90457935  0.76554357  0.43232023  1
  O  O287  1  0.91205450  0.77754642  0.76020735  1
  O  O288  1  0.25547588  0.48626606  0.07818886  1
  O  O289  1  0.26156774  0.48778002  0.40567224  1
  O  O290  1  0.25468585  0.49829810  0.74971534  1
  O  O291  1  0.24315449  0.97474569  0.08730559  1
  O  O292  1  0.24881615  0.97487106  0.42410431  1
  O  O293  1  0.24308809  0.97846005  0.75684647  1
  O  O294  1  0.57971972  0.49795282  0.08001874  1
  O  O295  1  0.58465326  0.48266038  0.41568403  1
  O  O296  1  0.58894881  0.48124898  0.74332011  1
  O  O297  1  0.58810995  0.99042259  0.07629912  1
  O  O298  1  0.58195500  0.97147417  0.42064272  1
  O  O299  1  0.58482302  0.98467659  0.74010817  1
  O  O300  1  0.92161535  0.48673356  0.07652833  1
  O  O301  1  0.92264070  0.48861441  0.41504887  1
  O  O302  1  0.91684719  0.47886734  0.75092866  1
  O  O303  1  0.91001930  0.97613102  0.09223780  1
  O  O304  1  0.90340980  0.98391619  0.43153679  1
  O  O305  1  0.91580066  0.97506048  0.75958515  1
  O  O306  1  0.08053555  0.25839717  0.07879845  1
  O  O307  1  0.07929941  0.26164171  0.41044098  1
  O  O308  1  0.07776639  0.26028137  0.74694679  1
  O  O309  1  0.07905317  0.77212605  0.07724764  1
  O  O310  1  0.08544504  0.76353395  0.42186532  1
  O  O311  1  0.07386959  0.77155805  0.74511259  1
  O  O312  1  0.41090372  0.26326153  0.07569597  1
  O  O313  1  0.42136564  0.25949826  0.42045319  1
  O  O314  1  0.43039526  0.26296423  0.75813202  1
  O  O315  1  0.40255475  0.76325996  0.07420114  1
  O  O316  1  0.40867440  0.77080315  0.41236399  1
  O  O317  1  0.40425819  0.76542766  0.73717371  1
  O  O318  1  0.75402155  0.24836285  0.08571588  1
  O  O319  1  0.74487342  0.25677818  0.41405918  1
  O  O320  1  0.75371478  0.27066248  0.75164820  1
  O  O321  1  0.74605075  0.77373047  0.07732266  1
  O  O322  1  0.74337683  0.77161983  0.41269381  1
  O  O323  1  0.74658062  0.77633936  0.74414147  1
  O  O324  1  0.24753653  0.00878045  0.24692033  1
  O  O325  1  0.25985059  0.00922623  0.59500251  1
  O  O326  1  0.25651069  0.01948431  0.92612496  1
  O  O327  1  0.24926192  0.52587892  0.24763135  1
  O  O328  1  0.24888737  0.52365420  0.57924947  1
  O  O329  1  0.25286134  0.52041522  0.91825742  1
  O  O330  1  0.58876353  0.02041356  0.25023995  1
  O  O331  1  0.58512694  0.02091104  0.58039606  1
  O  O332  1  0.58008106  0.02553448  0.91581411  1
  O  O333  1  0.57684777  0.51315189  0.24639078  1
  O  O334  1  0.57371582  0.51180327  0.57461433  1
  O  O335  1  0.58116574  0.50975796  0.91010602  1
  O  O336  1  0.91767485  0.02467652  0.25827779  1
  O  O337  1  0.91939825  0.02044681  0.59117602  1
  O  O338  1  0.92690292  0.01135387  0.92972366  1
  O  O339  1  0.92581850  0.51141432  0.25654522  1
  O  O340  1  0.91781149  0.52636166  0.58581947  1
  O  O341  1  0.91782033  0.51551355  0.91288933  1
  O  O342  1  0.08047919  0.22735500  0.24808669  1
  O  O343  1  0.07568187  0.23848598  0.58804990  1
  O  O344  1  0.08483485  0.23159265  0.91873339  1
  O  O345  1  0.08989670  0.73078471  0.24768599  1
  O  O346  1  0.08664795  0.72886340  0.58083960  1
  O  O347  1  0.09343024  0.73114624  0.90494745  1
  O  O348  1  0.42409513  0.23090865  0.24494219  1
  O  O349  1  0.41788365  0.22797216  0.58777210  1
  O  O350  1  0.41639645  0.22248659  0.91684022  1
  O  O351  1  0.41637729  0.72497664  0.24406598  1
  O  O352  1  0.41740946  0.72468776  0.57402594  1
  O  O353  1  0.41801603  0.73315830  0.91300450  1
  O  O354  1  0.75279422  0.22627384  0.25103486  1
  O  O355  1  0.74535791  0.22884394  0.58405491  1
  O  O356  1  0.74429095  0.23080115  0.92198385  1
  O  O357  1  0.75215163  0.74733550  0.24533342  1
  O  O358  1  0.76009071  0.73519293  0.57252430  1
  O  O359  1  0.76124529  0.74480808  0.90588505  1
