# generated using pymatgen
data_Ba17Sr5La8Pr42Mn72O216
_symmetry_space_group_name_H-M   'P 1'
_cell_length_a   16.68615581
_cell_length_b   15.71188609
_cell_length_c   16.82106599
_cell_angle_alpha   90.00485281
_cell_angle_beta   89.99430567
_cell_angle_gamma   89.99423009
_symmetry_Int_Tables_number   1
_chemical_formula_structural   Ba17Sr5La8Pr42Mn72O216
_chemical_formula_sum   'Ba17 Sr5 La8 Pr42 Mn72 O216'
_cell_volume   4409.99528246
_cell_formula_units_Z   1
loop_
 _symmetry_equiv_pos_site_id
 _symmetry_equiv_pos_as_xyz
  1  'x, y, z'
loop_
 _atom_site_type_symbol
 _atom_site_label
 _atom_site_symmetry_multiplicity
 _atom_site_fract_x
 _atom_site_fract_y
 _atom_site_fract_z
 _atom_site_occupancy
  Ba  Ba0  1  0.50071314  0.12496700  0.17041905  1
  Ba  Ba1  1  0.83186847  0.37310826  0.50157382  1
  Ba  Ba2  1  0.00277823  0.62542047  0.66317734  1
  Ba  Ba3  1  0.49871757  0.37377832  0.83441664  1
  Ba  Ba4  1  0.16477494  0.37614300  0.83333357  1
  Ba  Ba5  1  0.83198561  0.37316634  0.83534881  1
  Ba  Ba6  1  0.66283607  0.87558420  0.66881472  1
  Ba  Ba7  1  0.83514392  0.62369617  0.50367989  1
  Ba  Ba8  1  0.83655873  0.12538347  0.16837779  1
  Ba  Ba9  1  0.00299185  0.12522790  0.33010224  1
  Ba  Ba10  1  0.32899853  0.87344410  -0.00088809  1
  Ba  Ba11  1  0.83619277  0.62513389  0.16896238  1
  Ba  Ba12  1  0.33428035  0.62433651  0.99898628  1
  Ba  Ba13  1  0.49618744  0.87624060  0.83236236  1
  Ba  Ba14  1  0.66662336  0.62622295  0.66864651  1
  Ba  Ba15  1  0.33810012  0.12642256  0.33244154  1
  Ba  Ba16  1  0.66891795  0.12574117  1.00446924  1
  Sr  Sr17  1  0.32994332  0.37413270  0.33144425  1
  Sr  Sr18  1  0.32773153  0.37629759  0.00145160  1
  Sr  Sr19  1  0.66192818  0.37443145  0.00273847  1
  Sr  Sr20  1  0.00535963  0.12498739  0.99903366  1
  Sr  Sr21  1  0.83880668  0.12382179  0.49923950  1
  La  La22  1  0.50628121  0.12592729  0.49715040  1
  La  La23  1  0.49361915  0.87548104  0.16470793  1
  La  La24  1  -0.00794561  0.37644722  0.66745366  1
  La  La25  1  0.16074123  0.87699088  0.16282787  1
  La  La26  1  0.50326568  0.62390522  0.16536256  1
  La  La27  1  0.82594174  0.87796289  0.16805698  1
  La  La28  1  -0.00464711  0.37496227  0.33014187  1
  La  La29  1  0.49742936  0.37761196  0.49948814  1
  Pr  Pr30  1  0.16113907  0.37479829  0.49595645  1
  Pr  Pr31  1  0.67383288  0.12567858  0.66911936  1
  Pr  Pr32  1  0.50798636  0.12306399  0.83843372  1
  Pr  Pr33  1  0.17439305  0.62471782  0.50212643  1
  Pr  Pr34  1  0.49055582  0.37314474  0.15956176  1
  Pr  Pr35  1  -0.00909422  0.37495491  0.00128405  1
  Pr  Pr36  1  0.67073349  0.62318204  0.99536036  1
  Pr  Pr37  1  0.32793567  0.87701432  0.33456169  1
  Pr  Pr38  1  -0.00941088  0.87560736  0.00074877  1
  Pr  Pr39  1  0.67430728  0.62346910  0.33457647  1
  Pr  Pr40  1  0.17595200  0.12569183  0.83406991  1
  Pr  Pr41  1  0.50810510  0.62627867  0.83741573  1
  Pr  Pr42  1  0.17872028  0.12496766  0.50035783  1
  Pr  Pr43  1  0.33789728  0.62195695  0.66729701  1
  Pr  Pr44  1  0.17249256  0.12517081  0.16730673  1
  Pr  Pr45  1  0.67447788  0.12748669  0.32703286  1
  Pr  Pr46  1  0.66870129  0.37718485  0.67284265  1
  Pr  Pr47  1  -0.01183809  0.87594155  0.66743100  1
  Pr  Pr48  1  -0.01136657  0.87546328  0.33407046  1
  Pr  Pr49  1  0.00550063  0.13015487  0.66242631  1
  Pr  Pr50  1  0.33934883  0.12644265  0.99963725  1
  Pr  Pr51  1  0.16071702  0.87319696  0.83045288  1
  Pr  Pr52  1  0.84385538  0.12321198  0.84133354  1
  Pr  Pr53  1  0.82441406  0.87237451  0.50064471  1
  Pr  Pr54  1  0.66517888  0.37469919  0.33375985  1
  Pr  Pr55  1  0.17442246  0.62426781  0.83313307  1
  Pr  Pr56  1  0.15758596  0.87566596  0.49606038  1
  Pr  Pr57  1  0.34414370  0.12786500  0.66406840  1
  Pr  Pr58  1  0.16155874  0.37275604  0.15857644  1
  Pr  Pr59  1  0.83619326  0.62667394  0.83696784  1
  Pr  Pr60  1  0.17518260  0.62544362  0.16539477  1
  Pr  Pr61  1  0.00840350  0.62340393  0.33151302  1
  Pr  Pr62  1  0.82479481  0.87769209  0.83385096  1
  Pr  Pr63  1  0.00377104  0.62522164  0.99290556  1
  Pr  Pr64  1  0.34313114  0.62326017  0.32946878  1
  Pr  Pr65  1  0.32611046  0.87712850  0.67327223  1
  Pr  Pr66  1  0.32700442  0.37366329  0.67103200  1
  Pr  Pr67  1  0.82482882  0.37181106  0.16411865  1
  Pr  Pr68  1  0.50477743  0.62438116  0.50309401  1
  Pr  Pr69  1  0.66245493  0.87641023  0.33854347  1
  Pr  Pr70  1  0.65794575  0.87515009  0.00427512  1
  Pr  Pr71  1  0.49543090  0.87167661  0.50110645  1
  Mn  Mn72  1  0.00088989  -0.00140122  0.16497467  1
  Mn  Mn73  1  0.00151464  0.00117296  0.50094000  1
  Mn  Mn74  1  0.00248167  -0.00147884  0.83178879  1
  Mn  Mn75  1  0.00203748  0.50236837  0.16502122  1
  Mn  Mn76  1  0.00227870  0.49898962  0.49723025  1
  Mn  Mn77  1  -0.00067370  0.50092021  0.83209378  1
  Mn  Mn78  1  0.33120126  -0.00167144  0.16696781  1
  Mn  Mn79  1  0.33535122  -0.00197760  0.50303065  1
  Mn  Mn80  1  0.33085741  0.00187966  0.83193619  1
  Mn  Mn81  1  0.33162585  0.50053462  0.16754527  1
  Mn  Mn82  1  0.33306754  0.49993696  0.49819632  1
  Mn  Mn83  1  0.33440097  0.49885612  0.83218804  1
  Mn  Mn84  1  0.66516136  -0.00285805  0.17158100  1
  Mn  Mn85  1  0.66632356  0.00253997  0.50086241  1
  Mn  Mn86  1  0.66736733  0.00136640  0.83517617  1
  Mn  Mn87  1  0.66475270  0.50162631  0.16773601  1
  Mn  Mn88  1  0.66509169  0.49716004  0.50162471  1
  Mn  Mn89  1  0.66769335  0.49857457  0.83505872  1
  Mn  Mn90  1  0.00122218  0.25072662  0.16464339  1
  Mn  Mn91  1  0.00315296  0.24814119  0.49815972  1
  Mn  Mn92  1  0.00234433  0.24879343  0.83166594  1
  Mn  Mn93  1  0.00183965  0.74924439  0.16573986  1
  Mn  Mn94  1  0.00125004  0.75267034  0.49856770  1
  Mn  Mn95  1  -0.00077323  0.75136741  0.83221796  1
  Mn  Mn96  1  0.33081500  0.25206672  0.16583284  1
  Mn  Mn97  1  0.33496879  0.25195344  0.50009900  1
  Mn  Mn98  1  0.33337972  0.24974435  0.83226395  1
  Mn  Mn99  1  0.33215494  0.74842101  0.16900739  1
  Mn  Mn100  1  0.33328640  0.75033049  0.50054270  1
  Mn  Mn101  1  0.33157339  0.75034393  0.83097183  1
  Mn  Mn102  1  0.66481535  0.25198974  0.16923002  1
  Mn  Mn103  1  0.66617239  0.24794017  0.50135290  1
  Mn  Mn104  1  0.66758563  0.24948952  0.83384123  1
  Mn  Mn105  1  0.66484986  0.74865519  0.16904066  1
  Mn  Mn106  1  0.66470942  0.75154413  0.50058496  1
  Mn  Mn107  1  0.66721419  0.75003131  0.83642511  1
  Mn  Mn108  1  0.16502586  0.24875892  -0.00147733  1
  Mn  Mn109  1  0.16792194  0.25222200  0.33048222  1
  Mn  Mn110  1  0.16754067  0.24920819  0.66462620  1
  Mn  Mn111  1  0.16259991  0.75061642  -0.00240278  1
  Mn  Mn112  1  0.16718448  0.74989331  0.33313684  1
  Mn  Mn113  1  0.16710141  0.75153456  0.66350698  1
  Mn  Mn114  1  0.49826220  0.25031494  -0.00019293  1
  Mn  Mn115  1  0.50113910  0.25462486  0.33381318  1
  Mn  Mn116  1  0.50186575  0.24939793  0.66552505  1
  Mn  Mn117  1  0.50052278  0.74956917  0.00199489  1
  Mn  Mn118  1  0.50125647  0.74854118  0.33364128  1
  Mn  Mn119  1  0.49592186  0.74935325  0.66665440  1
  Mn  Mn120  1  0.83417752  0.24888044  0.00042614  1
  Mn  Mn121  1  0.83404415  0.25212664  0.33382946  1
  Mn  Mn122  1  0.83400683  0.24693609  0.66781297  1
  Mn  Mn123  1  0.83284901  0.75117570  0.00291232  1
  Mn  Mn124  1  0.83396355  0.74886780  0.33451657  1
  Mn  Mn125  1  0.83315670  0.75195173  0.66851240  1
  Mn  Mn126  1  0.16430563  0.00073534  -0.00248787  1
  Mn  Mn127  1  0.16681341  -0.00193114  0.33137602  1
  Mn  Mn128  1  0.16605244  0.00035830  0.66556168  1
  Mn  Mn129  1  0.16379925  0.50050406  -0.00160511  1
  Mn  Mn130  1  0.16794632  0.50018349  0.33179906  1
  Mn  Mn131  1  0.16783246  0.50049013  0.66339134  1
  Mn  Mn132  1  0.49833444  0.00008280  0.00121025  1
  Mn  Mn133  1  0.50089607  -0.00387880  0.33533374  1
  Mn  Mn134  1  0.49932591  0.00288880  0.66636686  1
  Mn  Mn135  1  0.49967231  0.49922027  0.00127645  1
  Mn  Mn136  1  0.50193641  0.50012231  0.33269998  1
  Mn  Mn137  1  0.49874011  0.49888708  0.66571769  1
  Mn  Mn138  1  0.83407462  -0.00054090  0.00050698  1
  Mn  Mn139  1  0.83308266  -0.00173230  0.33535152  1
  Mn  Mn140  1  0.83454053  0.00246019  0.66849479  1
  Mn  Mn141  1  0.83307772  0.49996990  0.00348029  1
  Mn  Mn142  1  0.83465687  0.50096145  0.33339832  1
  Mn  Mn143  1  0.83283602  0.49966272  0.66867966  1
  O  O144  1  0.16469163  0.12378926  0.02343846  1
  O  O145  1  0.16761490  0.12053749  0.35605815  1
  O  O146  1  0.15596893  0.12244176  0.69033568  1
  O  O147  1  0.15616637  0.62635402  0.02083289  1
  O  O148  1  0.15816791  0.62646770  0.36066012  1
  O  O149  1  0.16980013  0.62816732  0.68820656  1
  O  O150  1  0.49315081  0.12423518  0.01101861  1
  O  O151  1  0.50459456  0.12359811  0.35375954  1
  O  O152  1  0.49237022  0.12687126  0.69253814  1
  O  O153  1  0.51017752  0.62499638  0.01950296  1
  O  O154  1  0.49360584  0.62535036  0.36192356  1
  O  O155  1  0.49127997  0.62228342  0.69110043  1
  O  O156  1  0.83934121  0.12292691  0.01126237  1
  O  O157  1  0.82576771  0.12305007  0.34675245  1
  O  O158  1  0.83605539  0.12332568  0.69388433  1
  O  O159  1  0.83513947  0.62670933  0.01425478  1
  O  O160  1  0.83020749  0.62623830  0.34670489  1
  O  O161  1  0.83565761  0.62931433  0.68831028  1
  O  O162  1  0.16766965  0.38162984  0.30432432  1
  O  O163  1  0.17631145  0.37373770  0.63983513  1
  O  O164  1  0.16520804  0.37493141  0.99003303  1
  O  O165  1  0.17737669  0.87184220  0.30769214  1
  O  O166  1  0.17720882  0.87627796  0.63909280  1
  O  O167  1  0.15978299  0.87541585  0.97438166  1
  O  O168  1  0.51251755  0.38231647  0.30514842  1
  O  O169  1  0.50298328  0.37326425  0.64294002  1
  O  O170  1  0.49784308  0.37594573  0.99373058  1
  O  O171  1  0.51081029  0.86818816  0.30815566  1
  O  O172  1  0.49087145  0.87778255  0.64599752  1
  O  O173  1  0.50437250  0.87390497  0.99162623  1
  O  O174  1  0.83463887  0.38053626  0.31273197  1
  O  O175  1  0.83003722  0.36951742  0.65935092  1
  O  O176  1  0.83683959  0.37534494  0.99122742  1
  O  O177  1  0.83537419  0.87018239  0.31450171  1
  O  O178  1  0.83590856  0.87991996  0.64623043  1
  O  O179  1  0.83385786  0.87425972  0.97708065  1
  O  O180  1  0.01366905  0.38002894  0.18653885  1
  O  O181  1  0.01192058  0.36945854  0.52174238  1
  O  O182  1  0.00211941  0.37699672  0.85594887  1
  O  O183  1  0.00993750  0.87087966  0.18971295  1
  O  O184  1  0.00938323  0.87859386  0.52351429  1
  O  O185  1  0.01143239  0.87432188  0.85808951  1
  O  O186  1  0.33013695  0.37879634  0.18004085  1
  O  O187  1  0.33633934  0.37539014  0.52806694  1
  O  O188  1  0.33282806  0.37203510  0.84888675  1
  O  O189  1  0.33135167  0.86912349  0.18805519  1
  O  O190  1  0.34259543  0.87274274  0.53077192  1
  O  O191  1  0.32722374  0.87700205  0.84168816  1
  O  O192  1  0.66550109  0.37928052  0.18953291  1
  O  O193  1  0.65885114  0.36720392  0.52928520  1
  O  O194  1  0.66757373  0.37374399  0.84909647  1
  O  O195  1  0.66178635  0.87057368  0.19367471  1
  O  O196  1  0.66858267  0.87867589  0.51346065  1
  O  O197  1  0.67419550  0.87454742  0.85745419  1
  O  O198  1  0.00465464  0.12361621  0.14951646  1
  O  O199  1  0.00164125  0.12227023  0.48701671  1
  O  O200  1  -0.00552973  0.11900375  0.80631205  1
  O  O201  1  0.00341330  0.62673808  0.13738716  1
  O  O202  1  0.00716233  0.63050263  0.47618512  1
  O  O203  1  -0.01517632  0.62817303  0.82012363  1
  O  O204  1  0.32520650  0.12583513  0.14698623  1
  O  O205  1  0.33038373  0.12432441  0.48700906  1
  O  O206  1  0.32513281  0.12494944  0.80749207  1
  O  O207  1  0.33086072  0.62521167  0.15619806  1
  O  O208  1  0.32716138  0.62740036  0.47018821  1
  O  O209  1  0.32649469  0.62571919  0.81180042  1
  O  O210  1  0.66786150  0.12292352  0.16529199  1
  O  O211  1  0.65973192  0.12409031  0.47079227  1
  O  O212  1  0.65993414  0.12585662  0.81568111  1
  O  O213  1  0.66250993  0.62649765  0.13972307  1
  O  O214  1  0.65726527  0.62844145  0.47886863  1
  O  O215  1  0.66135760  0.62509868  0.82806089  1
  O  O216  1  0.09411905  0.01039354  0.23387808  1
  O  O217  1  0.09866466  0.01812021  0.57162595  1
  O  O218  1  0.09609830  0.01826839  0.89970853  1
  O  O219  1  0.09160631  0.52638262  0.24124504  1
  O  O220  1  0.09707808  0.51317588  0.56880680  1
  O  O221  1  0.08580325  0.52561454  0.90823399  1
  O  O222  1  0.42238586  -0.00293186  0.25063607  1
  O  O223  1  0.42600510  0.02291944  0.57533285  1
  O  O224  1  0.41747701  0.02101712  0.90737057  1
  O  O225  1  0.42374041  0.51899380  0.24786749  1
  O  O226  1  0.41795983  0.52309710  0.57575101  1
  O  O227  1  0.42551598  0.51773518  0.90746079  1
  O  O228  1  0.75283545  0.00230490  0.25092562  1
  O  O229  1  0.75383649  0.02069206  0.58082249  1
  O  O230  1  0.76236344  0.01332035  0.90920122  1
  O  O231  1  0.74732522  0.51279641  0.25167924  1
  O  O232  1  0.74632633  0.50365963  0.58613979  1
  O  O233  1  0.75521431  0.52088777  0.91676619  1
  O  O234  1  0.25084274  0.23709793  0.24995852  1
  O  O235  1  0.25643528  0.22789544  0.59034456  1
  O  O236  1  0.25457714  0.22781735  0.92275457  1
  O  O237  1  0.25623357  0.72656547  0.26321182  1
  O  O238  1  0.25787375  0.72678944  0.58898048  1
  O  O239  1  0.24586747  0.73681184  0.91290199  1
  O  O240  1  0.59468226  0.23931906  0.26496485  1
  O  O241  1  0.58742968  0.22049790  0.58659622  1
  O  O242  1  0.58224352  0.23663035  0.91440761  1
  O  O243  1  0.58575021  0.72034504  0.25542809  1
  O  O244  1  0.57694932  0.74092745  0.57833915  1
  O  O245  1  0.59214356  0.73678003  0.92811842  1
  O  O246  1  0.92259634  0.25208711  0.25025845  1
  O  O247  1  0.92537256  0.23623021  0.59050305  1
  O  O248  1  0.92409512  0.23466300  0.91823556  1
  O  O249  1  0.93255712  0.73617934  0.26064583  1
  O  O250  1  0.92285870  0.75005249  0.58707409  1
  O  O251  1  0.92165429  0.73845878  0.92584696  1
  O  O252  1  0.07251549  0.48263052  0.07201186  1
  O  O253  1  0.08005029  0.47870395  0.40603925  1
  O  O254  1  0.07938732  0.48495392  0.73721215  1
  O  O255  1  0.07297104  0.97982829  0.07062711  1
  O  O256  1  0.07980459  0.97459755  0.40518298  1
  O  O257  1  0.07472546  0.97570996  0.73677041  1
  O  O258  1  0.41325042  0.48807118  0.08337466  1
  O  O259  1  0.41455245  0.48131504  0.41292246  1
  O  O260  1  0.40868009  0.48353013  0.73622781  1
  O  O261  1  0.41009685  0.98984604  0.08271472  1
  O  O262  1  0.41435703  0.97302712  0.41319045  1
  O  O263  1  0.40083935  0.99128065  0.73644151  1
  O  O264  1  0.74581460  0.48355048  0.08378555  1
  O  O265  1  0.74063580  0.48799568  0.41280631  1
  O  O266  1  0.74602676  0.49061686  0.74995419  1
  O  O267  1  0.74255790  0.97603515  0.08304726  1
  O  O268  1  0.74563742  0.98022724  0.41381791  1
  O  O269  1  0.74850153  0.99075363  0.75080589  1
  O  O270  1  0.23844133  0.26227207  0.08960215  1
  O  O271  1  0.24549064  0.26727562  0.42677071  1
  O  O272  1  0.24710747  0.26059993  0.74977340  1
  O  O273  1  0.23585319  0.76032942  0.09278068  1
  O  O274  1  0.24518792  0.77476167  0.42618046  1
  O  O275  1  0.24012975  0.76973439  0.75178156  1
  O  O276  1  0.57703206  0.26587567  0.09436754  1
  O  O277  1  0.57662989  0.27238861  0.42475318  1
  O  O278  1  0.58411537  0.26178923  0.74488224  1
  O  O279  1  0.58058449  0.76973097  0.09143561  1
  O  O280  1  0.57885387  0.77102136  0.41844342  1
  O  O281  1  0.57655225  0.75400740  0.75742946  1
  O  O282  1  0.91403270  0.27274158  0.08897849  1
  O  O283  1  0.91821904  0.26206028  0.41555368  1
  O  O284  1  0.91899642  0.25986071  0.75089886  1
  O  O285  1  0.90992916  0.77521146  0.09132636  1
  O  O286  1  0.91338000  0.77483553  0.42475467  1
  O  O287  1  0.91259580  0.77637379  0.75767920  1
  O  O288  1  0.23646947  0.49197953  0.09287976  1
  O  O289  1  0.24241584  0.48223364  0.42463286  1
  O  O290  1  0.25011739  0.48870015  0.74446171  1
  O  O291  1  0.23526933  0.98529090  0.09009137  1
  O  O292  1  0.24737082  0.97736746  0.42711870  1
  O  O293  1  0.23566649  0.98349591  0.75924357  1
  O  O294  1  0.57461099  0.48544938  0.09495143  1
  O  O295  1  0.58049905  0.47868056  0.41794368  1
  O  O296  1  0.58346834  0.48697653  0.74690865  1
  O  O297  1  0.57973205  0.97992741  0.09344689  1
  O  O298  1  0.57452902  0.97735706  0.42558099  1
  O  O299  1  0.57601988  0.99673059  0.75278754  1
  O  O300  1  0.91255169  0.47730127  0.09275242  1
  O  O301  1  0.92090950  0.48827578  0.41475240  1
  O  O302  1  0.91737204  0.48675519  0.75173654  1
  O  O303  1  0.91093758  0.97473989  0.08923885  1
  O  O304  1  0.90944419  0.97823506  0.42474083  1
  O  O305  1  0.91151865  0.97461617  0.76111971  1
  O  O306  1  0.07433382  0.26888801  0.07271182  1
  O  O307  1  0.08305246  0.27275164  0.40760326  1
  O  O308  1  0.07530905  0.26495039  0.73380952  1
  O  O309  1  0.07233818  0.77074888  0.07236814  1
  O  O310  1  0.07709236  0.77486531  0.40441893  1
  O  O311  1  0.07858403  0.77348847  0.73938410  1
  O  O312  1  0.40711930  0.26283147  0.07884415  1
  O  O313  1  0.41682955  0.27133873  0.41487418  1
  O  O314  1  0.40784886  0.26354143  0.73715729  1
  O  O315  1  0.41953500  0.75887003  0.08611259  1
  O  O316  1  0.41195339  0.77448211  0.41198770  1
  O  O317  1  0.40166436  0.76128434  0.73645352  1
  O  O318  1  0.74590475  0.26668328  0.08599250  1
  O  O319  1  0.73913506  0.26483236  0.41005690  1
  O  O320  1  0.74037114  0.25698672  0.74064927  1
  O  O321  1  0.74400215  0.77323634  0.08088026  1
  O  O322  1  0.74457605  0.76809131  0.41610770  1
  O  O323  1  0.75297550  0.76255332  0.75878631  1
  O  O324  1  0.25297977  0.01077589  0.25316558  1
  O  O325  1  0.25898300  0.02086814  0.59653017  1
  O  O326  1  0.25575451  0.02401020  0.92333860  1
  O  O327  1  0.25569097  0.52460357  0.25960598  1
  O  O328  1  0.25599835  0.52333847  0.58551060  1
  O  O329  1  0.24633657  0.51442005  0.91576610  1
  O  O330  1  0.59464287  0.01012976  0.26668474  1
  O  O331  1  0.58806532  0.02426819  0.58785918  1
  O  O332  1  0.58690364  0.00895496  0.92015303  1
  O  O333  1  0.58754620  0.52954082  0.25654090  1
  O  O334  1  0.57611269  0.51418374  0.57835221  1
  O  O335  1  0.58859612  0.51571045  0.92306260  1
  O  O336  1  0.92207795  -0.00101755  0.25542438  1
  O  O337  1  0.92898008  0.01466608  0.59846906  1
  O  O338  1  0.92849221  0.01078805  0.91958037  1
  O  O339  1  0.93129342  0.51457351  0.25655659  1
  O  O340  1  0.92271007  0.50087319  0.58626869  1
  O  O341  1  0.92197563  0.51476088  0.92662240  1
  O  O342  1  0.09339849  0.23798774  0.23460215  1
  O  O343  1  0.09531353  0.22894190  0.57220897  1
  O  O344  1  0.09160759  0.22765712  0.90509099  1
  O  O345  1  0.09282566  0.72753639  0.23943940  1
  O  O346  1  0.09794590  0.73918448  0.56756354  1
  O  O347  1  0.08661546  0.72572970  0.90571213  1
  O  O348  1  0.42254834  0.25173274  0.24525594  1
  O  O349  1  0.42425889  0.23097941  0.57633664  1
  O  O350  1  0.41706729  0.22634721  0.90860543  1
  O  O351  1  0.42328179  0.73000391  0.25078604  1
  O  O352  1  0.41919839  0.72328043  0.57415085  1
  O  O353  1  0.42582129  0.73319521  0.90725112  1
  O  O354  1  0.75216222  0.24737240  0.25005533  1
  O  O355  1  0.75171570  0.22517569  0.58091112  1
  O  O356  1  0.75782756  0.23134842  0.90826402  1
  O  O357  1  0.74623064  0.73684748  0.25147022  1
  O  O358  1  0.75236812  0.74653365  0.58124678  1
  O  O359  1  0.75538311  0.72961025  0.91728874  1
