# generated using pymatgen
data_Ba17Sr5La8Pr42Mn72O216
_symmetry_space_group_name_H-M   'P 1'
_cell_length_a   16.67261194
_cell_length_b   15.70934493
_cell_length_c   16.82169224
_cell_angle_alpha   89.97971395
_cell_angle_beta   89.92046786
_cell_angle_gamma   90.02058280
_symmetry_Int_Tables_number   1
_chemical_formula_structural   Ba17Sr5La8Pr42Mn72O216
_chemical_formula_sum   'Ba17 Sr5 La8 Pr42 Mn72 O216'
_cell_volume   4405.86237125
_cell_formula_units_Z   1
loop_
 _symmetry_equiv_pos_site_id
 _symmetry_equiv_pos_as_xyz
  1  'x, y, z'
loop_
 _atom_site_type_symbol
 _atom_site_label
 _atom_site_symmetry_multiplicity
 _atom_site_fract_x
 _atom_site_fract_y
 _atom_site_fract_z
 _atom_site_occupancy
  Ba  Ba0  1  0.33561955  0.62744808  0.33292862  1
  Ba  Ba1  1  0.66963308  0.37525140  0.33379506  1
  Ba  Ba2  1  0.33795099  0.87528951  0.33379830  1
  Ba  Ba3  1  0.50070379  0.12568891  0.50374630  1
  Ba  Ba4  1  0.83250510  0.37693445  0.83222180  1
  Ba  Ba5  1  0.83111261  0.12249094  0.16298804  1
  Ba  Ba6  1  0.66868389  0.87319394  0.66776904  1
  Ba  Ba7  1  0.16644571  0.62690469  0.50042520  1
  Ba  Ba8  1  0.50031176  0.62469664  0.16819290  1
  Ba  Ba9  1  0.00085317  0.37339436  0.33328780  1
  Ba  Ba10  1  0.66558524  0.12151538  0.66768655  1
  Ba  Ba11  1  0.16811789  0.37446930  0.16563718  1
  Ba  Ba12  1  0.83455154  0.62675764  0.16510053  1
  Ba  Ba13  1  0.33288238  0.37582208  0.66778040  1
  Ba  Ba14  1  0.00045148  0.87663815  0.33347239  1
  Ba  Ba15  1  0.66443890  0.37461003  -0.00020691  1
  Ba  Ba16  1  -0.00233407  0.37374867  0.66591943  1
  Sr  Sr17  1  0.33272554  0.37487885  0.00165745  1
  Sr  Sr18  1  -0.00411538  0.12567389  0.66848720  1
  Sr  Sr19  1  -0.00302033  0.12545751  0.99683716  1
  Sr  Sr20  1  0.66704803  0.62724413  0.66667362  1
  Sr  Sr21  1  0.83525977  0.37502715  0.49887964  1
  La  La22  1  0.83118398  0.12898700  0.83363276  1
  La  La23  1  0.66707379  0.37361508  0.66965205  1
  La  La24  1  0.67006036  0.87401584  0.33342282  1
  La  La25  1  0.16210624  0.12496513  0.16593306  1
  La  La26  1  -0.00065828  0.37197419  0.00290306  1
  La  La27  1  0.17142712  0.87645294  0.49593897  1
  La  La28  1  0.32576626  0.12592182  0.99831920  1
  La  La29  1  0.00087051  0.62357023  0.33026080  1
  Pr  Pr30  1  0.50233378  0.37619390  0.83026933  1
  Pr  Pr31  1  0.33637558  0.87406789  0.66594475  1
  Pr  Pr32  1  0.00181704  0.62414210  0.99878519  1
  Pr  Pr33  1  0.84121218  0.87400790  0.16347179  1
  Pr  Pr34  1  0.82767704  0.62319842  0.83452913  1
  Pr  Pr35  1  0.66965724  0.62432890  0.32897257  1
  Pr  Pr36  1  0.84339749  0.87466977  0.82932090  1
  Pr  Pr37  1  0.66498479  0.62246891  0.99498980  1
  Pr  Pr38  1  0.50917134  0.87584556  0.49921033  1
  Pr  Pr39  1  0.16525337  0.62245694  0.83159170  1
  Pr  Pr40  1  0.49934697  0.12925386  0.17132237  1
  Pr  Pr41  1  0.16812822  0.62458063  0.17273420  1
  Pr  Pr42  1  0.16600686  0.37187797  0.83018644  1
  Pr  Pr43  1  0.33944072  0.87638881  0.00447638  1
  Pr  Pr44  1  0.15997563  0.12226168  0.50006813  1
  Pr  Pr45  1  0.50291552  0.87330989  0.83010562  1
  Pr  Pr46  1  0.16907899  0.37432632  0.49382856  1
  Pr  Pr47  1  0.50565982  0.87150507  0.16675535  1
  Pr  Pr48  1  0.49163617  0.12670507  0.83351186  1
  Pr  Pr49  1  0.00553438  0.87792880  0.00542369  1
  Pr  Pr50  1  0.67267048  0.87191071  0.00240279  1
  Pr  Pr51  1  0.83332866  0.12803688  0.50046634  1
  Pr  Pr52  1  -0.00377192  0.12587973  0.33019958  1
  Pr  Pr53  1  0.00672916  0.87503469  0.66713961  1
  Pr  Pr54  1  -0.00469963  0.62281286  0.66345628  1
  Pr  Pr55  1  0.66688836  0.12468303  0.33349701  1
  Pr  Pr56  1  0.50042007  0.62511455  0.50110825  1
  Pr  Pr57  1  0.50836568  0.37423846  0.50210520  1
  Pr  Pr58  1  0.83569420  0.62366961  0.49730553  1
  Pr  Pr59  1  0.66195226  0.12415151  0.99251910  1
  Pr  Pr60  1  0.32997940  0.62360033  1.00066862  1
  Pr  Pr61  1  0.15705237  0.12935376  0.83324749  1
  Pr  Pr62  1  0.17542232  0.87252742  0.16600213  1
  Pr  Pr63  1  0.49158853  0.62410673  0.83685646  1
  Pr  Pr64  1  0.49985735  0.37869703  0.16519735  1
  Pr  Pr65  1  0.32778935  0.12553198  0.66263977  1
  Pr  Pr66  1  0.33898083  0.37753459  0.33770535  1
  Pr  Pr67  1  0.17282913  0.88097496  0.83176451  1
  Pr  Pr68  1  0.83281306  0.87618111  0.49937789  1
  Pr  Pr69  1  0.83560594  0.37545438  0.16012326  1
  Pr  Pr70  1  0.33120061  0.12486497  0.33110482  1
  Pr  Pr71  1  0.33214743  0.62385392  0.66095171  1
  Mn  Mn72  1  0.00192924  0.00072300  0.16560723  1
  Mn  Mn73  1  -0.00101155  0.00037016  0.50195456  1
  Mn  Mn74  1  -0.00053400  -0.00192810  0.83443077  1
  Mn  Mn75  1  0.00081165  0.50078023  0.16463316  1
  Mn  Mn76  1  0.00055440  0.50016182  0.49909914  1
  Mn  Mn77  1  0.00086090  0.50336699  0.83299711  1
  Mn  Mn78  1  0.33632570  0.00153825  0.16460221  1
  Mn  Mn79  1  0.33438293  0.00077219  0.50022462  1
  Mn  Mn80  1  0.33169489  -0.00049115  0.83348207  1
  Mn  Mn81  1  0.33323083  0.49850424  0.16644266  1
  Mn  Mn82  1  0.33442005  0.49910316  0.50117309  1
  Mn  Mn83  1  0.33046135  0.50044103  0.83451818  1
  Mn  Mn84  1  0.66564006  -0.00036823  0.16531065  1
  Mn  Mn85  1  0.66901864  -0.00155617  0.49903427  1
  Mn  Mn86  1  0.66497837  -0.00280934  0.83635187  1
  Mn  Mn87  1  0.66722520  0.50029532  0.16613088  1
  Mn  Mn88  1  0.66834582  0.50407709  0.50158601  1
  Mn  Mn89  1  0.66388981  0.50206207  0.83098303  1
  Mn  Mn90  1  -0.00104228  0.24750811  0.16524584  1
  Mn  Mn91  1  0.00097936  0.24798773  0.49988513  1
  Mn  Mn92  1  -0.00194366  0.24945865  0.83437047  1
  Mn  Mn93  1  0.00374908  0.75134040  0.16469004  1
  Mn  Mn94  1  -0.00087530  0.75105085  0.50150497  1
  Mn  Mn95  1  0.00277776  0.75047447  0.83311539  1
  Mn  Mn96  1  0.33385249  0.24875393  0.16630751  1
  Mn  Mn97  1  0.33336887  0.24920815  0.49903837  1
  Mn  Mn98  1  0.33084830  0.24959918  0.83391160  1
  Mn  Mn99  1  0.33513118  0.75183614  0.16463803  1
  Mn  Mn100  1  0.33593680  0.75052821  0.50221140  1
  Mn  Mn101  1  0.33051656  0.75108234  0.83367875  1
  Mn  Mn102  1  0.66543051  0.24878967  0.16637345  1
  Mn  Mn103  1  0.66959049  0.25100293  0.50163868  1
  Mn  Mn104  1  0.66396344  0.24839641  0.83340560  1
  Mn  Mn105  1  0.66870660  0.75113886  0.16660797  1
  Mn  Mn106  1  0.66790796  0.74865914  0.49888462  1
  Mn  Mn107  1  0.66537854  0.74977671  0.83459574  1
  Mn  Mn108  1  0.16542660  0.24974282  -0.00139084  1
  Mn  Mn109  1  0.16968937  0.24775406  0.33314114  1
  Mn  Mn110  1  0.16467892  0.24809922  0.66439650  1
  Mn  Mn111  1  0.16794460  0.75019876  -0.00142599  1
  Mn  Mn112  1  0.16695923  0.75211206  0.33329601  1
  Mn  Mn113  1  0.16694832  0.75259834  0.66924288  1
  Mn  Mn114  1  0.49611097  0.24860748  0.00234570  1
  Mn  Mn115  1  0.50057637  0.24926258  0.33541134  1
  Mn  Mn116  1  0.49779591  0.24999182  0.66894756  1
  Mn  Mn117  1  0.49948815  0.74994729  -0.00136736  1
  Mn  Mn118  1  0.50386926  0.75168588  0.33456460  1
  Mn  Mn119  1  0.49866268  0.74866447  0.66795179  1
  Mn  Mn120  1  0.83151699  0.24916074  -0.00028354  1
  Mn  Mn121  1  0.83303649  0.24883549  0.33266450  1
  Mn  Mn122  1  0.83235682  0.24870739  0.66574529  1
  Mn  Mn123  1  0.83472890  0.74960441  -0.00321031  1
  Mn  Mn124  1  0.83443797  0.75140379  0.33326454  1
  Mn  Mn125  1  0.83568190  0.74998196  0.66672322  1
  Mn  Mn126  1  0.16672380  -0.00103044  -0.00202993  1
  Mn  Mn127  1  0.16762092  0.00116022  0.33294413  1
  Mn  Mn128  1  0.16682150  0.00023153  0.66562306  1
  Mn  Mn129  1  0.16636725  0.50208489  -0.00088756  1
  Mn  Mn130  1  0.16867924  0.49980606  0.33263287  1
  Mn  Mn131  1  0.16527580  0.49942674  0.66713540  1
  Mn  Mn132  1  0.49924744  -0.00010252  0.00093623  1
  Mn  Mn133  1  0.50168282  0.00174999  0.33346210  1
  Mn  Mn134  1  0.49709193  -0.00181545  0.66868743  1
  Mn  Mn135  1  0.49630684  0.50012723  -0.00014467  1
  Mn  Mn136  1  0.50225769  0.49880008  0.33562734  1
  Mn  Mn137  1  0.50044347  0.50304182  0.66782418  1
  Mn  Mn138  1  0.83132517  -0.00236792  -0.00271678  1
  Mn  Mn139  1  0.83238340  -0.00049615  0.33348443  1
  Mn  Mn140  1  0.83668181  -0.00138007  0.66675118  1
  Mn  Mn141  1  0.83353426  0.50186845  -0.00045510  1
  Mn  Mn142  1  0.83452264  0.50039230  0.33284650  1
  Mn  Mn143  1  0.83069162  0.50302337  0.66505956  1
  O  O144  1  0.16603943  0.11923025  0.01980874  1
  O  O145  1  0.16805402  0.12347310  0.35547086  1
  O  O146  1  0.17290320  0.12163925  0.69126590  1
  O  O147  1  0.16110434  0.62990698  0.02790827  1
  O  O148  1  0.15924025  0.62718301  0.34013987  1
  O  O149  1  0.16904999  0.63149872  0.68975293  1
  O  O150  1  0.49737048  0.12013720  0.02812524  1
  O  O151  1  0.49649690  0.12591784  0.34885413  1
  O  O152  1  0.48873355  0.12004699  0.68857295  1
  O  O153  1  0.49191446  0.62558778  0.01291850  1
  O  O154  1  0.50669655  0.62641621  0.35591952  1
  O  O155  1  0.48897330  0.62652672  0.69272132  1
  O  O156  1  0.81778734  0.11998155  0.00450065  1
  O  O157  1  0.82773150  0.12162461  0.35482048  1
  O  O158  1  0.83394924  0.11796489  0.68923815  1
  O  O159  1  0.82264031  0.62748834  0.00899458  1
  O  O160  1  0.83096320  0.62938544  0.35235717  1
  O  O161  1  0.83771876  0.62981862  0.69148573  1
  O  O162  1  0.17691309  0.37148437  0.32388469  1
  O  O163  1  0.16521629  0.36894506  0.64079156  1
  O  O164  1  0.16543116  0.37923739  0.97389330  1
  O  O165  1  0.16909042  0.87920219  0.31070241  1
  O  O166  1  0.16507749  0.87722675  0.64016378  1
  O  O167  1  0.17215403  0.87330378  0.97304832  1
  O  O168  1  0.49803257  0.36957819  0.30991137  1
  O  O169  1  0.50665000  0.38090904  0.64877020  1
  O  O170  1  0.49485438  0.37715895  0.97311880  1
  O  O171  1  0.51040823  0.87905553  0.31093900  1
  O  O172  1  0.49170896  0.87246171  0.64504679  1
  O  O173  1  0.49763991  0.87523886  0.97169125  1
  O  O174  1  0.83563714  0.37209363  0.30720338  1
  O  O175  1  0.82532756  0.38060553  0.65029471  1
  O  O176  1  0.84435332  0.37850464  0.99108787  1
  O  O177  1  0.82940003  0.87584967  0.30687270  1
  O  O178  1  0.84308221  0.87278366  0.64333129  1
  O  O179  1  0.84094558  0.87162683  0.97418598  1
  O  O180  1  -0.01154722  0.37412030  0.17286222  1
  O  O181  1  0.00487903  0.37175291  0.50895461  1
  O  O182  1  0.00474062  0.37907646  0.85710754  1
  O  O183  1  -0.00820556  0.87623023  0.17489239  1
  O  O184  1  -0.00801888  0.87595801  0.52498456  1
  O  O185  1  -0.00582136  0.87249647  0.86222300  1
  O  O186  1  0.33455842  0.36821559  0.19157786  1
  O  O187  1  0.32162082  0.37253329  0.51130926  1
  O  O188  1  0.32310346  0.37179025  0.85370057  1
  O  O189  1  0.32456887  0.87854874  0.17661923  1
  O  O190  1  0.33063881  0.87605411  0.52201756  1
  O  O191  1  0.32469045  0.87373222  0.86338092  1
  O  O192  1  0.65955694  0.37215532  0.17728208  1
  O  O193  1  0.66496757  0.38278098  0.52502736  1
  O  O194  1  0.65317820  0.37523827  0.84085172  1
  O  O195  1  0.65731609  0.87639459  0.18927407  1
  O  O196  1  0.66592383  0.87238776  0.51169464  1
  O  O197  1  0.65243220  0.87232895  0.85679120  1
  O  O198  1  0.00968762  0.12134895  0.14685914  1
  O  O199  1  0.00600438  0.12191005  0.47461663  1
  O  O200  1  0.00596521  0.11905568  0.81913458  1
  O  O201  1  0.01310246  0.62887855  0.14349845  1
  O  O202  1  -0.00345578  0.62899887  0.47593579  1
  O  O203  1  0.01393979  0.63084932  0.80502604  1
  O  O204  1  0.34554823  0.12362360  0.14064267  1
  O  O205  1  0.33427674  0.12478261  0.47629002  1
  O  O206  1  0.34034722  0.12344774  0.80680719  1
  O  O207  1  0.33078889  0.62963160  0.14489068  1
  O  O208  1  0.34272155  0.62487315  0.49053042  1
  O  O209  1  0.33466761  0.63092579  0.80477123  1
  O  O210  1  0.66141429  0.12116945  0.13747333  1
  O  O211  1  0.67575899  0.12010206  0.47908630  1
  O  O212  1  0.67778770  0.12095527  0.82801336  1
  O  O213  1  0.66827684  0.63016663  0.14004844  1
  O  O214  1  0.66157632  0.62793338  0.47216729  1
  O  O215  1  0.67486430  0.62840229  0.81817435  1
  O  O216  1  0.08393006  0.02082157  0.25418954  1
  O  O217  1  0.08148959  0.01614598  0.58779452  1
  O  O218  1  0.07641012  0.00796930  0.92326104  1
  O  O219  1  0.08424665  0.51486195  0.24691962  1
  O  O220  1  0.07692765  0.51740053  0.59091463  1
  O  O221  1  0.08315347  0.52719285  0.91670145  1
  O  O222  1  0.41461601  0.01910141  0.25484806  1
  O  O223  1  0.40320293  0.01099726  0.59788796  1
  O  O224  1  0.40774500  0.01843146  0.92666657  1
  O  O225  1  0.41733551  0.50205340  0.25290560  1
  O  O226  1  0.41876260  0.51685909  0.58584253  1
  O  O227  1  0.40973815  0.52200582  0.91861135  1
  O  O228  1  0.73921799  0.01390212  0.25787366  1
  O  O229  1  0.75619611  0.00808561  0.57859028  1
  O  O230  1  0.73284448  -0.00022469  0.93298528  1
  O  O231  1  0.74869811  0.51499447  0.25277390  1
  O  O232  1  0.75086717  0.52813049  0.58022062  1
  O  O233  1  0.74724107  0.51530887  0.91603371  1
  O  O234  1  0.24901592  0.22073318  0.24436478  1
  O  O235  1  0.24514114  0.22565456  0.57613248  1
  O  O236  1  0.24506434  0.22536934  0.91093665  1
  O  O237  1  0.24586152  0.74005331  0.23797263  1
  O  O238  1  0.25593690  0.74006801  0.59323179  1
  O  O239  1  0.24613727  0.72124732  0.91390134  1
  O  O240  1  0.58269312  0.22618529  0.25076990  1
  O  O241  1  0.58358811  0.24787368  0.58647059  1
  O  O242  1  0.57661800  0.22651529  0.91672180  1
  O  O243  1  0.59054008  0.73505712  0.25528580  1
  O  O244  1  0.57834827  0.73328139  0.57790223  1
  O  O245  1  0.57894530  0.72543400  0.91576310  1
  O  O246  1  0.91892556  0.22932187  0.25227257  1
  O  O247  1  0.91450038  0.23224995  0.57849854  1
  O  O248  1  0.91386544  0.23371879  0.91539892  1
  O  O249  1  0.92212544  0.73616945  0.25405041  1
  O  O250  1  0.91609043  0.72460860  0.58232919  1
  O  O251  1  0.91407472  0.72331615  0.90524159  1
  O  O252  1  0.07799435  0.48508636  0.07371639  1
  O  O253  1  0.09134719  0.48714748  0.42165289  1
  O  O254  1  0.08883845  0.48344665  0.75813007  1
  O  O255  1  0.09495424  0.97494161  0.08640657  1
  O  O256  1  0.08997944  0.98486753  0.42687736  1
  O  O257  1  0.09025752  0.97844570  0.75489435  1
  O  O258  1  0.41708040  0.47978310  0.08564090  1
  O  O259  1  0.42073631  0.47723489  0.42059039  1
  O  O260  1  0.42238552  0.48627662  0.75998973  1
  O  O261  1  0.42584260  0.97297984  0.08873250  1
  O  O262  1  0.42771188  0.98170000  0.42690702  1
  O  O263  1  0.41884684  0.97402722  0.76054234  1
  O  O264  1  0.75461554  0.48503839  0.08726975  1
  O  O265  1  0.75293029  0.49459812  0.42045515  1
  O  O266  1  0.74401035  0.49119483  0.74394476  1
  O  O267  1  0.75736647  0.97038985  0.08949362  1
  O  O268  1  0.75310633  0.97566726  0.41664742  1
  O  O269  1  0.76135215  0.98051884  0.76199532  1
  O  O270  1  0.25401461  0.25422701  0.07796611  1
  O  O271  1  0.26171597  0.26025195  0.40565580  1
  O  O272  1  0.24683342  0.25958446  0.75124690  1
  O  O273  1  0.25523287  0.76960855  0.07387483  1
  O  O274  1  0.25059265  0.76367561  0.42236792  1
  O  O275  1  0.25005647  0.77766202  0.75196805  1
  O  O276  1  0.57600448  0.26072613  0.08856189  1
  O  O277  1  0.58385044  0.26335901  0.42222127  1
  O  O278  1  0.57830792  0.25731806  0.75506336  1
  O  O279  1  0.58633951  0.77081428  0.08122773  1
  O  O280  1  0.58614300  0.77228503  0.41559948  1
  O  O281  1  0.57765944  0.76039452  0.75400994  1
  O  O282  1  0.91558924  0.25969545  0.08150990  1
  O  O283  1  0.92034558  0.24935976  0.41493553  1
  O  O284  1  0.91390696  0.25195645  0.75230499  1
  O  O285  1  0.92449638  0.76311211  0.07572154  1
  O  O286  1  0.90920387  0.76594574  0.42316143  1
  O  O287  1  0.92736928  0.77233909  0.74629428  1
  O  O288  1  0.25192445  0.49454282  0.07683381  1
  O  O289  1  0.25457752  0.48546280  0.41418496  1
  O  O290  1  0.24470194  0.48891808  0.75716130  1
  O  O291  1  0.25836891  0.98593323  0.06983080  1
  O  O292  1  0.25157563  0.98938718  0.41627851  1
  O  O293  1  0.25563893  0.97726151  0.74090056  1
  O  O294  1  0.57841596  0.48895378  0.08446894  1
  O  O295  1  0.57820015  0.48484741  0.42641917  1
  O  O296  1  0.58103924  0.48735306  0.74907149  1
  O  O297  1  0.58856800  0.97547934  0.07469561  1
  O  O298  1  0.59091555  0.98578627  0.40926679  1
  O  O299  1  0.57924484  0.98736795  0.75378878  1
  O  O300  1  0.91844331  0.49272364  0.08075817  1
  O  O301  1  0.91710901  0.49534990  0.41735694  1
  O  O302  1  0.91744914  0.50092796  0.75154392  1
  O  O303  1  0.92071511  0.98488176  0.07255402  1
  O  O304  1  0.91168983  0.98768215  0.42239844  1
  O  O305  1  0.92543517  0.97568353  0.74551270  1
  O  O306  1  0.08058951  0.26267985  0.07881694  1
  O  O307  1  0.09757518  0.25881095  0.42613120  1
  O  O308  1  0.08764107  0.26167884  0.75658345  1
  O  O309  1  0.09088602  0.77830569  0.08303305  1
  O  O310  1  0.08623204  0.76923416  0.42597373  1
  O  O311  1  0.08936146  0.77999914  0.75775573  1
  O  O312  1  0.41976825  0.27165215  0.09037883  1
  O  O313  1  0.42144802  0.27491644  0.42201498  1
  O  O314  1  0.42175693  0.26699324  0.76290861  1
  O  O315  1  0.41991198  0.77432693  0.08292947  1
  O  O316  1  0.42791269  0.76437654  0.42662346  1
  O  O317  1  0.41355481  0.77563942  0.75477828  1
  O  O318  1  0.75411162  0.26554133  0.08975293  1
  O  O319  1  0.75635728  0.25984547  0.41989232  1
  O  O320  1  0.74332544  0.26158912  0.74577516  1
  O  O321  1  0.75468369  0.77793511  0.08882304  1
  O  O322  1  0.75121233  0.76924130  0.41529852  1
  O  O323  1  0.76038022  0.76575247  0.76110939  1
  O  O324  1  0.24852337  0.02356014  0.24215706  1
  O  O325  1  0.24448816  0.02161848  0.57887969  1
  O  O326  1  0.23937134  0.02242323  0.90402698  1
  O  O327  1  0.24702878  0.51537311  0.24425160  1
  O  O328  1  0.25301462  0.51486179  0.58852830  1
  O  O329  1  0.24684220  0.52846426  0.91682576  1
  O  O330  1  0.57827777  0.02386813  0.24392152  1
  O  O331  1  0.57816248  0.00126812  0.57930057  1
  O  O332  1  0.57155991  0.02498363  0.91432337  1
  O  O333  1  0.58831613  0.51505639  0.25717885  1
  O  O334  1  0.58083975  0.52457428  0.58419271  1
  O  O335  1  0.57809144  0.52247844  0.91383524  1
  O  O336  1  0.91729627  0.01545047  0.25469929  1
  O  O337  1  0.91547675  0.02268744  0.58032027  1
  O  O338  1  0.90034972  0.01455986  0.90402356  1
  O  O339  1  0.92305832  0.51795649  0.25262429  1
  O  O340  1  0.91397651  0.52130840  0.58175001  1
  O  O341  1  0.91840245  0.52706317  0.91520916  1
  O  O342  1  0.08302521  0.23046604  0.25349890  1
  O  O343  1  0.08245008  0.22521529  0.58432674  1
  O  O344  1  0.08252551  0.23571490  0.91519224  1
  O  O345  1  0.08503198  0.73836002  0.24525874  1
  O  O346  1  0.07544919  0.73902600  0.59665134  1
  O  O347  1  0.07938737  0.73009900  0.92192192  1
  O  O348  1  0.41216626  0.22892737  0.25400463  1
  O  O349  1  0.40779915  0.23722378  0.59148453  1
  O  O350  1  0.41063123  0.22562300  0.92190335  1
  O  O351  1  0.42239368  0.75001346  0.24806235  1
  O  O352  1  0.41538624  0.73039089  0.58858347  1
  O  O353  1  0.41045794  0.73048046  0.91587118  1
  O  O354  1  0.74320460  0.23100230  0.25486724  1
  O  O355  1  0.75393337  0.23488070  0.58011611  1
  O  O356  1  0.74467896  0.24001281  0.91785696  1
  O  O357  1  0.74740414  0.73854274  0.25413271  1
  O  O358  1  0.75212958  0.73337009  0.57789153  1
  O  O359  1  0.74013666  0.73865509  0.92463283  1
