# generated using pymatgen
data_Ba17Sr5La8Pr42Mn72O216
_symmetry_space_group_name_H-M   'P 1'
_cell_length_a   16.67753542
_cell_length_b   15.70785686
_cell_length_c   16.81667689
_cell_angle_alpha   90.00058381
_cell_angle_beta   89.96976903
_cell_angle_gamma   90.00763605
_symmetry_Int_Tables_number   1
_chemical_formula_structural   Ba17Sr5La8Pr42Mn72O216
_chemical_formula_sum   'Ba17 Sr5 La8 Pr42 Mn72 O216'
_cell_volume   4405.43626382
_cell_formula_units_Z   1
loop_
 _symmetry_equiv_pos_site_id
 _symmetry_equiv_pos_as_xyz
  1  'x, y, z'
loop_
 _atom_site_type_symbol
 _atom_site_label
 _atom_site_symmetry_multiplicity
 _atom_site_fract_x
 _atom_site_fract_y
 _atom_site_fract_z
 _atom_site_occupancy
  Ba  Ba0  1  0.66218593  0.12546910  0.99784641  1
  Ba  Ba1  1  -0.00068979  0.62523061  0.33159075  1
  Ba  Ba2  1  0.16822230  0.37587871  0.83166136  1
  Ba  Ba3  1  0.33191250  0.12412894  0.66920235  1
  Ba  Ba4  1  0.66486921  0.12637631  0.66740858  1
  Ba  Ba5  1  0.16650657  0.37341384  0.49666898  1
  Ba  Ba6  1  0.33270702  0.37394726  0.33427306  1
  Ba  Ba7  1  0.16854397  0.87513024  0.16229785  1
  Ba  Ba8  1  -0.00096455  0.62607268  0.66453481  1
  Ba  Ba9  1  0.66444150  0.62496325  0.33250318  1
  Ba  Ba10  1  0.50129318  0.87736225  0.50016276  1
  Ba  Ba11  1  0.00030313  0.12447877  0.99557426  1
  Ba  Ba12  1  0.83275289  0.62491135  0.50199520  1
  Ba  Ba13  1  0.83076084  0.62519313  0.83620924  1
  Ba  Ba14  1  0.49728178  0.62642343  0.50131357  1
  Ba  Ba15  1  0.83220286  0.62471440  0.16956103  1
  Ba  Ba16  1  0.16369789  0.12508027  0.83079893  1
  Sr  Sr17  1  0.16814395  0.37544622  0.16339767  1
  Sr  Sr18  1  0.00290237  0.12477257  0.66454245  1
  Sr  Sr19  1  0.66209090  0.62458944  0.99920154  1
  Sr  Sr20  1  0.16756438  0.87607011  0.82983174  1
  Sr  Sr21  1  0.49405160  0.12495410  0.50393159  1
  La  La22  1  0.50329527  0.36980895  0.49984311  1
  La  La23  1  0.83556080  0.37263882  0.83396736  1
  La  La24  1  0.33768216  0.87666732  0.00276638  1
  La  La25  1  -0.00151658  0.87317996  0.33224866  1
  La  La26  1  0.16692499  0.62570577  0.16894143  1
  La  La27  1  -0.00088924  0.12612731  0.32822050  1
  La  La28  1  0.00160275  0.62623442  0.99739808  1
  La  La29  1  0.67087364  0.87424537  0.66603409  1
  Pr  Pr30  1  0.67264210  0.37603009  0.33528910  1
  Pr  Pr31  1  0.00000365  0.87561651  -0.00246166  1
  Pr  Pr32  1  0.48848320  0.12583553  0.16683002  1
  Pr  Pr33  1  0.67844643  0.37543761  0.00284564  1
  Pr  Pr34  1  0.17182305  0.12672194  0.50481701  1
  Pr  Pr35  1  0.33275633  0.87431571  0.33743967  1
  Pr  Pr36  1  0.82910891  0.12416841  0.83844062  1
  Pr  Pr37  1  0.16506333  0.62263896  0.49888387  1
  Pr  Pr38  1  0.84138072  0.37754989  0.16704840  1
  Pr  Pr39  1  0.32483319  0.12470701  0.99561936  1
  Pr  Pr40  1  0.83661275  0.87780457  0.83271360  1
  Pr  Pr41  1  0.00059975  0.37736190  0.33470684  1
  Pr  Pr42  1  0.34203736  0.87503572  0.67156508  1
  Pr  Pr43  1  0.33717737  0.37255579  0.00924553  1
  Pr  Pr44  1  0.00214077  0.37837065  0.66794818  1
  Pr  Pr45  1  0.67291750  0.37609531  0.66636937  1
  Pr  Pr46  1  0.50750599  0.87639716  0.83092185  1
  Pr  Pr47  1  0.00097588  0.87293200  0.66718375  1
  Pr  Pr48  1  0.49659774  0.62413442  0.17323008  1
  Pr  Pr49  1  0.33106507  0.62469154  0.33381271  1
  Pr  Pr50  1  0.34070897  0.37459098  0.66917675  1
  Pr  Pr51  1  0.66415777  0.62482311  0.66055067  1
  Pr  Pr52  1  0.16831780  0.12434033  0.16376948  1
  Pr  Pr53  1  0.32696380  0.62504540  1.00166234  1
  Pr  Pr54  1  0.49475516  0.62578591  0.83593730  1
  Pr  Pr55  1  0.00333756  0.37497695  -0.00044190  1
  Pr  Pr56  1  0.48802045  0.12499758  0.83775013  1
  Pr  Pr57  1  0.82818113  0.12532844  0.17262513  1
  Pr  Pr58  1  0.83925911  0.87253937  0.16691283  1
  Pr  Pr59  1  0.50974908  0.37552728  0.16339805  1
  Pr  Pr60  1  0.67509792  0.87381069  0.33661498  1
  Pr  Pr61  1  0.67758115  0.87434507  0.00135144  1
  Pr  Pr62  1  0.32503704  0.62497567  0.66575916  1
  Pr  Pr63  1  0.16193900  0.62530021  0.83388599  1
  Pr  Pr64  1  0.83283053  0.12365268  0.50645933  1
  Pr  Pr65  1  0.50875150  0.87546507  0.16486592  1
  Pr  Pr66  1  0.83572800  0.87509419  0.50209703  1
  Pr  Pr67  1  0.32752927  0.12385787  0.33753152  1
  Pr  Pr68  1  0.50680200  0.37460668  0.83394696  1
  Pr  Pr69  1  0.65363413  0.12368348  0.33002869  1
  Pr  Pr70  1  0.83729825  0.37450133  0.50129744  1
  Pr  Pr71  1  0.16420495  0.87825829  0.49647333  1
  Mn  Mn72  1  -0.00096573  0.00247017  0.16456101  1
  Mn  Mn73  1  -0.00026927  0.00108514  0.49744709  1
  Mn  Mn74  1  -0.00106356  -0.00122834  0.82999036  1
  Mn  Mn75  1  0.00327360  0.49752932  0.16510381  1
  Mn  Mn76  1  -0.00013464  0.49842532  0.49958285  1
  Mn  Mn77  1  -0.00034239  0.50032120  0.83397802  1
  Mn  Mn78  1  0.33508387  0.00023950  0.16762935  1
  Mn  Mn79  1  0.33231745  -0.00262888  0.50155495  1
  Mn  Mn80  1  0.33265129  -0.00339807  0.83638894  1
  Mn  Mn81  1  0.33546555  0.49974927  0.16734918  1
  Mn  Mn82  1  0.33377540  0.50093230  0.50158676  1
  Mn  Mn83  1  0.33563105  0.50111023  0.83559521  1
  Mn  Mn84  1  0.66594351  0.00125464  0.16703500  1
  Mn  Mn85  1  0.66754442  0.00148667  0.49869392  1
  Mn  Mn86  1  0.66533262  -0.00014237  0.83437493  1
  Mn  Mn87  1  0.66648462  0.49843226  0.16584083  1
  Mn  Mn88  1  0.66580907  0.49764833  0.50121559  1
  Mn  Mn89  1  0.66503883  0.49964909  0.83394409  1
  Mn  Mn90  1  0.00110922  0.24818641  0.16513632  1
  Mn  Mn91  1  -0.00156197  0.24707383  0.49721090  1
  Mn  Mn92  1  -0.00220679  0.25040978  0.83058901  1
  Mn  Mn93  1  0.00158216  0.75169971  0.16378790  1
  Mn  Mn94  1  0.00085573  0.75233232  0.49976022  1
  Mn  Mn95  1  0.00072100  0.75096713  0.83286275  1
  Mn  Mn96  1  0.33311180  0.24922769  0.16804143  1
  Mn  Mn97  1  0.33431978  0.25040417  0.50183754  1
  Mn  Mn98  1  0.33412445  0.25414520  0.83698189  1
  Mn  Mn99  1  0.33673590  0.75097665  0.16769945  1
  Mn  Mn100  1  0.33055480  0.75059570  0.50187748  1
  Mn  Mn101  1  0.33416949  0.74883369  0.83519855  1
  Mn  Mn102  1  0.66654838  0.24806057  0.16770790  1
  Mn  Mn103  1  0.66766500  0.24883340  0.49811835  1
  Mn  Mn104  1  0.66516234  0.25126233  0.83394947  1
  Mn  Mn105  1  0.66582905  0.75174029  0.16569162  1
  Mn  Mn106  1  0.66642550  0.75145006  0.50123147  1
  Mn  Mn107  1  0.66560455  0.74976826  0.83480484  1
  Mn  Mn108  1  0.16766746  0.25245030  -0.00063696  1
  Mn  Mn109  1  0.16445067  0.24667817  0.33079722  1
  Mn  Mn110  1  0.16592198  0.25030489  0.66438094  1
  Mn  Mn111  1  0.16846780  0.75057707  -0.00307343  1
  Mn  Mn112  1  0.16674764  0.75244504  0.33220080  1
  Mn  Mn113  1  0.16804800  0.75204861  0.66460993  1
  Mn  Mn114  1  0.49949342  0.25159041  0.00019125  1
  Mn  Mn115  1  0.49890673  0.24856324  0.33268096  1
  Mn  Mn116  1  0.50079871  0.25087051  0.66743179  1
  Mn  Mn117  1  0.50073131  0.74951883  0.00062057  1
  Mn  Mn118  1  0.49817702  0.75188056  0.33136551  1
  Mn  Mn119  1  0.50079475  0.75017722  0.67050228  1
  Mn  Mn120  1  0.83420573  0.25025071  0.00179741  1
  Mn  Mn121  1  0.83191513  0.24821206  0.33644295  1
  Mn  Mn122  1  0.83521811  0.24860722  0.66718619  1
  Mn  Mn123  1  0.83417587  0.74947651  0.00111721  1
  Mn  Mn124  1  0.83324599  0.75197181  0.33331011  1
  Mn  Mn125  1  0.83186833  0.75183216  0.66873007  1
  Mn  Mn126  1  0.16723300  -0.00293688  -0.00307963  1
  Mn  Mn127  1  0.16514865  0.00049760  0.33163153  1
  Mn  Mn128  1  0.16631798  -0.00160397  0.66365997  1
  Mn  Mn129  1  0.16898414  0.50026263  -0.00055021  1
  Mn  Mn130  1  0.16709785  0.49989496  0.33068216  1
  Mn  Mn131  1  0.16750935  0.49948008  0.66556322  1
  Mn  Mn132  1  0.49970196  -0.00185607  -0.00004005  1
  Mn  Mn133  1  0.49729393  0.00079805  0.33131509  1
  Mn  Mn134  1  0.50148391  0.00035043  0.66746482  1
  Mn  Mn135  1  0.50045156  0.50158147  0.00052705  1
  Mn  Mn136  1  0.49934285  0.49736867  0.33337592  1
  Mn  Mn137  1  0.50050588  0.49941698  0.66934028  1
  Mn  Mn138  1  0.83320543  -0.00031227  0.00166205  1
  Mn  Mn139  1  0.83217601  0.00245323  0.33642266  1
  Mn  Mn140  1  0.83470332  0.00140892  0.66786879  1
  Mn  Mn141  1  0.83498277  0.50052980  0.00136099  1
  Mn  Mn142  1  0.83308618  0.49749564  0.33344520  1
  Mn  Mn143  1  0.83216967  0.49825053  0.66841560  1
  O  O144  1  0.17262570  0.12512006  0.01799412  1
  O  O145  1  0.16514965  0.12076773  0.35901778  1
  O  O146  1  0.16501318  0.12373731  0.67428717  1
  O  O147  1  0.16429637  0.62501415  0.02295059  1
  O  O148  1  0.17066081  0.63171621  0.35414683  1
  O  O149  1  0.17252921  0.62673153  0.69092226  1
  O  O150  1  0.49570987  0.12446335  0.02330779  1
  O  O151  1  0.50335515  0.12438200  0.35442194  1
  O  O152  1  0.50064174  0.12736727  0.69349145  1
  O  O153  1  0.50396926  0.62611663  0.02979086  1
  O  O154  1  0.49619217  0.62560135  0.34324875  1
  O  O155  1  0.51078953  0.62427081  0.69210767  1
  O  O156  1  0.83262230  0.12481636  0.02522734  1
  O  O157  1  0.84082616  0.12529041  0.36411223  1
  O  O158  1  0.83861502  0.12540630  0.69489304  1
  O  O159  1  0.83897965  0.62573439  0.01345827  1
  O  O160  1  0.83308318  0.62400524  0.34274415  1
  O  O161  1  0.82532264  0.62451680  0.67896413  1
  O  O162  1  0.15934601  0.36857292  0.31391771  1
  O  O163  1  0.16198025  0.37587903  0.65439665  1
  O  O164  1  0.17657558  0.37862176  0.98968169  1
  O  O165  1  0.16934357  0.87743659  0.31628825  1
  O  O166  1  0.16408828  0.87421200  0.64073488  1
  O  O167  1  0.17757576  0.87000372  0.98160643  1
  O  O168  1  0.50252031  0.37022672  0.30756716  1
  O  O169  1  0.49159183  0.37587594  0.64635116  1
  O  O170  1  0.48956112  0.37778164  0.97680746  1
  O  O171  1  0.48863572  0.87831054  0.30798670  1
  O  O172  1  0.49374811  0.87390265  0.65964819  1
  O  O173  1  0.49184683  0.87233995  0.97392277  1
  O  O174  1  0.82978220  0.36820902  0.31010143  1
  O  O175  1  0.82861800  0.37147679  0.64585040  1
  O  O176  1  0.83474563  0.37523979  0.98049763  1
  O  O177  1  0.82793140  0.88225457  0.31063150  1
  O  O178  1  0.82853163  0.87859542  0.64717651  1
  O  O179  1  0.83371971  0.87409885  0.97830201  1
  O  O180  1  0.00171846  0.36902887  0.19075424  1
  O  O181  1  -0.00362565  0.36856684  0.52241387  1
  O  O182  1  -0.00672567  0.37630834  0.85393422  1
  O  O183  1  -0.00304803  0.88221991  0.18805109  1
  O  O184  1  0.00557968  0.87867797  0.52213645  1
  O  O185  1  -0.00736208  0.87361345  0.85332155  1
  O  O186  1  0.33058296  0.37486556  0.17731928  1
  O  O187  1  0.33728140  0.37852856  0.52313030  1
  O  O188  1  0.34058484  0.38080351  0.86385698  1
  O  O189  1  0.33765084  0.87805354  0.19336530  1
  O  O190  1  0.32377358  0.87215090  0.52605653  1
  O  O191  1  0.33650429  0.86968658  0.85992959  1
  O  O192  1  0.65953981  0.36874194  0.19097532  1
  O  O193  1  0.66552127  0.37231705  0.52087760  1
  O  O194  1  0.65862871  0.37544255  0.86031812  1
  O  O195  1  0.65956337  0.88079265  0.19249416  1
  O  O196  1  0.67343903  0.87754502  0.51934675  1
  O  O197  1  0.65843705  0.87651947  0.85908889  1
  O  O198  1  -0.01109255  0.12487743  0.15086190  1
  O  O199  1  -0.01121964  0.12290748  0.47056449  1
  O  O200  1  -0.00904980  0.12387210  0.81619165  1
  O  O201  1  0.00495680  0.62291859  0.14291914  1
  O  O202  1  0.00410240  0.62869221  0.48846612  1
  O  O203  1  0.00549981  0.62679183  0.82288412  1
  O  O204  1  0.33738566  0.12393330  0.14042595  1
  O  O205  1  0.33093956  0.12128791  0.48289146  1
  O  O206  1  0.34027272  0.12562000  0.82732420  1
  O  O207  1  0.34320514  0.62443601  0.14506901  1
  O  O208  1  0.32933899  0.62752879  0.47866696  1
  O  O209  1  0.34132855  0.62540957  0.80770623  1
  O  O210  1  0.67421564  0.12465540  0.15207859  1
  O  O211  1  0.67617468  0.12591707  0.47332506  1
  O  O212  1  0.67550022  0.12570567  0.82412279  1
  O  O213  1  0.66095677  0.62555509  0.14967683  1
  O  O214  1  0.66582690  0.62444242  0.49375384  1
  O  O215  1  0.66168353  0.62216272  0.80687487  1
  O  O216  1  0.08314446  0.02402516  0.24736634  1
  O  O217  1  0.08421532  0.01841611  0.57099042  1
  O  O218  1  0.07828989  -0.00060190  0.91278725  1
  O  O219  1  0.09077329  0.51477957  0.23988959  1
  O  O220  1  0.08699986  0.51256646  0.57637046  1
  O  O221  1  0.08552117  0.51730422  0.91644972  1
  O  O222  1  0.41062472  0.02700556  0.25378192  1
  O  O223  1  0.41359256  0.00502071  0.58786115  1
  O  O224  1  0.40917006  0.01613975  0.92901113  1
  O  O225  1  0.41129888  0.51829729  0.25558804  1
  O  O226  1  0.40735372  0.51660597  0.60080061  1
  O  O227  1  0.41222118  0.52795442  0.92646581  1
  O  O228  1  0.74500820  0.02397412  0.26222079  1
  O  O229  1  0.75572701  0.01644507  0.58422413  1
  O  O230  1  0.74700422  0.00688734  0.92095787  1
  O  O231  1  0.74556352  0.49910890  0.25319876  1
  O  O232  1  0.74093008  0.50756427  0.59463963  1
  O  O233  1  0.74142402  0.50723706  0.92317567  1
  O  O234  1  0.24634927  0.22283434  0.24598666  1
  O  O235  1  0.24683443  0.23894954  0.57818663  1
  O  O236  1  0.25120234  0.23866581  0.91897372  1
  O  O237  1  0.25280102  0.73001786  0.25093307  1
  O  O238  1  0.24658133  0.72427439  0.58082784  1
  O  O239  1  0.24837784  0.72189687  0.91174044  1
  O  O240  1  0.57307893  0.22619721  0.24131582  1
  O  O241  1  0.57883941  0.24091441  0.57285250  1
  O  O242  1  0.56871072  0.23637812  0.90317656  1
  O  O243  1  0.57170468  0.74168083  0.23483965  1
  O  O244  1  0.58343560  0.74203150  0.58854684  1
  O  O245  1  0.57302682  0.73165333  0.90853127  1
  O  O246  1  0.90915333  0.23023986  0.25027981  1
  O  O247  1  0.91509519  0.22988111  0.57763178  1
  O  O248  1  0.90589700  0.23688743  0.90682702  1
  O  O249  1  0.91621247  0.75152390  0.25116645  1
  O  O250  1  0.91578961  0.75315430  0.58382112  1
  O  O251  1  0.92306022  0.74043027  0.92478637  1
  O  O252  1  0.08168096  0.48064303  0.07757560  1
  O  O253  1  0.07722073  0.48663282  0.40865946  1
  O  O254  1  0.08002747  0.48908788  0.74562918  1
  O  O255  1  0.08466356  0.98748074  0.07620154  1
  O  O256  1  0.08013395  0.97998265  0.41129820  1
  O  O257  1  0.08021551  0.98099430  0.74252033  1
  O  O258  1  0.42562320  0.47986157  0.09098365  1
  O  O259  1  0.42399542  0.48403376  0.42702669  1
  O  O260  1  0.42654344  0.48153682  0.76200681  1
  O  O261  1  0.42667266  0.98000860  0.09206817  1
  O  O262  1  0.40971714  0.98599205  0.41257433  1
  O  O263  1  0.42141148  0.98296213  0.76339103  1
  O  O264  1  0.75448163  0.47650986  0.08951696  1
  O  O265  1  0.75355303  0.47698134  0.42099135  1
  O  O266  1  0.75134673  0.47492031  0.75564820  1
  O  O267  1  0.75680501  0.97752183  0.09199971  1
  O  O268  1  0.75572591  0.97865267  0.42122305  1
  O  O269  1  0.75331507  0.98067798  0.75800281  1
  O  O270  1  0.25907966  0.25976804  0.07962388  1
  O  O271  1  0.25119883  0.25023264  0.41290558  1
  O  O272  1  0.26223657  0.26796584  0.74810361  1
  O  O273  1  0.26062327  0.75751257  0.07746372  1
  O  O274  1  0.24622306  0.77269272  0.41737967  1
  O  O275  1  0.25870140  0.76748399  0.74270989  1
  O  O276  1  0.58782109  0.27379622  0.07241327  1
  O  O277  1  0.59093083  0.26614401  0.40452188  1
  O  O278  1  0.58872056  0.27460477  0.74351435  1
  O  O279  1  0.59014759  0.77605855  0.07369305  1
  O  O280  1  0.58777847  0.76892399  0.40474574  1
  O  O281  1  0.58906531  0.77204725  0.74746202  1
  O  O282  1  0.92235004  0.27499034  0.08037381  1
  O  O283  1  0.91510229  0.27578595  0.41456824  1
  O  O284  1  0.91804017  0.27634344  0.74549135  1
  O  O285  1  0.91746867  0.77256337  0.08371458  1
  O  O286  1  0.91709248  0.77464469  0.41743244  1
  O  O287  1  0.91575183  0.77121894  0.75009351  1
  O  O288  1  0.26093763  0.49319768  0.07571895  1
  O  O289  1  0.25012590  0.49697783  0.41322642  1
  O  O290  1  0.26276777  0.48718176  0.74143338  1
  O  O291  1  0.26180708  0.98848388  0.07892971  1
  O  O292  1  0.24985036  0.98089098  0.41410133  1
  O  O293  1  0.25703500  0.97823930  0.74673521  1
  O  O294  1  0.59035407  0.47506822  0.07385736  1
  O  O295  1  0.58759940  0.47646300  0.41069224  1
  O  O296  1  0.58907850  0.47406187  0.74475813  1
  O  O297  1  0.58849728  0.97608380  0.07182386  1
  O  O298  1  0.59198257  0.98644776  0.39877298  1
  O  O299  1  0.58998828  0.97952461  0.74572143  1
  O  O300  1  0.92102792  0.47663811  0.08510813  1
  O  O301  1  0.91587274  0.47600604  0.41732494  1
  O  O302  1  0.91506105  0.47955693  0.75003008  1
  O  O303  1  0.91881726  0.97540354  0.07844464  1
  O  O304  1  0.91697471  0.97344287  0.41480962  1
  O  O305  1  0.91860554  0.97428960  0.74595782  1
  O  O306  1  0.08803366  0.26478991  0.08200618  1
  O  O307  1  0.07202462  0.25865921  0.40408684  1
  O  O308  1  0.07669564  0.26240310  0.74210246  1
  O  O309  1  0.07796558  0.76553413  0.07026725  1
  O  O310  1  0.08159791  0.77323549  0.41190741  1
  O  O311  1  0.08347837  0.76897257  0.74435274  1
  O  O312  1  0.42589865  0.26849475  0.09302719  1
  O  O313  1  0.42581775  0.26293080  0.42476864  1
  O  O314  1  0.42375793  0.27082048  0.76214612  1
  O  O315  1  0.42531654  0.77283767  0.08999483  1
  O  O316  1  0.40859418  0.76554279  0.41441959  1
  O  O317  1  0.42500608  0.76649365  0.76252094  1
  O  O318  1  0.75828453  0.27171425  0.09227924  1
  O  O319  1  0.75404201  0.27431892  0.42014750  1
  O  O320  1  0.75146103  0.27048653  0.75569175  1
  O  O321  1  0.75399989  0.77405867  0.08871715  1
  O  O322  1  0.75497422  0.77130636  0.42044430  1
  O  O323  1  0.75212890  0.77410781  0.75714835  1
  O  O324  1  0.24779921  0.02529209  0.24850249  1
  O  O325  1  0.24332534  0.01152334  0.57404512  1
  O  O326  1  0.25043142  0.01188058  0.91707582  1
  O  O327  1  0.25087223  0.52372333  0.24589069  1
  O  O328  1  0.24712311  0.52277698  0.58029637  1
  O  O329  1  0.24803085  0.52780223  0.91060081  1
  O  O330  1  0.57195824  0.02083295  0.23783637  1
  O  O331  1  0.58361791  0.01218041  0.57503342  1
  O  O332  1  0.56833653  0.01483832  0.90358387  1
  O  O333  1  0.57276559  0.50916617  0.23661964  1
  O  O334  1  0.58029896  0.50716092  0.58521324  1
  O  O335  1  0.57232122  0.51765094  0.90720847  1
  O  O336  1  0.90792967  0.02041659  0.25016334  1
  O  O337  1  0.91601461  0.01420389  0.57801709  1
  O  O338  1  0.90534074  0.01145231  0.90756250  1
  O  O339  1  0.91863250  0.49834509  0.25032839  1
  O  O340  1  0.91538643  0.49957923  0.58463646  1
  O  O341  1  0.92318329  0.51045016  0.92336980  1
  O  O342  1  0.08396092  0.22147034  0.24526375  1
  O  O343  1  0.08231105  0.22860774  0.57010915  1
  O  O344  1  0.07781298  0.24965467  0.91751438  1
  O  O345  1  0.08916635  0.73724231  0.24107191  1
  O  O346  1  0.09045662  0.73926600  0.57411353  1
  O  O347  1  0.08737057  0.73403935  0.91197951  1
  O  O348  1  0.40919540  0.22468043  0.25698973  1
  O  O349  1  0.41522986  0.24265794  0.58943389  1
  O  O350  1  0.40979129  0.23262391  0.92856479  1
  O  O351  1  0.41224776  0.72991230  0.25349414  1
  O  O352  1  0.40788922  0.73745186  0.59875313  1
  O  O353  1  0.41173681  0.72496710  0.92727288  1
  O  O354  1  0.74596327  0.22546212  0.26261384  1
  O  O355  1  0.75477864  0.23511863  0.58187330  1
  O  O356  1  0.74717890  0.24452411  0.92003668  1
  O  O357  1  0.74497725  0.75007742  0.25291113  1
  O  O358  1  0.74297746  0.74166886  0.59534472  1
  O  O359  1  0.74213172  0.74180348  0.92463419  1
