# generated using pymatgen
data_Ba17Sr5La8Pr42Mn72O216
_symmetry_space_group_name_H-M   'P 1'
_cell_length_a   16.67271790
_cell_length_b   15.70071880
_cell_length_c   16.81602113
_cell_angle_alpha   89.99657698
_cell_angle_beta   89.99359280
_cell_angle_gamma   90.00022807
_symmetry_Int_Tables_number   1
_chemical_formula_structural   Ba17Sr5La8Pr42Mn72O216
_chemical_formula_sum   'Ba17 Sr5 La8 Pr42 Mn72 O216'
_cell_volume   4401.99128420
_cell_formula_units_Z   1
loop_
 _symmetry_equiv_pos_site_id
 _symmetry_equiv_pos_as_xyz
  1  'x, y, z'
loop_
 _atom_site_type_symbol
 _atom_site_label
 _atom_site_symmetry_multiplicity
 _atom_site_fract_x
 _atom_site_fract_y
 _atom_site_fract_z
 _atom_site_occupancy
  Ba  Ba0  1  0.66523917  0.37467766  0.33530126  1
  Ba  Ba1  1  0.66512082  0.87606657  0.00018926  1
  Ba  Ba2  1  0.16972340  0.62405706  0.16707714  1
  Ba  Ba3  1  0.82999761  0.37616007  0.83246893  1
  Ba  Ba4  1  0.33709732  0.62545625  0.33165868  1
  Ba  Ba5  1  0.83036938  0.37480874  0.49901536  1
  Ba  Ba6  1  0.00082347  0.87410656  0.33631196  1
  Ba  Ba7  1  0.16584201  0.87524433  0.50133249  1
  Ba  Ba8  1  0.83370064  0.87486219  0.82997290  1
  Ba  Ba9  1  0.83364205  0.12633311  0.49964078  1
  Ba  Ba10  1  0.49465670  0.37428212  0.83459807  1
  Ba  Ba11  1  0.16886621  0.87554395  0.16713844  1
  Ba  Ba12  1  0.00155651  0.62515714  0.99968709  1
  Ba  Ba13  1  0.66706752  0.12323570  1.00256947  1
  Ba  Ba14  1  0.66615577  0.87518317  0.66652305  1
  Ba  Ba15  1  0.66679787  0.62729915  1.00349519  1
  Ba  Ba16  1  0.16573176  0.37406861  0.16515851  1
  Sr  Sr17  1  0.83265858  0.87605483  0.49945407  1
  Sr  Sr18  1  -0.00196518  0.87702706  0.66573984  1
  Sr  Sr19  1  0.83782140  0.62617846  0.16566289  1
  Sr  Sr20  1  0.33159710  0.87416942  0.66805644  1
  Sr  Sr21  1  0.49504370  0.87559740  0.50277221  1
  La  La22  1  0.16877724  0.62650633  0.83666285  1
  La  La23  1  0.16637290  0.12261531  0.50109165  1
  La  La24  1  -0.00244133  0.12319515  0.66415774  1
  La  La25  1  0.50581691  0.62721001  0.50039255  1
  La  La26  1  0.16972937  0.12564383  0.16961056  1
  La  La27  1  0.49651029  0.37552537  0.16321809  1
  La  La28  1  -0.00748370  0.37596790  0.00375158  1
  La  La29  1  0.50745231  0.62772344  0.17126695  1
  Pr  Pr30  1  0.16030858  0.37489253  0.83321763  1
  Pr  Pr31  1  0.50128874  0.62818511  0.83713409  1
  Pr  Pr32  1  0.32177208  0.37600104  0.66848321  1
  Pr  Pr33  1  0.49319747  0.37592765  0.49752151  1
  Pr  Pr34  1  0.32880585  0.87175813  0.33973999  1
  Pr  Pr35  1  0.32855884  0.37645116  0.33267396  1
  Pr  Pr36  1  0.00337169  0.62714864  0.32656221  1
  Pr  Pr37  1  0.16726193  0.12325940  0.83166075  1
  Pr  Pr38  1  0.33882280  0.12060567  0.33138877  1
  Pr  Pr39  1  0.67786595  0.62456004  0.32901006  1
  Pr  Pr40  1  0.83707168  0.62447612  0.49708086  1
  Pr  Pr41  1  0.32627128  0.37435354  0.00189640  1
  Pr  Pr42  1  0.83575289  0.12326033  0.17013308  1
  Pr  Pr43  1  0.50069861  0.12171326  0.83564502  1
  Pr  Pr44  1  -0.00211576  0.62447132  0.66743140  1
  Pr  Pr45  1  0.82672012  0.37646440  0.16191517  1
  Pr  Pr46  1  0.16763069  0.62931745  0.49961041  1
  Pr  Pr47  1  0.50586363  0.12390160  0.50371882  1
  Pr  Pr48  1  -0.00046206  0.37826360  0.33358659  1
  Pr  Pr49  1  0.67198194  0.12534632  0.66848043  1
  Pr  Pr50  1  0.67355049  0.62380832  0.66865200  1
  Pr  Pr51  1  0.83191151  0.62966336  0.83804019  1
  Pr  Pr52  1  0.16351608  0.87403194  0.82608207  1
  Pr  Pr53  1  0.33779440  0.62355327  0.66128681  1
  Pr  Pr54  1  0.66309398  0.87433763  0.34383989  1
  Pr  Pr55  1  0.65860670  0.37576808  0.00619292  1
  Pr  Pr56  1  0.33208786  0.87568827  -0.00087048  1
  Pr  Pr57  1  0.16366781  0.37454647  0.49542759  1
  Pr  Pr58  1  -0.00027877  0.12169296  0.33384790  1
  Pr  Pr59  1  0.33637038  0.12650190  0.66063919  1
  Pr  Pr60  1  -0.00811709  0.37125892  0.66911209  1
  Pr  Pr61  1  0.67849180  0.12561101  0.33326184  1
  Pr  Pr62  1  0.50132214  0.87587196  0.82758295  1
  Pr  Pr63  1  0.33192889  0.12544446  0.99759048  1
  Pr  Pr64  1  0.83565158  0.87360650  0.16326936  1
  Pr  Pr65  1  0.83288542  0.12135913  0.83300947  1
  Pr  Pr66  1  0.33189605  0.62481313  1.00026924  1
  Pr  Pr67  1  -0.00241019  0.87364049  0.00333906  1
  Pr  Pr68  1  0.00342997  0.12549792  0.99761431  1
  Pr  Pr69  1  0.51002318  0.12200897  0.17070993  1
  Pr  Pr70  1  0.49891872  0.87467745  0.16915196  1
  Pr  Pr71  1  0.66013173  0.37174053  0.66886490  1
  Mn  Mn72  1  0.00129280  0.00076245  0.16427794  1
  Mn  Mn73  1  -0.00038593  0.00005170  0.50052088  1
  Mn  Mn74  1  0.00160758  0.00280537  0.83310846  1
  Mn  Mn75  1  -0.00196251  0.49884359  0.16756484  1
  Mn  Mn76  1  0.00109887  0.50076954  0.49978915  1
  Mn  Mn77  1  0.00057784  0.49883010  0.83116188  1
  Mn  Mn78  1  0.33737300  0.00075023  0.16572087  1
  Mn  Mn79  1  0.33536696  0.00072911  0.49869571  1
  Mn  Mn80  1  0.33164844  0.00131883  0.83146412  1
  Mn  Mn81  1  0.33642664  0.49926339  0.16566337  1
  Mn  Mn82  1  0.33351188  0.49982075  0.50060070  1
  Mn  Mn83  1  0.33098103  0.50020433  0.83080398  1
  Mn  Mn84  1  0.66908848  -0.00151631  0.17199710  1
  Mn  Mn85  1  0.66566769  -0.00013298  0.50166800  1
  Mn  Mn86  1  0.66513302  0.00155382  0.83330518  1
  Mn  Mn87  1  0.66638512  0.50052375  0.16860164  1
  Mn  Mn88  1  0.66458645  0.50227756  0.50059349  1
  Mn  Mn89  1  0.66369013  0.49883155  0.83389625  1
  Mn  Mn90  1  -0.00156313  0.24848670  0.16580761  1
  Mn  Mn91  1  0.00180802  0.25135490  0.49991406  1
  Mn  Mn92  1  0.00003819  0.24905215  0.83311869  1
  Mn  Mn93  1  0.00134157  0.75035556  0.16689456  1
  Mn  Mn94  1  -0.00161703  0.74718987  0.50000135  1
  Mn  Mn95  1  0.00122342  0.75056824  0.83086016  1
  Mn  Mn96  1  0.33709596  0.24635344  0.16582881  1
  Mn  Mn97  1  0.33440720  0.25022713  0.49845345  1
  Mn  Mn98  1  0.33017710  0.24886697  0.83071562  1
  Mn  Mn99  1  0.33765821  0.75299212  0.16665122  1
  Mn  Mn100  1  0.33451606  0.74956220  0.50113824  1
  Mn  Mn101  1  0.33260405  0.74927767  0.83204161  1
  Mn  Mn102  1  0.66633615  0.24940291  0.16830252  1
  Mn  Mn103  1  0.66308450  0.24959412  0.50163872  1
  Mn  Mn104  1  0.66427386  0.25030532  0.83542012  1
  Mn  Mn105  1  0.66969057  0.75240504  0.17198119  1
  Mn  Mn106  1  0.66672364  0.74880859  0.50013082  1
  Mn  Mn107  1  0.66479676  0.74936524  0.83284614  1
  Mn  Mn108  1  0.16582873  0.24794191  -0.00139602  1
  Mn  Mn109  1  0.16810804  0.24928314  0.33376104  1
  Mn  Mn110  1  0.16557214  0.25047997  0.66553296  1
  Mn  Mn111  1  0.16840898  0.75170452  -0.00325834  1
  Mn  Mn112  1  0.16817492  0.74928181  0.33413154  1
  Mn  Mn113  1  0.16505802  0.74828104  0.66829671  1
  Mn  Mn114  1  0.49725035  0.24773492  0.00071892  1
  Mn  Mn115  1  0.49920283  0.24819849  0.33464111  1
  Mn  Mn116  1  0.49753597  0.24990062  0.66630667  1
  Mn  Mn117  1  0.49682027  0.75204837  0.00093028  1
  Mn  Mn118  1  0.50350599  0.75152700  0.33626533  1
  Mn  Mn119  1  0.49877043  0.74894986  0.66835354  1
  Mn  Mn120  1  0.83225580  0.24893621  -0.00013694  1
  Mn  Mn121  1  0.83676839  0.25066731  0.33108648  1
  Mn  Mn122  1  0.83134912  0.25132819  0.66783579  1
  Mn  Mn123  1  0.83393405  0.75052698  -0.00002940  1
  Mn  Mn124  1  0.83411778  0.75057122  0.33293827  1
  Mn  Mn125  1  0.83467846  0.74744434  0.66539033  1
  Mn  Mn126  1  0.16721017  0.00091468  -0.00235886  1
  Mn  Mn127  1  0.16882915  0.00309914  0.33418635  1
  Mn  Mn128  1  0.16775513  0.00043429  0.66741555  1
  Mn  Mn129  1  0.16696639  0.49984539  -0.00259392  1
  Mn  Mn130  1  0.16721120  0.49769642  0.33444045  1
  Mn  Mn131  1  0.16360283  0.50023117  0.66648559  1
  Mn  Mn132  1  0.49675642  -0.00098701  0.00057035  1
  Mn  Mn133  1  0.50183441  0.00103156  0.33678326  1
  Mn  Mn134  1  0.49807283  0.00064564  0.66800879  1
  Mn  Mn135  1  0.49713493  0.50170183  0.00065753  1
  Mn  Mn136  1  0.50093718  0.49868721  0.33341448  1
  Mn  Mn137  1  0.49918834  0.50033312  0.66630451  1
  Mn  Mn138  1  0.83532793  0.00155088  0.00089140  1
  Mn  Mn139  1  0.83400696  -0.00127583  0.33303750  1
  Mn  Mn140  1  0.83404777  -0.00023105  0.66622933  1
  Mn  Mn141  1  0.83139688  0.50090318  -0.00194328  1
  Mn  Mn142  1  0.83599406  0.49948915  0.33145566  1
  Mn  Mn143  1  0.83189364  0.50017342  0.66613314  1
  O  O144  1  0.16301464  0.12438186  0.02572830  1
  O  O145  1  0.16960807  0.12916428  0.35528179  1
  O  O146  1  0.16951036  0.12667886  0.68931888  1
  O  O147  1  0.17126835  0.62558225  0.00934025  1
  O  O148  1  0.16223074  0.61851057  0.35251327  1
  O  O149  1  0.16022034  0.62095655  0.69505801  1
  O  O150  1  0.48789896  0.12349704  0.02605508  1
  O  O151  1  0.49052965  0.12502075  0.36186554  1
  O  O152  1  0.48651885  0.12780037  0.69235186  1
  O  O153  1  0.48841893  0.62616261  0.02651383  1
  O  O154  1  0.50449383  0.62780619  0.35530345  1
  O  O155  1  0.48712730  0.62246772  0.69316294  1
  O  O156  1  0.83969335  0.12621554  0.02623657  1
  O  O157  1  0.83331151  0.12544572  0.34214870  1
  O  O158  1  0.83135554  0.12951142  0.68516787  1
  O  O159  1  0.83315067  0.62516073  0.01344754  1
  O  O160  1  0.83456418  0.62489762  0.35178775  1
  O  O161  1  0.83265430  0.62020963  0.69211873  1
  O  O162  1  0.17009628  0.37130755  0.32112847  1
  O  O163  1  0.16991032  0.37618967  0.63760865  1
  O  O164  1  0.17471379  0.37215677  0.97761701  1
  O  O165  1  0.17528919  0.88059950  0.32572400  1
  O  O166  1  0.16737747  0.87618392  0.65620191  1
  O  O167  1  0.17448277  0.87907408  0.97175741  1
  O  O168  1  0.49677876  0.36904596  0.30750043  1
  O  O169  1  0.50837998  0.37466556  0.64018309  1
  O  O170  1  0.50816951  0.37405736  0.99137356  1
  O  O171  1  0.50936703  0.87882780  0.31168340  1
  O  O172  1  0.49853391  0.87509321  0.65287980  1
  O  O173  1  0.48999519  0.87631690  0.97156427  1
  O  O174  1  0.84416978  0.37342914  0.30802232  1
  O  O175  1  0.83719197  0.37662391  0.65508300  1
  O  O176  1  0.83646350  0.37326837  0.98797765  1
  O  O177  1  0.82655094  0.87572570  0.31014987  1
  O  O178  1  0.83637977  0.86984460  0.65137980  1
  O  O179  1  0.84438362  0.87712027  0.98824381  1
  O  O180  1  -0.00910940  0.37125228  0.18955168  1
  O  O181  1  0.00995150  0.37755514  0.52721319  1
  O  O182  1  0.00431163  0.37128054  0.85829678  1
  O  O183  1  -0.00592505  0.87812436  0.17776502  1
  O  O184  1  -0.00236793  0.86999838  0.51543849  1
  O  O185  1  0.00624079  0.88219465  0.85762107  1
  O  O186  1  0.34154214  0.36720386  0.18920633  1
  O  O187  1  0.33744552  0.37455168  0.52629060  1
  O  O188  1  0.32471278  0.37196333  0.85862364  1
  O  O189  1  0.34223689  0.87988846  0.19491324  1
  O  O190  1  0.33478767  0.87399051  0.51657498  1
  O  O191  1  0.33107859  0.87503906  0.85705597  1
  O  O192  1  0.66124586  0.37402345  0.17759854  1
  O  O193  1  0.65753016  0.37612720  0.52451340  1
  O  O194  1  0.66391240  0.37369773  0.86079768  1
  O  O195  1  0.66800339  0.87717416  0.19710881  1
  O  O196  1  0.67142705  0.87366982  0.51004143  1
  O  O197  1  0.65719385  0.87638525  0.84062176  1
  O  O198  1  0.00011965  0.12495984  0.13998230  1
  O  O199  1  0.00563421  0.13064743  0.47965485  1
  O  O200  1  0.00747934  0.12761844  0.80808971  1
  O  O201  1  0.00126427  0.62392756  0.15932419  1
  O  O202  1  -0.00455148  0.62047987  0.47274856  1
  O  O203  1  0.00936758  0.62064462  0.81178199  1
  O  O204  1  0.33950525  0.12360996  0.14093576  1
  O  O205  1  0.33671530  0.12904430  0.47511659  1
  O  O206  1  0.33006878  0.12730932  0.80247419  1
  O  O207  1  0.34433560  0.63002465  0.14611977  1
  O  O208  1  0.33228251  0.62273957  0.48892167  1
  O  O209  1  0.33073125  0.62536966  0.80409912  1
  O  O210  1  0.66889538  0.12445804  0.15869322  1
  O  O211  1  0.65758101  0.12529555  0.47763369  1
  O  O212  1  0.66166372  0.12764524  0.81480898  1
  O  O213  1  0.66223655  0.62603471  0.16093126  1
  O  O214  1  0.65970824  0.62562315  0.47373150  1
  O  O215  1  0.66152534  0.62241897  0.81474199  1
  O  O216  1  0.08599533  0.02367751  0.24733386  1
  O  O217  1  0.08539578  0.02133639  0.58639446  1
  O  O218  1  0.08492304  0.02608753  0.91541789  1
  O  O219  1  0.07954934  0.50563309  0.25727529  1
  O  O220  1  0.08618870  0.52736990  0.58027985  1
  O  O221  1  0.09261236  0.50731714  0.90460519  1
  O  O222  1  0.42555698  0.02220459  0.24787516  1
  O  O223  1  0.41832178  0.02206637  0.58164093  1
  O  O224  1  0.40974854  0.02509118  0.91418900  1
  O  O225  1  0.43064846  0.51125008  0.23864396  1
  O  O226  1  0.42446107  0.51669772  0.57534515  1
  O  O227  1  0.41609782  0.52123717  0.91175602  1
  O  O228  1  0.75467005  0.02051058  0.24900631  1
  O  O229  1  0.74576643  0.01560598  0.58497646  1
  O  O230  1  0.75559166  0.01521947  0.91364796  1
  O  O231  1  0.75602907  0.51023354  0.24420490  1
  O  O232  1  0.75198796  0.52370808  0.57949653  1
  O  O233  1  0.75380395  0.51670346  0.90829585  1
  O  O234  1  0.25869509  0.22697908  0.25124114  1
  O  O235  1  0.25728183  0.23066851  0.58535718  1
  O  O236  1  0.25130369  0.22349181  0.91511636  1
  O  O237  1  0.25827535  0.74602888  0.25050374  1
  O  O238  1  0.24771056  0.72590706  0.58932983  1
  O  O239  1  0.25428615  0.72891558  0.91605130  1
  O  O240  1  0.58767679  0.22486213  0.26128915  1
  O  O241  1  0.58390293  0.22407569  0.59063498  1
  O  O242  1  0.57774751  0.23189669  0.91736713  1
  O  O243  1  0.59513518  0.73633080  0.26496848  1
  O  O244  1  0.58540464  0.72559743  0.59047161  1
  O  O245  1  0.57523664  0.73717469  0.91678965  1
  O  O246  1  0.92303699  0.22278584  0.24934759  1
  O  O247  1  0.92592777  0.24021820  0.58892921  1
  O  O248  1  0.92310926  0.22784731  0.92065117  1
  O  O249  1  0.91967399  0.73628338  0.25550803  1
  O  O250  1  0.91756584  0.72135808  0.58345072  1
  O  O251  1  0.91703311  0.73632982  0.91000995  1
  O  O252  1  0.07452421  0.48161890  0.07698702  1
  O  O253  1  0.08417442  0.47785358  0.41910780  1
  O  O254  1  0.07953474  0.47092878  0.74333920  1
  O  O255  1  0.07925981  0.98413482  0.07357260  1
  O  O256  1  0.08516675  1.00075079  0.41681027  1
  O  O257  1  0.08701482  0.98705889  0.75510290  1
  O  O258  1  0.41123144  0.47653823  0.07571922  1
  O  O259  1  0.41140619  0.47625862  0.40828104  1
  O  O260  1  0.40264303  0.48122053  0.73648079  1
  O  O261  1  0.41653918  0.97363301  0.08293783  1
  O  O262  1  0.41336327  0.98098127  0.40872181  1
  O  O263  1  0.41619280  0.98195658  0.75311890  1
  O  O264  1  0.74219226  0.47911166  0.07919003  1
  O  O265  1  0.75018001  0.49610927  0.41192955  1
  O  O266  1  0.73858420  0.48583765  0.73838398  1
  O  O267  1  0.75610981  0.98560194  0.09196984  1
  O  O268  1  0.74257720  0.98988012  0.40907238  1
  O  O269  1  0.74893292  1.00239360  0.75051741  1
  O  O270  1  0.25250079  0.25899336  0.08000385  1
  O  O271  1  0.24990880  0.27170956  0.42344437  1
  O  O272  1  0.24184653  0.27313655  0.75283555  1
  O  O273  1  0.25672875  0.76473742  0.07438584  1
  O  O274  1  0.25163932  0.75721950  0.41818988  1
  O  O275  1  0.24500929  0.76516639  0.75627862  1
  O  O276  1  0.57694032  0.25913643  0.09276088  1
  O  O277  1  0.56920901  0.26392816  0.42949527  1
  O  O278  1  0.57935341  0.26288287  0.74765771  1
  O  O279  1  0.57743793  0.76516367  0.09855759  1
  O  O280  1  0.57773248  0.76908445  0.42507922  1
  O  O281  1  0.57394073  0.75655815  0.75638026  1
  O  O282  1  0.90841278  0.26866041  0.09004419  1
  O  O283  1  0.92335519  0.26455761  0.41056813  1
  O  O284  1  0.91755285  0.25907720  0.75151573  1
  O  O285  1  0.91689010  0.76653475  0.08438381  1
  O  O286  1  0.90678324  0.75825663  0.42325840  1
  O  O287  1  0.92085214  0.75274710  0.74496816  1
  O  O288  1  0.25443571  0.48781266  0.07874523  1
  O  O289  1  0.24670769  0.47939345  0.42330378  1
  O  O290  1  0.24080232  0.47711513  0.75448626  1
  O  O291  1  0.25577638  0.98877114  0.07425584  1
  O  O292  1  0.25700574  0.99422548  0.41114401  1
  O  O293  1  0.24802797  0.98340916  0.75316549  1
  O  O294  1  0.57661553  0.48843772  0.09120249  1
  O  O295  1  0.56997387  0.48478275  0.42837187  1
  O  O296  1  0.57982067  0.48504315  0.74873522  1
  O  O297  1  0.57880396  0.98770895  0.09848804  1
  O  O298  1  0.57810421  0.98415502  0.42369292  1
  O  O299  1  0.57472256  0.99519815  0.75520939  1
  O  O300  1  0.91029893  0.48144735  0.08750514  1
  O  O301  1  0.92282911  0.48194011  0.41344135  1
  O  O302  1  0.92270773  0.48816116  0.74339901  1
  O  O303  1  0.91850206  0.98379518  0.08279686  1
  O  O304  1  0.91444003  0.99345481  0.41488488  1
  O  O305  1  0.92042615  0.99802191  0.75014385  1
  O  O306  1  0.07045403  0.26514941  0.07356072  1
  O  O307  1  0.08207323  0.27168437  0.41723385  1
  O  O308  1  0.07807425  0.27365080  0.74643858  1
  O  O309  1  0.08182892  0.76790745  0.07326411  1
  O  O310  1  0.08289448  0.74830730  0.42011535  1
  O  O311  1  0.08288292  0.76906493  0.74858627  1
  O  O312  1  0.41142003  0.27184900  0.07720224  1
  O  O313  1  0.40974729  0.27392132  0.40961940  1
  O  O314  1  0.40285850  0.26954307  0.73572928  1
  O  O315  1  0.41522026  0.77916910  0.08106851  1
  O  O316  1  0.41563135  0.76885569  0.40930063  1
  O  O317  1  0.41489608  0.76927929  0.75339756  1
  O  O318  1  0.74351945  0.27082086  0.07709064  1
  O  O319  1  0.74474393  0.25439887  0.41228513  1
  O  O320  1  0.73873629  0.26293745  0.74487532  1
  O  O321  1  0.75268873  0.76753725  0.09006421  1
  O  O322  1  0.74209583  0.76027054  0.40693682  1
  O  O323  1  0.74809065  0.74842775  0.74604318  1
  O  O324  1  0.25446060  0.02414943  0.24747501  1
  O  O325  1  0.25196103  0.02336752  0.58262272  1
  O  O326  1  0.24831147  0.02682857  0.91401114  1
  O  O327  1  0.25720681  0.50216211  0.25392963  1
  O  O328  1  0.25285049  0.51876421  0.59199255  1
  O  O329  1  0.25586256  0.52012727  0.91621184  1
  O  O330  1  0.58900772  0.02382948  0.26237319  1
  O  O331  1  0.58311195  0.02402611  0.58980376  1
  O  O332  1  0.57543080  0.01410653  0.91528861  1
  O  O333  1  0.59019148  0.51865628  0.25966399  1
  O  O334  1  0.58534684  0.52684115  0.59134593  1
  O  O335  1  0.57777733  0.51671133  0.91885364  1
  O  O336  1  0.91979163  0.02033375  0.24758151  1
  O  O337  1  0.92187137  0.01378717  0.58791571  1
  O  O338  1  0.92057985  0.02732574  0.91521505  1
  O  O339  1  0.92151704  0.51781107  0.25500600  1
  O  O340  1  0.91822351  0.52129781  0.58185447  1
  O  O341  1  0.91750975  0.51359423  0.91012410  1
  O  O342  1  0.08480701  0.22741138  0.24533705  1
  O  O343  1  0.08953065  0.22910435  0.58046366  1
  O  O344  1  0.08823560  0.22870120  0.91015757  1
  O  O345  1  0.08384359  0.73862201  0.25297782  1
  O  O346  1  0.08251436  0.72363343  0.58381043  1
  O  O347  1  0.09268662  0.74214208  0.90767046  1
  O  O348  1  0.42413488  0.22340386  0.24496707  1
  O  O349  1  0.42234015  0.23039622  0.57418729  1
  O  O350  1  0.41366285  0.22760354  0.91055995  1
  O  O351  1  0.43411626  0.74133195  0.24156865  1
  O  O352  1  0.41880692  0.72955868  0.58342344  1
  O  O353  1  0.41203568  0.72467016  0.91421001  1
  O  O354  1  0.75869013  0.23788195  0.24147270  1
  O  O355  1  0.74329667  0.23965020  0.58709414  1
  O  O356  1  0.75874026  0.23023620  0.91044556  1
  O  O357  1  0.75599839  0.73090069  0.24879814  1
  O  O358  1  0.75321806  0.72331128  0.57772125  1
  O  O359  1  0.75221004  0.73864264  0.91168496  1
