# generated using pymatgen
data_Ba17Sr5La8Pr42Mn72O216
_symmetry_space_group_name_H-M   'P 1'
_cell_length_a   16.67640876
_cell_length_b   15.70302521
_cell_length_c   16.82137980
_cell_angle_alpha   90.00737821
_cell_angle_beta   90.02394241
_cell_angle_gamma   90.02065200
_symmetry_Int_Tables_number   1
_chemical_formula_structural   Ba17Sr5La8Pr42Mn72O216
_chemical_formula_sum   'Ba17 Sr5 La8 Pr42 Mn72 O216'
_cell_volume   4405.01515055
_cell_formula_units_Z   1
loop_
 _symmetry_equiv_pos_site_id
 _symmetry_equiv_pos_as_xyz
  1  'x, y, z'
loop_
 _atom_site_type_symbol
 _atom_site_label
 _atom_site_symmetry_multiplicity
 _atom_site_fract_x
 _atom_site_fract_y
 _atom_site_fract_z
 _atom_site_occupancy
  Ba  Ba0  1  0.66858673  0.62476696  0.66683298  1
  Ba  Ba1  1  0.33508491  0.12557397  0.66317339  1
  Ba  Ba2  1  0.16323146  0.87560543  0.16401318  1
  Ba  Ba3  1  0.32801349  0.87399600  -0.00154067  1
  Ba  Ba4  1  0.83624882  0.62394344  0.49952714  1
  Ba  Ba5  1  0.16706657  0.12657543  0.16600587  1
  Ba  Ba6  1  0.50274783  0.12492354  0.16809758  1
  Ba  Ba7  1  0.33275715  0.37605385  -0.00170853  1
  Ba  Ba8  1  0.16920063  0.12527982  0.50024944  1
  Ba  Ba9  1  0.16341869  0.87715225  0.49866442  1
  Ba  Ba10  1  0.50314073  0.62458581  0.16626806  1
  Ba  Ba11  1  0.66359293  0.87349844  0.66907512  1
  Ba  Ba12  1  -0.00238836  0.62306046  0.99810134  1
  Ba  Ba13  1  0.33591794  0.62402193  0.99804072  1
  Ba  Ba14  1  0.33597213  0.62422529  0.33225189  1
  Ba  Ba15  1  0.50097444  0.37327441  0.16692404  1
  Ba  Ba16  1  0.66636273  0.37591280  0.66830950  1
  Sr  Sr17  1  0.16296678  0.37764321  0.83306545  1
  Sr  Sr18  1  0.50454781  0.62308530  0.49894584  1
  Sr  Sr19  1  0.49971458  0.37661317  0.50044714  1
  Sr  Sr20  1  0.66837236  0.62419936  1.00181060  1
  Sr  Sr21  1  -0.00017556  0.37571895  0.00145464  1
  La  La22  1  0.32758743  0.87314182  0.32996311  1
  La  La23  1  0.00389755  0.62350007  0.66473205  1
  La  La24  1  0.32354165  0.87652529  0.66777755  1
  La  La25  1  0.33505743  0.12298755  0.33123182  1
  La  La26  1  0.17009301  0.62200783  0.83593021  1
  La  La27  1  0.66121740  0.37391201  0.33761314  1
  La  La28  1  0.83624193  0.62373355  0.16970314  1
  La  La29  1  -0.00520297  0.87831809  0.33506675  1
  Pr  Pr30  1  0.34037486  0.62456198  0.66114526  1
  Pr  Pr31  1  0.33074233  0.37236575  0.66944771  1
  Pr  Pr32  1  0.50588446  0.12575106  0.50353528  1
  Pr  Pr33  1  0.48650903  0.87194272  0.82924447  1
  Pr  Pr34  1  0.17524397  0.12919970  0.83638481  1
  Pr  Pr35  1  0.83886801  0.12650899  0.16941640  1
  Pr  Pr36  1  0.34061168  0.12588688  0.99732398  1
  Pr  Pr37  1  0.67172809  0.12709641  1.00203020  1
  Pr  Pr38  1  0.82551669  0.87301663  0.49752828  1
  Pr  Pr39  1  0.48902422  0.87515996  0.16533239  1
  Pr  Pr40  1  0.16850634  0.37832731  0.16060104  1
  Pr  Pr41  1  0.83471919  0.37647599  0.83237278  1
  Pr  Pr42  1  0.83683074  0.12543754  0.83503505  1
  Pr  Pr43  1  0.00676924  0.12610415  0.99703002  1
  Pr  Pr44  1  -0.00040924  0.37388476  0.66854691  1
  Pr  Pr45  1  0.00441450  0.12745483  0.66472902  1
  Pr  Pr46  1  0.65717741  0.87566607  0.00444948  1
  Pr  Pr47  1  0.17307910  0.62269068  0.16252446  1
  Pr  Pr48  1  0.82938694  0.62350122  0.83468010  1
  Pr  Pr49  1  -0.00677570  0.87532638  0.00423216  1
  Pr  Pr50  1  0.50940732  0.12392632  0.83686539  1
  Pr  Pr51  1  0.82992104  0.37756141  0.49763601  1
  Pr  Pr52  1  0.67458394  0.12716970  0.33314677  1
  Pr  Pr53  1  0.66587664  0.37577860  0.00237625  1
  Pr  Pr54  1  0.33684807  0.37451719  0.33178408  1
  Pr  Pr55  1  0.65745264  0.87636235  0.33998522  1
  Pr  Pr56  1  0.15606799  0.87269547  0.83020216  1
  Pr  Pr57  1  0.00594757  0.62633944  0.32805382  1
  Pr  Pr58  1  0.67109211  0.12444056  0.66574210  1
  Pr  Pr59  1  -0.00520089  0.87639716  0.66531339  1
  Pr  Pr60  1  0.00708523  0.12490366  0.33206183  1
  Pr  Pr61  1  0.66904821  0.62048407  0.33193700  1
  Pr  Pr62  1  0.17297013  0.62617154  0.50160301  1
  Pr  Pr63  1  0.16978169  0.37305819  0.49897081  1
  Pr  Pr64  1  0.49132863  0.87113671  0.50268963  1
  Pr  Pr65  1  0.49332545  0.37926358  0.82921420  1
  Pr  Pr66  1  0.83309962  0.37490737  0.16314871  1
  Pr  Pr67  1  0.82733007  0.87494051  0.16510998  1
  Pr  Pr68  1  0.00181411  0.37221274  0.33444384  1
  Pr  Pr69  1  0.51073755  0.62455330  0.83937553  1
  Pr  Pr70  1  0.83641181  0.12398323  0.50493395  1
  Pr  Pr71  1  0.82817901  0.87141503  0.83406491  1
  Mn  Mn72  1  -0.00296656  0.00095344  0.16666776  1
  Mn  Mn73  1  -0.00384782  0.00156981  0.50100529  1
  Mn  Mn74  1  -0.00100696  0.00094307  0.83365573  1
  Mn  Mn75  1  -0.00045365  0.49944038  0.16753288  1
  Mn  Mn76  1  0.00336107  0.49842740  0.49871190  1
  Mn  Mn77  1  -0.00226445  0.49832360  0.83085538  1
  Mn  Mn78  1  0.33229274  0.00154549  0.16450808  1
  Mn  Mn79  1  0.33554856  -0.00116709  0.49800233  1
  Mn  Mn80  1  0.33156300  0.00126332  0.83175524  1
  Mn  Mn81  1  0.33342279  0.49887183  0.16704236  1
  Mn  Mn82  1  0.33517197  0.49919774  0.50042771  1
  Mn  Mn83  1  0.33282545  0.49970566  0.82838827  1
  Mn  Mn84  1  0.66816549  -0.00018449  0.17062459  1
  Mn  Mn85  1  0.66623707  0.00028373  0.50109198  1
  Mn  Mn86  1  0.66760705  -0.00025347  0.83638551  1
  Mn  Mn87  1  0.66989179  0.49908063  0.16709184  1
  Mn  Mn88  1  0.66683790  0.49939066  0.50026642  1
  Mn  Mn89  1  0.66793238  0.49839590  0.83714163  1
  Mn  Mn90  1  -0.00072497  0.25134126  0.16671610  1
  Mn  Mn91  1  -0.00033404  0.25165726  0.50072125  1
  Mn  Mn92  1  0.00011148  0.25049234  0.83292640  1
  Mn  Mn93  1  -0.00146850  0.74988514  0.16675736  1
  Mn  Mn94  1  -0.00042720  0.74912881  0.49816104  1
  Mn  Mn95  1  -0.00357099  0.75039185  0.83162440  1
  Mn  Mn96  1  0.33315898  0.24967365  0.16610522  1
  Mn  Mn97  1  0.33627761  0.25252204  0.49912201  1
  Mn  Mn98  1  0.33448029  0.24980393  0.83181022  1
  Mn  Mn99  1  0.33187248  0.74916815  0.16600141  1
  Mn  Mn100  1  0.33364388  0.74865150  0.49964876  1
  Mn  Mn101  1  0.33008655  0.74879294  0.82889690  1
  Mn  Mn102  1  0.67021854  0.24868717  0.16837604  1
  Mn  Mn103  1  0.66788461  0.24900269  0.50102103  1
  Mn  Mn104  1  0.66832270  0.24896744  0.83506653  1
  Mn  Mn105  1  0.66919299  0.75296457  0.16964830  1
  Mn  Mn106  1  0.66525730  0.75050728  0.49964093  1
  Mn  Mn107  1  0.66627360  0.75135713  0.83815632  1
  Mn  Mn108  1  0.16609329  0.25182166  0.00007202  1
  Mn  Mn109  1  0.16776173  0.25252038  0.33238598  1
  Mn  Mn110  1  0.16556567  0.25179731  0.66750411  1
  Mn  Mn111  1  0.16280994  0.74887890  -0.00362467  1
  Mn  Mn112  1  0.16469238  0.74889516  0.33231498  1
  Mn  Mn113  1  0.16446818  0.74900030  0.66673973  1
  Mn  Mn114  1  0.50256120  0.24857619  -0.00181917  1
  Mn  Mn115  1  0.50029555  0.24873524  0.33712394  1
  Mn  Mn116  1  0.50139265  0.24980486  0.66782937  1
  Mn  Mn117  1  0.50097673  0.75050659  -0.00066953  1
  Mn  Mn118  1  0.50215761  0.75144636  0.33352275  1
  Mn  Mn119  1  0.49739984  0.74905788  0.66636932  1
  Mn  Mn120  1  0.83460744  0.24923137  0.00024442  1
  Mn  Mn121  1  0.83570859  0.25036457  0.33417799  1
  Mn  Mn122  1  0.83492617  0.24886995  0.66767676  1
  Mn  Mn123  1  0.83038185  0.75073992  0.00092890  1
  Mn  Mn124  1  0.83352360  0.75156420  0.33204067  1
  Mn  Mn125  1  0.83564553  0.75123983  0.66666890  1
  Mn  Mn126  1  0.16480208  0.00241861  -0.00370767  1
  Mn  Mn127  1  0.16562272  0.00029947  0.33242272  1
  Mn  Mn128  1  0.16350627  -0.00035441  0.66831176  1
  Mn  Mn129  1  0.16453163  0.49869369  -0.00258589  1
  Mn  Mn130  1  0.16592513  0.49751337  0.33256662  1
  Mn  Mn131  1  0.16651099  0.50029604  0.66524773  1
  Mn  Mn132  1  0.50125084  -0.00014362  0.00001057  1
  Mn  Mn133  1  0.49961424  -0.00104855  0.33614006  1
  Mn  Mn134  1  0.49969004  0.00036187  0.66842193  1
  Mn  Mn135  1  0.50289244  0.49978731  -0.00132770  1
  Mn  Mn136  1  0.50178846  0.49891483  0.33503916  1
  Mn  Mn137  1  0.49948383  0.49970320  0.66555192  1
  Mn  Mn138  1  0.83271800  0.00139161  0.00109988  1
  Mn  Mn139  1  0.83260455  0.00256924  0.33441695  1
  Mn  Mn140  1  0.83419508  0.00019121  0.66896252  1
  Mn  Mn141  1  0.83220995  0.49888504  -0.00003961  1
  Mn  Mn142  1  0.83569249  0.49767712  0.33232135  1
  Mn  Mn143  1  0.83666367  0.49836402  0.66621984  1
  O  O144  1  0.15871945  0.12770537  0.00946628  1
  O  O145  1  0.16319654  0.12811159  0.34402361  1
  O  O146  1  0.15833172  0.12303734  0.69059737  1
  O  O147  1  0.16272365  0.62146844  0.01513906  1
  O  O148  1  0.15863004  0.62029295  0.35871242  1
  O  O149  1  0.16351784  0.62460811  0.69171847  1
  O  O150  1  0.49937846  0.12241765  0.00997184  1
  O  O151  1  0.48864165  0.12232918  0.35965787  1
  O  O152  1  0.50657288  0.12492159  0.69273566  1
  O  O153  1  0.50641697  0.62588085  0.00378006  1
  O  O154  1  0.50805063  0.62801159  0.34666028  1
  O  O155  1  0.49170694  0.62563468  0.69268514  1
  O  O156  1  0.83135472  0.12468529  0.02760047  1
  O  O157  1  0.82866236  0.12746927  0.36296233  1
  O  O158  1  0.83472156  0.12415735  0.69146101  1
  O  O159  1  0.82940779  0.62792833  0.02564381  1
  O  O160  1  0.83084892  0.62519837  0.34342684  1
  O  O161  1  0.84362990  0.62611095  0.68911537  1
  O  O162  1  0.16151003  0.37533688  0.30480410  1
  O  O163  1  0.16153647  0.37931082  0.64239460  1
  O  O164  1  0.16155389  0.37405755  0.98395689  1
  O  O165  1  0.16308145  0.87471748  0.32319222  1
  O  O166  1  0.16230789  0.87355175  0.65545060  1
  O  O167  1  0.15654924  0.87878155  0.97439131  1
  O  O168  1  0.50989985  0.37170404  0.32582564  1
  O  O169  1  0.49431062  0.37390750  0.65099748  1
  O  O170  1  0.50918717  0.37062237  0.97549647  1
  O  O171  1  0.51210329  0.87743896  0.30894222  1
  O  O172  1  0.49363719  0.87468879  0.64867027  1
  O  O173  1  0.50605381  0.87851271  0.97530596  1
  O  O174  1  0.83864832  0.37109155  0.30636846  1
  O  O175  1  0.84033927  0.36937618  0.64207939  1
  O  O176  1  0.82824636  0.36927929  0.97456517  1
  O  O177  1  0.83868136  0.88103394  0.30886674  1
  O  O178  1  0.84098352  0.87916528  0.64190987  1
  O  O179  1  0.83839269  0.87932569  0.97600911  1
  O  O180  1  -0.00506515  0.37467644  0.19109851  1
  O  O181  1  0.00258258  0.37419983  0.52579750  1
  O  O182  1  -0.00570583  0.37300369  0.85228120  1
  O  O183  1  -0.00786514  0.87591894  0.18925185  1
  O  O184  1  -0.00780931  0.87976832  0.52085040  1
  O  O185  1  0.00581058  0.88218217  0.86196115  1
  O  O186  1  0.32432831  0.37400158  0.18456597  1
  O  O187  1  0.33127445  0.37892794  0.52534533  1
  O  O188  1  0.34212319  0.37304507  0.84260703  1
  O  O189  1  0.33575088  0.87639782  0.18090799  1
  O  O190  1  0.33994030  0.87233213  0.52289722  1
  O  O191  1  0.33678255  0.87585556  0.84210840  1
  O  O192  1  0.67690169  0.37125571  0.19210145  1
  O  O193  1  0.67136016  0.37163701  0.50994590  1
  O  O194  1  0.67781024  0.37062939  0.85803625  1
  O  O195  1  0.67820880  0.87956001  0.19790347  1
  O  O196  1  0.67306459  0.87819501  0.51136006  1
  O  O197  1  0.67872065  0.87816521  0.86013360  1
  O  O198  1  -0.00842158  0.12704562  0.14218890  1
  O  O199  1  -0.01000617  0.12831346  0.47539902  1
  O  O200  1  -0.01016491  0.12214136  0.80595770  1
  O  O201  1  -0.00832794  0.62456233  0.15502384  1
  O  O202  1  0.00524203  0.61833786  0.47170154  1
  O  O203  1  -0.01289466  0.62187198  0.80824999  1
  O  O204  1  0.33461873  0.12549192  0.14629580  1
  O  O205  1  0.34172637  0.12493999  0.47616642  1
  O  O206  1  0.32712436  0.12582017  0.81855055  1
  O  O207  1  0.32780039  0.62340883  0.15962941  1
  O  O208  1  0.32530879  0.62320127  0.48784334  1
  O  O209  1  0.32481768  0.62477268  0.80547076  1
  O  O210  1  0.67451494  0.12324944  0.14497048  1
  O  O211  1  0.66909519  0.12296028  0.47743962  1
  O  O212  1  0.66138144  0.12377262  0.80895016  1
  O  O213  1  0.67548888  0.62743331  0.15271505  1
  O  O214  1  0.66621331  0.62759036  0.47746231  1
  O  O215  1  0.66158886  0.62567431  0.82531098  1
  O  O216  1  0.07766564  0.01249213  0.24988574  1
  O  O217  1  0.07749836  0.01492071  0.58726862  1
  O  O218  1  0.08752058  0.02751254  0.90319504  1
  O  O219  1  0.08174151  0.51978955  0.25166890  1
  O  O220  1  0.09057712  0.52258432  0.57633189  1
  O  O221  1  0.08389740  0.51292729  0.90564918  1
  O  O222  1  0.41958059  0.00710321  0.25151829  1
  O  O223  1  0.42854689  0.01325899  0.56902902  1
  O  O224  1  0.42178180  0.01735688  0.90576968  1
  O  O225  1  0.41499369  0.49733912  0.25354703  1
  O  O226  1  0.41580196  0.51923547  0.58407211  1
  O  O227  1  0.42483627  0.51194646  0.90095225  1
  O  O228  1  0.75819522  0.02574291  0.24581104  1
  O  O229  1  0.75451706  0.02092963  0.57916800  1
  O  O230  1  0.75731266  0.02612569  0.91391255  1
  O  O231  1  0.75563655  0.51642775  0.24675385  1
  O  O232  1  0.75734569  0.50364624  0.58138484  1
  O  O233  1  0.75037199  0.51804709  0.91969721  1
  O  O234  1  0.25661039  0.23795922  0.25925074  1
  O  O235  1  0.25171333  0.24753355  0.58360921  1
  O  O236  1  0.25554681  0.23138712  0.92058767  1
  O  O237  1  0.24918209  0.74155766  0.25244290  1
  O  O238  1  0.25462773  0.73291382  0.59405712  1
  O  O239  1  0.24816756  0.73796832  0.91117600  1
  O  O240  1  0.59303459  0.23397294  0.26129173  1
  O  O241  1  0.58949689  0.22671355  0.59093207  1
  O  O242  1  0.59053758  0.22612172  0.92003565  1
  O  O243  1  0.60265156  0.73821836  0.26459753  1
  O  O244  1  0.58121138  0.74142132  0.58630487  1
  O  O245  1  0.59167077  0.74284246  0.92558864  1
  O  O246  1  0.91843658  0.22582345  0.25457382  1
  O  O247  1  0.91680954  0.22730415  0.58573922  1
  O  O248  1  0.91786212  0.22613230  0.91822359  1
  O  O249  1  0.92639326  0.73626521  0.26058978  1
  O  O250  1  0.93158464  0.73627505  0.59141348  1
  O  O251  1  0.91275724  0.74082347  0.91518293  1
  O  O252  1  0.08293382  0.48459058  0.09079580  1
  O  O253  1  0.08335896  0.47017631  0.41534020  1
  O  O254  1  0.07646054  0.48527046  0.74036199  1
  O  O255  1  0.06987805  0.99039655  0.06634971  1
  O  O256  1  0.06946403  0.99258569  0.41149490  1
  O  O257  1  0.07260071  0.97778458  0.74879414  1
  O  O258  1  0.42032615  0.49280895  0.07911909  1
  O  O259  1  0.41489296  0.48286807  0.41687262  1
  O  O260  1  0.41038397  0.48155419  0.74186090  1
  O  O261  1  0.41635250  0.98718817  0.08245640  1
  O  O262  1  0.41322939  0.97007242  0.40997069  1
  O  O263  1  0.40812742  0.98225723  0.74250267  1
  O  O264  1  0.75142313  0.47544235  0.08402992  1
  O  O265  1  0.75262746  0.47913067  0.41058124  1
  O  O266  1  0.75578257  0.49037257  0.76055331  1
  O  O267  1  0.74392144  0.97841207  0.07866832  1
  O  O268  1  0.74306496  0.98351957  0.40804160  1
  O  O269  1  0.75045409  0.98855918  0.75250661  1
  O  O270  1  0.24293880  0.26450873  0.08919885  1
  O  O271  1  0.24904814  0.27425997  0.41661721  1
  O  O272  1  0.24713987  0.26710345  0.75188033  1
  O  O273  1  0.24208667  0.75113034  0.08627213  1
  O  O274  1  0.24652118  0.75904124  0.41918781  1
  O  O275  1  0.23860888  0.77002540  0.75526749  1
  O  O276  1  0.59158579  0.26066248  0.07794704  1
  O  O277  1  0.58224003  0.25455912  0.42225608  1
  O  O278  1  0.57626735  0.26608038  0.76203846  1
  O  O279  1  0.58240735  0.77685178  0.09768513  1
  O  O280  1  0.57665234  0.77315712  0.42272806  1
  O  O281  1  0.57010682  0.76350984  0.76431583  1
  O  O282  1  0.91152476  0.26926053  0.08795299  1
  O  O283  1  0.91660211  0.27537404  0.41802893  1
  O  O284  1  0.91590818  0.27005391  0.75107952  1
  O  O285  1  0.90692885  0.77108278  0.08916963  1
  O  O286  1  0.90582269  0.77290836  0.42138589  1
  O  O287  1  0.91345693  0.77890279  0.75432672  1
  O  O288  1  0.24496675  0.48989653  0.08822096  1
  O  O289  1  0.24842996  0.47491013  0.41583669  1
  O  O290  1  0.24858197  0.47901748  0.74452157  1
  O  O291  1  0.24570680  0.99626456  0.08025913  1
  O  O292  1  0.25442572  0.98988070  0.41381465  1
  O  O293  1  0.23931940  0.98365619  0.75888650  1
  O  O294  1  0.59233359  0.48432351  0.08127127  1
  O  O295  1  0.58839814  0.48946339  0.41407031  1
  O  O296  1  0.57565933  0.48698548  0.75903858  1
  O  O297  1  0.58158627  0.97663285  0.09563263  1
  O  O298  1  0.57258401  0.98325354  0.42997954  1
  O  O299  1  0.57331185  0.98282866  0.76863383  1
  O  O300  1  0.91222558  0.48106243  0.08597767  1
  O  O301  1  0.91706960  0.47425542  0.41872822  1
  O  O302  1  0.91574600  0.47311615  0.74833304  1
  O  O303  1  0.90772908  0.98034706  0.08999886  1
  O  O304  1  0.90471459  0.98327440  0.42487014  1
  O  O305  1  0.91336020  0.97525335  0.75972396  1
  O  O306  1  0.07949467  0.26744967  0.08515584  1
  O  O307  1  0.08456383  0.27145330  0.41708457  1
  O  O308  1  0.07748450  0.26621045  0.74703743  1
  O  O309  1  0.06995969  0.76593632  0.07377323  1
  O  O310  1  0.06779386  0.76283346  0.40368300  1
  O  O311  1  0.07231214  0.76685587  0.73965809  1
  O  O312  1  0.41511417  0.25447058  0.07573330  1
  O  O313  1  0.41177543  0.27186351  0.41257913  1
  O  O314  1  0.41376460  0.26739410  0.74403642  1
  O  O315  1  0.41931095  0.76307065  0.08077082  1
  O  O316  1  0.41489107  0.77215075  0.41096931  1
  O  O317  1  0.40233873  0.76602483  0.73653134  1
  O  O318  1  0.75152078  0.27027474  0.08155092  1
  O  O319  1  0.75247477  0.27045009  0.41364082  1
  O  O320  1  0.75521929  0.25962399  0.75549470  1
  O  O321  1  0.74347923  0.77765689  0.07822359  1
  O  O322  1  0.74374720  0.76885208  0.40414469  1
  O  O323  1  0.75092546  0.76069958  0.75649206  1
  O  O324  1  0.25823433  0.01009767  0.25428688  1
  O  O325  1  0.25514437  0.00352467  0.58703254  1
  O  O326  1  0.25364424  0.02227157  0.91974071  1
  O  O327  1  0.24111391  0.51163525  0.24683009  1
  O  O328  1  0.24979237  0.51979208  0.58465290  1
  O  O329  1  0.24888623  0.51109038  0.90702071  1
  O  O330  1  0.59601780  0.01885203  0.26824371  1
  O  O331  1  0.59085409  0.02234136  0.59261073  1
  O  O332  1  0.59661971  0.01921045  0.92795522  1
  O  O333  1  0.59405836  0.50998959  0.25549883  1
  O  O334  1  0.58073234  0.51023936  0.58441851  1
  O  O335  1  0.58618300  0.50630761  0.91740594  1
  O  O336  1  0.91825228  0.02692844  0.26004757  1
  O  O337  1  0.91938263  0.02527525  0.58897402  1
  O  O338  1  0.92507141  0.02392618  0.92183157  1
  O  O339  1  0.91947364  0.51639666  0.25411760  1
  O  O340  1  0.93017743  0.51200130  0.58834216  1
  O  O341  1  0.90745003  0.51125827  0.90842029  1
  O  O342  1  0.07634367  0.23915001  0.25622544  1
  O  O343  1  0.07815513  0.23528649  0.58661844  1
  O  O344  1  0.08377520  0.22969556  0.91054983  1
  O  O345  1  0.08937677  0.72579621  0.24242890  1
  O  O346  1  0.09258881  0.72718062  0.57627849  1
  O  O347  1  0.08764659  0.73373970  0.90054644  1
  O  O348  1  0.41537147  0.24092558  0.25482717  1
  O  O349  1  0.42816675  0.23482350  0.57492250  1
  O  O350  1  0.42306170  0.22944328  0.90904243  1
  O  O351  1  0.42352267  0.75169195  0.24744610  1
  O  O352  1  0.42017118  0.73078076  0.57732213  1
  O  O353  1  0.42363134  0.73786651  0.89641035  1
  O  O354  1  0.75707112  0.22686748  0.24985336  1
  O  O355  1  0.75359460  0.22658947  0.58310449  1
  O  O356  1  0.75286327  0.22214123  0.91738934  1
  O  O357  1  0.76583008  0.73811453  0.23730629  1
  O  O358  1  0.75695874  0.74604116  0.57754258  1
  O  O359  1  0.75602426  0.73297577  0.91409617  1
