# generated using pymatgen
data_Ba17Sr5La8Pr42Mn72O216
_symmetry_space_group_name_H-M   'P 1'
_cell_length_a   16.67177879
_cell_length_b   15.69916609
_cell_length_c   16.81960542
_cell_angle_alpha   89.98875011
_cell_angle_beta   89.99109256
_cell_angle_gamma   90.00539134
_symmetry_Int_Tables_number   1
_chemical_formula_structural   Ba17Sr5La8Pr42Mn72O216
_chemical_formula_sum   'Ba17 Sr5 La8 Pr42 Mn72 O216'
_cell_volume   4402.24603466
_cell_formula_units_Z   1
loop_
 _symmetry_equiv_pos_site_id
 _symmetry_equiv_pos_as_xyz
  1  'x, y, z'
loop_
 _atom_site_type_symbol
 _atom_site_label
 _atom_site_symmetry_multiplicity
 _atom_site_fract_x
 _atom_site_fract_y
 _atom_site_fract_z
 _atom_site_occupancy
  Ba  Ba0  1  0.66397081  0.62453641  0.33023912  1
  Ba  Ba1  1  -0.00086146  0.37313172  -0.00009718  1
  Ba  Ba2  1  0.66836664  0.37461836  -0.00116166  1
  Ba  Ba3  1  0.33203028  0.37390892  0.33833947  1
  Ba  Ba4  1  0.33380365  0.37519845  0.00308289  1
  Ba  Ba5  1  0.33114545  0.62497546  1.00515787  1
  Ba  Ba6  1  0.50026714  0.87440484  0.83167938  1
  Ba  Ba7  1  0.66701484  0.12389804  0.33293836  1
  Ba  Ba8  1  0.50064099  0.87423762  0.50098642  1
  Ba  Ba9  1  0.00032898  0.62624959  0.33119790  1
  Ba  Ba10  1  0.16708389  0.37360463  0.83592795  1
  Ba  Ba11  1  0.83456103  0.37385315  0.49924861  1
  Ba  Ba12  1  0.83511908  0.87834960  0.82861572  1
  Ba  Ba13  1  -0.00177130  0.12351253  0.33317135  1
  Ba  Ba14  1  0.16613366  0.62735191  0.16985423  1
  Ba  Ba15  1  0.33292073  0.12355967  0.33701868  1
  Ba  Ba16  1  0.00126706  0.62667433  0.66400935  1
  Sr  Sr17  1  0.83089907  0.12903538  0.49799005  1
  Sr  Sr18  1  0.50219282  0.37723247  0.83358103  1
  Sr  Sr19  1  0.49718993  0.62228873  0.16834784  1
  Sr  Sr20  1  0.16520122  0.37601162  0.50256519  1
  Sr  Sr21  1  0.83462518  0.37513317  0.16618805  1
  La  La22  1  0.33560898  0.37285765  0.67575143  1
  La  La23  1  0.00204252  0.87490169  -0.00085044  1
  La  La24  1  0.33525705  0.12410752  0.66887265  1
  La  La25  1  0.66260915  0.62340451  0.99853412  1
  La  La26  1  0.82685877  0.62222680  0.49961737  1
  La  La27  1  0.66594794  0.12596602  0.99905870  1
  La  La28  1  0.00090943  0.37445478  0.66990551  1
  La  La29  1  -0.00284416  0.12539690  0.99962264  1
  Pr  Pr30  1  0.16836793  0.62250586  0.50136244  1
  Pr  Pr31  1  0.67202250  0.87579991  0.66799069  1
  Pr  Pr32  1  0.33590448  0.87288312  0.00536188  1
  Pr  Pr33  1  0.33529842  0.87636680  0.67370380  1
  Pr  Pr34  1  0.33431806  0.62605343  0.33020858  1
  Pr  Pr35  1  0.82925673  0.13122714  0.16837115  1
  Pr  Pr36  1  0.33251212  0.12583240  1.00190531  1
  Pr  Pr37  1  0.16479576  0.87455048  0.50077531  1
  Pr  Pr38  1  0.50486601  0.87474521  0.16611312  1
  Pr  Pr39  1  0.16657383  0.12530760  0.83789401  1
  Pr  Pr40  1  0.16927681  0.12674515  0.50335515  1
  Pr  Pr41  1  0.66860863  0.37548624  0.33260163  1
  Pr  Pr42  1  0.00122506  0.87558822  0.33036717  1
  Pr  Pr43  1  0.66371337  0.12180217  0.65929120  1
  Pr  Pr44  1  0.82844561  0.12691475  0.83093824  1
  Pr  Pr45  1  0.16466479  0.12954965  0.17206964  1
  Pr  Pr46  1  0.66888726  0.87494021  -0.00065397  1
  Pr  Pr47  1  0.50207313  0.37468595  0.49978621  1
  Pr  Pr48  1  0.49231669  0.62407038  0.84011235  1
  Pr  Pr49  1  0.49785874  0.12656982  0.83654418  1
  Pr  Pr50  1  -0.00546134  0.62346834  0.99534459  1
  Pr  Pr51  1  0.33120913  0.62465834  0.67255891  1
  Pr  Pr52  1  0.00183461  0.87525777  0.66874917  1
  Pr  Pr53  1  0.49282559  0.62387147  0.50031068  1
  Pr  Pr54  1  0.16613765  0.37465982  0.16490152  1
  Pr  Pr55  1  0.49878919  0.13008694  0.17150797  1
  Pr  Pr56  1  0.66005478  0.62534266  0.66205430  1
  Pr  Pr57  1  0.16908146  0.87237974  0.83216270  1
  Pr  Pr58  1  0.49619089  0.12615582  0.50279829  1
  Pr  Pr59  1  0.83723396  0.37435349  0.82829943  1
  Pr  Pr60  1  0.16234561  0.62295053  0.84346606  1
  Pr  Pr61  1  0.83170411  0.61940918  0.16590422  1
  Pr  Pr62  1  0.83615762  0.87430515  0.49293848  1
  Pr  Pr63  1  0.67685024  0.37373547  0.67142455  1
  Pr  Pr64  1  0.33265985  0.87139788  0.33942513  1
  Pr  Pr65  1  0.66873615  0.87278573  0.33368558  1
  Pr  Pr66  1  0.50540038  0.37600788  0.16533566  1
  Pr  Pr67  1  0.17072683  0.87859180  0.17014794  1
  Pr  Pr68  1  0.00302628  0.37736304  0.33243230  1
  Pr  Pr69  1  0.00119347  0.12351902  0.65871640  1
  Pr  Pr70  1  0.82587665  0.62516738  0.83310953  1
  Pr  Pr71  1  0.83371583  0.87763024  0.16056434  1
  Mn  Mn72  1  -0.00038588  -0.00182173  0.16385704  1
  Mn  Mn73  1  -0.00041434  -0.00095348  0.49881530  1
  Mn  Mn74  1  0.00169201  0.00157377  0.83039308  1
  Mn  Mn75  1  -0.00023355  0.50031319  0.16506808  1
  Mn  Mn76  1  0.00173526  0.50021297  0.49921867  1
  Mn  Mn77  1  -0.00095029  0.50103245  0.83159041  1
  Mn  Mn78  1  0.33498252  -0.00056413  0.16814479  1
  Mn  Mn79  1  0.33307835  -0.00137745  0.50422142  1
  Mn  Mn80  1  0.33240789  0.00149288  0.83712233  1
  Mn  Mn81  1  0.33341569  0.49976300  0.17165697  1
  Mn  Mn82  1  0.33250830  0.50082711  0.50483108  1
  Mn  Mn83  1  0.33357223  0.49852222  0.83480335  1
  Mn  Mn84  1  0.66649413  -0.00114995  0.16428440  1
  Mn  Mn85  1  0.66719510  -0.00082129  0.49787843  1
  Mn  Mn86  1  0.66591535  0.00182657  0.83041603  1
  Mn  Mn87  1  0.66681141  0.50042405  0.16534792  1
  Mn  Mn88  1  0.66370048  0.49889802  0.50001250  1
  Mn  Mn89  1  0.66633536  0.50038704  0.83011685  1
  Mn  Mn90  1  -0.00052558  0.24860209  0.16646562  1
  Mn  Mn91  1  0.00233362  0.25043921  0.49924277  1
  Mn  Mn92  1  -0.00028043  0.24600252  0.83040226  1
  Mn  Mn93  1  -0.00146518  0.75311391  0.16362341  1
  Mn  Mn94  1  -0.00015538  0.75094882  0.49831366  1
  Mn  Mn95  1  -0.00074223  0.75145764  0.83170072  1
  Mn  Mn96  1  0.33332197  0.24968755  0.16944873  1
  Mn  Mn97  1  0.33284259  0.24956576  0.50647933  1
  Mn  Mn98  1  0.33464595  0.24801870  0.83558820  1
  Mn  Mn99  1  0.33544684  0.75215960  0.17127535  1
  Mn  Mn100  1  0.33211622  0.74886979  0.50383968  1
  Mn  Mn101  1  0.33144568  0.75048205  0.83572156  1
  Mn  Mn102  1  0.66696613  0.25024519  0.16583422  1
  Mn  Mn103  1  0.66457927  0.25051692  0.49999308  1
  Mn  Mn104  1  0.66616089  0.24939104  0.83070443  1
  Mn  Mn105  1  0.66739478  0.75104195  0.16465662  1
  Mn  Mn106  1  0.66609129  0.74961995  0.49891321  1
  Mn  Mn107  1  0.66627450  0.74952503  0.82968268  1
  Mn  Mn108  1  0.16658397  0.24708468  0.00400020  1
  Mn  Mn109  1  0.16563564  0.25006428  0.33607989  1
  Mn  Mn110  1  0.16760093  0.24885629  0.66791661  1
  Mn  Mn111  1  0.16412999  0.75324462  0.00136603  1
  Mn  Mn112  1  0.16706957  0.75376478  0.33647723  1
  Mn  Mn113  1  0.16945278  0.75039492  0.66793862  1
  Mn  Mn114  1  0.49986744  0.24916492  0.00230456  1
  Mn  Mn115  1  0.50060871  0.25056887  0.33510241  1
  Mn  Mn116  1  0.50148597  0.25061431  0.66847325  1
  Mn  Mn117  1  0.50110085  0.75114136  0.00021319  1
  Mn  Mn118  1  0.50001908  0.75095312  0.33266292  1
  Mn  Mn119  1  0.49932248  0.74793481  0.66712095  1
  Mn  Mn120  1  0.83280670  0.24734406  -0.00141489  1
  Mn  Mn121  1  0.83386455  0.25031582  0.33223563  1
  Mn  Mn122  1  0.83450571  0.24759881  0.66526769  1
  Mn  Mn123  1  0.83210975  0.75121859  -0.00279758  1
  Mn  Mn124  1  0.83381953  0.75087432  0.32831171  1
  Mn  Mn125  1  0.83220216  0.74987990  0.66224393  1
  Mn  Mn126  1  0.16737045  -0.00038805  0.00193065  1
  Mn  Mn127  1  0.16706924  -0.00018165  0.33515637  1
  Mn  Mn128  1  0.16761536  -0.00135732  0.66927087  1
  Mn  Mn129  1  0.16452715  0.49979163  0.00368608  1
  Mn  Mn130  1  0.16700406  0.49856626  0.33608339  1
  Mn  Mn131  1  0.16876551  0.50049542  0.66769829  1
  Mn  Mn132  1  0.50037328  -0.00003544  0.00166280  1
  Mn  Mn133  1  0.50003305  -0.00083705  0.33294620  1
  Mn  Mn134  1  0.50062581  -0.00070862  0.66750348  1
  Mn  Mn135  1  0.49992714  0.49960595  0.00151031  1
  Mn  Mn136  1  0.49959940  0.49839903  0.33421390  1
  Mn  Mn137  1  0.49992477  0.50050401  0.66741330  1
  Mn  Mn138  1  0.83293938  0.00122142  -0.00332988  1
  Mn  Mn139  1  0.83331266  -0.00043987  0.32841783  1
  Mn  Mn140  1  0.83411969  0.00152432  0.65999826  1
  Mn  Mn141  1  0.83221662  0.50154219  -0.00168374  1
  Mn  Mn142  1  0.83385418  0.49897818  0.33177079  1
  Mn  Mn143  1  0.83325804  0.50200457  0.66604070  1
  O  O144  1  0.16530775  0.11883716  0.02969421  1
  O  O145  1  0.16326198  0.12150019  0.35777742  1
  O  O146  1  0.15918446  0.11798406  0.69388723  1
  O  O147  1  0.15413575  0.62973784  0.01091736  1
  O  O148  1  0.16996706  0.63075944  0.35691501  1
  O  O149  1  0.17318889  0.62905591  0.69811978  1
  O  O150  1  0.50082991  0.12109806  0.02856890  1
  O  O151  1  0.50138231  0.12480065  0.35821999  1
  O  O152  1  0.50715490  0.12477188  0.69176520  1
  O  O153  1  0.50631647  0.62841322  0.01583827  1
  O  O154  1  0.49452093  0.62510617  0.35651505  1
  O  O155  1  0.50650823  0.62414022  0.69615246  1
  O  O156  1  0.82963221  0.11956947  0.02388817  1
  O  O157  1  0.83220855  0.12185209  0.34770096  1
  O  O158  1  0.83304861  0.12464385  0.68649569  1
  O  O159  1  0.83156065  0.63035687  0.02174676  1
  O  O160  1  0.83309638  0.62711219  0.35519737  1
  O  O161  1  0.82550866  0.62420344  0.68832336  1
  O  O162  1  0.16435718  0.37164406  0.31230414  1
  O  O163  1  0.17499903  0.37397826  0.65222253  1
  O  O164  1  0.16815578  0.37126277  0.99500126  1
  O  O165  1  0.17976035  0.87826939  0.31540814  1
  O  O166  1  0.17720773  0.87779396  0.64321074  1
  O  O167  1  0.17093549  0.87912533  0.97399833  1
  O  O168  1  0.50255362  0.37323099  0.31161026  1
  O  O169  1  0.49117547  0.37678443  0.64307160  1
  O  O170  1  0.50066102  0.37240662  0.98545616  1
  O  O171  1  0.49694716  0.87590168  0.31141808  1
  O  O172  1  0.49191608  0.87265733  0.65600022  1
  O  O173  1  0.49991402  0.87668761  0.98497438  1
  O  O174  1  0.83321803  0.37561800  0.31577459  1
  O  O175  1  0.83385263  0.37443372  0.65732084  1
  O  O176  1  0.83432630  0.37530228  0.97266522  1
  O  O177  1  0.83212393  0.87514379  0.30401915  1
  O  O178  1  0.83104661  0.87762056  0.63839555  1
  O  O179  1  0.83143722  0.87741846  0.98217471  1
  O  O180  1  -0.00151780  0.37156210  0.18517675  1
  O  O181  1  0.00295697  0.37327776  0.52670834  1
  O  O182  1  -0.01034934  0.37371190  0.84199134  1
  O  O183  1  -0.01625834  0.87625162  0.18568771  1
  O  O184  1  -0.00669514  0.87503403  0.52618180  1
  O  O185  1  0.00234456  0.87930151  0.85490227  1
  O  O186  1  0.32556297  0.37372950  0.18010990  1
  O  O187  1  0.33730943  0.37578649  0.53082858  1
  O  O188  1  0.33633730  0.37258133  0.84233744  1
  O  O189  1  0.33161182  0.87712970  0.19470391  1
  O  O190  1  0.32644994  0.87336821  0.53213501  1
  O  O191  1  0.32673181  0.88013420  0.86013522  1
  O  O192  1  0.66075117  0.37436372  0.18566672  1
  O  O193  1  0.65647790  0.37497185  0.52868600  1
  O  O194  1  0.67145976  0.37361853  0.84373165  1
  O  O195  1  0.66809405  0.87592248  0.18858538  1
  O  O196  1  0.67395423  0.87384951  0.52457443  1
  O  O197  1  0.66685873  0.87751276  0.85556048  1
  O  O198  1  0.01158782  0.11924371  0.14426938  1
  O  O199  1  0.01362812  0.12332553  0.48917881  1
  O  O200  1  0.01035246  0.12152898  0.80439473  1
  O  O201  1  -0.00199664  0.63222361  0.14137284  1
  O  O202  1  0.01137449  0.62930700  0.48752018  1
  O  O203  1  0.01034050  0.62690271  0.82134940  1
  O  O204  1  0.33864543  0.12081231  0.14450568  1
  O  O205  1  0.33584069  0.12247997  0.49282427  1
  O  O206  1  0.33388140  0.12255100  0.81396039  1
  O  O207  1  0.33634841  0.62893749  0.16228244  1
  O  O208  1  0.33429587  0.62720848  0.47564657  1
  O  O209  1  0.33298544  0.62374208  0.81742482  1
  O  O210  1  0.66652218  0.12096265  0.14336438  1
  O  O211  1  0.65940101  0.12641357  0.48892596  1
  O  O212  1  0.66450529  0.12623151  0.80463454  1
  O  O213  1  0.67284430  0.62930524  0.14329196  1
  O  O214  1  0.66776554  0.62412448  0.48665357  1
  O  O215  1  0.67333875  0.62397432  0.80500422  1
  O  O216  1  0.08267668  -0.00004654  0.24513901  1
  O  O217  1  0.08619220  0.01246475  0.58915117  1
  O  O218  1  0.08464174  0.02180135  0.92084322  1
  O  O219  1  0.08191152  0.50212036  0.25143716  1
  O  O220  1  0.09224076  0.51336401  0.58019178  1
  O  O221  1  0.07731688  0.51504153  0.91971446  1
  O  O222  1  0.42142447  0.01586948  0.24452336  1
  O  O223  1  0.41839597  0.01962554  0.58593754  1
  O  O224  1  0.41632364  0.02360087  0.92191713  1
  O  O225  1  0.41275590  0.51508581  0.26064352  1
  O  O226  1  0.41283757  0.52787829  0.59092799  1
  O  O227  1  0.41774217  0.51399278  0.91523254  1
  O  O228  1  0.75313313  0.01313659  0.23974606  1
  O  O229  1  0.74789577  0.02018737  0.58216885  1
  O  O230  1  0.74805876  0.02475477  0.91423400  1
  O  O231  1  0.75135112  0.51176076  0.24583581  1
  O  O232  1  0.74176978  0.51426947  0.59031863  1
  O  O233  1  0.74662085  0.52448842  0.91702401  1
  O  O234  1  0.24507813  0.23312839  0.24896372  1
  O  O235  1  0.25063779  0.22565645  0.58923322  1
  O  O236  1  0.24828741  0.22524441  0.92143263  1
  O  O237  1  0.25666363  0.74078781  0.26251937  1
  O  O238  1  0.25222196  0.72245312  0.58764798  1
  O  O239  1  0.23879080  0.73717608  0.91036434  1
  O  O240  1  0.58018543  0.23612964  0.24485606  1
  O  O241  1  0.57529721  0.23047728  0.57918716  1
  O  O242  1  0.58106654  0.22677162  0.91271950  1
  O  O243  1  0.57963585  0.74488548  0.24019872  1
  O  O244  1  0.57720156  0.72858690  0.58095047  1
  O  O245  1  0.58307988  0.72762953  0.90838617  1
  O  O246  1  0.91277994  0.23376415  0.24118975  1
  O  O247  1  0.92175175  0.23199939  0.58554461  1
  O  O248  1  0.91415473  0.22275735  0.91099559  1
  O  O249  1  0.90924697  0.73396575  0.23743968  1
  O  O250  1  0.90426100  0.73444494  0.56857734  1
  O  O251  1  0.91002540  0.72800300  0.91192055  1
  O  O252  1  0.08684484  0.48428726  0.08976235  1
  O  O253  1  0.08279293  0.48071476  0.41430483  1
  O  O254  1  0.08294064  0.48512466  0.74549809  1
  O  O255  1  0.08598495  0.97189483  0.08393707  1
  O  O256  1  0.08157680  0.97254714  0.41925626  1
  O  O257  1  0.08840323  0.97130070  0.74898545  1
  O  O258  1  0.42192498  0.48718044  0.09651496  1
  O  O259  1  0.42470189  0.48640387  0.43168638  1
  O  O260  1  0.42181898  0.48775446  0.75156532  1
  O  O261  1  0.41690570  0.97573984  0.08446916  1
  O  O262  1  0.41110666  0.98248268  0.41513363  1
  O  O263  1  0.41171738  0.99084724  0.74629706  1
  O  O264  1  0.75497463  0.49230711  0.08380998  1
  O  O265  1  0.74633362  0.48511446  0.41515311  1
  O  O266  1  0.75713187  0.48101593  0.75570983  1
  O  O267  1  0.74800063  0.97865510  0.07942403  1
  O  O268  1  0.75253085  0.97541420  0.41202453  1
  O  O269  1  0.74972151  0.98862826  0.74017176  1
  O  O270  1  0.24814540  0.25218694  0.08990960  1
  O  O271  1  0.24602546  0.25606451  0.42858160  1
  O  O272  1  0.25335132  0.25363411  0.74784115  1
  O  O273  1  0.25150390  0.77301993  0.08502530  1
  O  O274  1  0.24619345  0.77200368  0.42674745  1
  O  O275  1  0.25217953  0.77487040  0.74937054  1
  O  O276  1  0.58099642  0.26035604  0.08661866  1
  O  O277  1  0.58485000  0.27537115  0.41570315  1
  O  O278  1  0.59075164  0.27053578  0.74093907  1
  O  O279  1  0.58967552  0.77267045  0.07769354  1
  O  O280  1  0.58908803  0.76688912  0.40916757  1
  O  O281  1  0.59182686  0.76514633  0.73893545  1
  O  O282  1  0.91904065  0.24892367  0.08062811  1
  O  O283  1  0.92158115  0.26271191  0.41224380  1
  O  O284  1  0.91501654  0.26130100  0.74896679  1
  O  O285  1  0.91975991  0.77133229  0.07309014  1
  O  O286  1  0.91829683  0.77459937  0.40657228  1
  O  O287  1  0.92261385  0.76628266  0.73763265  1
  O  O288  1  0.24689163  0.49119685  0.09152131  1
  O  O289  1  0.24666321  0.49185860  0.42706881  1
  O  O290  1  0.25951909  0.48817467  0.74346109  1
  O  O291  1  0.25412553  0.97581854  0.08072776  1
  O  O292  1  0.24855988  0.98061916  0.42627931  1
  O  O293  1  0.24724996  0.98020376  0.75200994  1
  O  O294  1  0.58490947  0.49006000  0.08315272  1
  O  O295  1  0.58463654  0.47574580  0.41386133  1
  O  O296  1  0.59358638  0.48220329  0.73672155  1
  O  O297  1  0.58712887  0.97577808  0.07944241  1
  O  O298  1  0.58978054  0.97984955  0.40860935  1
  O  O299  1  0.58914161  0.98334671  0.74110928  1
  O  O300  1  0.91889136  0.49860862  0.07627919  1
  O  O301  1  0.92188611  0.48578280  0.40816938  1
  O  O302  1  0.91786542  0.48614905  0.74645325  1
  O  O303  1  0.92181709  0.98440381  0.07438795  1
  O  O304  1  0.91697955  0.97671306  0.40943607  1
  O  O305  1  0.92475288  0.98788785  0.73354150  1
  O  O306  1  0.08790307  0.26053892  0.08974267  1
  O  O307  1  0.08062887  0.27247435  0.41413225  1
  O  O308  1  0.07842064  0.26411900  0.74185649  1
  O  O309  1  0.08542052  0.78069033  0.08623065  1
  O  O310  1  0.08323612  0.77851929  0.41553357  1
  O  O311  1  0.08810643  0.77510586  0.74949721  1
  O  O312  1  0.42141255  0.26051923  0.09162550  1
  O  O313  1  0.42383406  0.26183926  0.43205907  1
  O  O314  1  0.42394959  0.25948419  0.75346026  1
  O  O315  1  0.41746494  0.77312153  0.08954848  1
  O  O316  1  0.40880455  0.76513806  0.41603225  1
  O  O317  1  0.41114289  0.75801397  0.74587385  1
  O  O318  1  0.75121743  0.25591113  0.08381043  1
  O  O319  1  0.74407647  0.26534537  0.41402492  1
  O  O320  1  0.75558573  0.26496284  0.75499653  1
  O  O321  1  0.75169823  0.77437078  0.08110433  1
  O  O322  1  0.75469549  0.77206704  0.41525598  1
  O  O323  1  0.74948754  0.76740656  0.74568205  1
  O  O324  1  0.24482286  0.01692201  0.24100659  1
  O  O325  1  0.24855349  0.02409205  0.59126304  1
  O  O326  1  0.24811314  0.02716511  0.92059465  1
  O  O327  1  0.25350179  0.51540310  0.26043381  1
  O  O328  1  0.25126766  0.52736614  0.58616674  1
  O  O329  1  0.24150585  0.51397458  0.91314902  1
  O  O330  1  0.57879042  0.01189568  0.23837041  1
  O  O331  1  0.58028289  0.01700760  0.58261668  1
  O  O332  1  0.58040847  0.02451593  0.91684139  1
  O  O333  1  0.57835243  0.50691096  0.24544030  1
  O  O334  1  0.57330448  0.52236296  0.57698264  1
  O  O335  1  0.58177965  0.52071605  0.90673873  1
  O  O336  1  0.91041350  0.01699656  0.23645223  1
  O  O337  1  0.91534222  0.02199025  0.57670157  1
  O  O338  1  0.91386581  0.02623970  0.91024275  1
  O  O339  1  0.91179327  0.51464027  0.24016467  1
  O  O340  1  0.90805971  0.51771338  0.57584646  1
  O  O341  1  0.90942714  0.52439935  0.91021799  1
  O  O342  1  0.08450094  0.23675941  0.24682412  1
  O  O343  1  0.08892251  0.22974993  0.58254630  1
  O  O344  1  0.08335073  0.22635852  0.91714920  1
  O  O345  1  0.08328777  0.75776761  0.25065330  1
  O  O346  1  0.09278474  0.74434386  0.58137922  1
  O  O347  1  0.07581046  0.74145768  0.92249241  1
  O  O348  1  0.41913711  0.23598458  0.24986612  1
  O  O349  1  0.41470077  0.22775488  0.59256641  1
  O  O350  1  0.41621101  0.22395381  0.92219644  1
  O  O351  1  0.41558583  0.73672119  0.25602078  1
  O  O352  1  0.41579191  0.72430652  0.58495537  1
  O  O353  1  0.41557037  0.73834296  0.91621516  1
  O  O354  1  0.75087049  0.23893711  0.24448006  1
  O  O355  1  0.74294638  0.23642139  0.58995005  1
  O  O356  1  0.74759366  0.22500842  0.91422066  1
  O  O357  1  0.75199889  0.73658048  0.24417479  1
  O  O358  1  0.74459161  0.72920789  0.58474438  1
  O  O359  1  0.74535673  0.72905009  0.91731202  1
