# generated using pymatgen
data_Ba17Sr5La8Pr42Mn72O216
_symmetry_space_group_name_H-M   'P 1'
_cell_length_a   16.67025971
_cell_length_b   15.70853553
_cell_length_c   16.81479772
_cell_angle_alpha   89.98885108
_cell_angle_beta   89.99666101
_cell_angle_gamma   90.01492527
_symmetry_Int_Tables_number   1
_chemical_formula_structural   Ba17Sr5La8Pr42Mn72O216
_chemical_formula_sum   'Ba17 Sr5 La8 Pr42 Mn72 O216'
_cell_volume   4403.21293495
_cell_formula_units_Z   1
loop_
 _symmetry_equiv_pos_site_id
 _symmetry_equiv_pos_as_xyz
  1  'x, y, z'
loop_
 _atom_site_type_symbol
 _atom_site_label
 _atom_site_symmetry_multiplicity
 _atom_site_fract_x
 _atom_site_fract_y
 _atom_site_fract_z
 _atom_site_occupancy
  Ba  Ba0  1  -0.00252583  0.62473578  0.66621931  1
  Ba  Ba1  1  0.66891512  0.37725819  0.33347821  1
  Ba  Ba2  1  0.66538185  0.62395011  0.99939097  1
  Ba  Ba3  1  0.16747302  0.62507326  0.50094519  1
  Ba  Ba4  1  -0.00107482  0.12552897  0.99900000  1
  Ba  Ba5  1  0.83558700  0.87237613  0.16616425  1
  Ba  Ba6  1  0.83145390  0.12623507  0.83459780  1
  Ba  Ba7  1  0.00224293  0.87504308  -0.00061988  1
  Ba  Ba8  1  -0.00085497  0.87236229  0.66713444  1
  Ba  Ba9  1  0.33482904  0.37303072  0.33675840  1
  Ba  Ba10  1  0.16876940  0.87376611  0.50012120  1
  Ba  Ba11  1  0.66561569  0.12524655  0.99959409  1
  Ba  Ba12  1  0.50057916  0.87408289  0.83133314  1
  Ba  Ba13  1  0.83154045  0.12623545  0.50135200  1
  Ba  Ba14  1  -0.00213642  0.12597497  0.33160791  1
  Ba  Ba15  1  0.16839559  0.37701010  0.49771972  1
  Ba  Ba16  1  0.49672061  0.62540485  0.83677760  1
  Sr  Sr17  1  0.49991084  0.12719142  0.49910325  1
  Sr  Sr18  1  0.66057264  0.12441837  0.66379093  1
  Sr  Sr19  1  0.83328437  0.62643730  0.16740402  1
  Sr  Sr20  1  0.83272350  0.12171719  0.16873518  1
  Sr  Sr21  1  0.49464268  0.62508363  0.16806170  1
  La  La22  1  0.67505953  0.87235245  0.33271097  1
  La  La23  1  0.83785633  0.87466203  0.49899921  1
  La  La24  1  -0.00183452  0.87594004  0.33431784  1
  La  La25  1  0.16457845  0.62543436  0.16749436  1
  La  La26  1  0.16151661  0.12302943  0.83256326  1
  La  La27  1  0.65973678  0.62551723  0.32594772  1
  La  La28  1  0.00006429  0.37613782  0.33407691  1
  La  La29  1  0.32742505  0.62448269  0.33304127  1
  Pr  Pr30  1  0.33295612  0.12215433  0.66606714  1
  Pr  Pr31  1  0.16319714  0.62482098  0.83363105  1
  Pr  Pr32  1  0.83730012  0.37537843  0.49679855  1
  Pr  Pr33  1  0.83592613  0.37367515  0.16458566  1
  Pr  Pr34  1  -0.00464346  0.62637365  0.99659691  1
  Pr  Pr35  1  0.82923274  0.87772481  0.83541058  1
  Pr  Pr36  1  0.32880813  0.12501722  0.99955688  1
  Pr  Pr37  1  0.16459364  0.87767726  0.82695686  1
  Pr  Pr38  1  0.00133450  0.62589073  0.33362431  1
  Pr  Pr39  1  0.67112727  0.87964417  0.66790839  1
  Pr  Pr40  1  0.67184564  0.87290661  -0.00123543  1
  Pr  Pr41  1  0.50909060  0.37636997  0.16658486  1
  Pr  Pr42  1  0.50555627  0.37162069  0.49563528  1
  Pr  Pr43  1  0.33921415  0.37552112  0.00705789  1
  Pr  Pr44  1  0.33353008  0.62693835  0.66615430  1
  Pr  Pr45  1  0.33737185  0.37438774  0.66829233  1
  Pr  Pr46  1  0.33014641  0.62455261  0.99843372  1
  Pr  Pr47  1  0.33871088  0.87488422  0.00271537  1
  Pr  Pr48  1  0.50870827  0.87391371  0.16218810  1
  Pr  Pr49  1  -0.00113569  0.12488409  0.65986228  1
  Pr  Pr50  1  0.32363028  0.12478227  0.33479928  1
  Pr  Pr51  1  0.83516764  0.62650924  0.83808388  1
  Pr  Pr52  1  0.65933923  0.62601182  0.66647325  1
  Pr  Pr53  1  0.00058929  0.37590334  0.00066056  1
  Pr  Pr54  1  0.50875290  0.37670998  0.83360024  1
  Pr  Pr55  1  0.16890783  0.37243833  0.16435915  1
  Pr  Pr56  1  0.83059913  0.37404340  0.83591843  1
  Pr  Pr57  1  0.33330294  0.87436407  0.67098154  1
  Pr  Pr58  1  0.16929697  0.87834746  0.16356011  1
  Pr  Pr59  1  0.67298367  0.37629659  0.00363423  1
  Pr  Pr60  1  0.33905873  0.87437751  0.33743031  1
  Pr  Pr61  1  0.16757105  0.12678882  0.50135175  1
  Pr  Pr62  1  0.15991420  0.12494140  0.16731962  1
  Pr  Pr63  1  0.82720039  0.62395014  0.50421827  1
  Pr  Pr64  1  0.49379220  0.12487817  0.17313470  1
  Pr  Pr65  1  0.49681731  0.61992374  0.50088183  1
  Pr  Pr66  1  0.00067220  0.37703897  0.66602570  1
  Pr  Pr67  1  0.66449955  0.12441566  0.32664660  1
  Pr  Pr68  1  0.67163579  0.37114071  0.66418560  1
  Pr  Pr69  1  0.50715060  0.87734537  0.49955298  1
  Pr  Pr70  1  0.16732325  0.37170578  0.82761990  1
  Pr  Pr71  1  0.49627989  0.12554982  0.83673632  1
  Mn  Mn72  1  0.00012671  -0.00052832  0.16680471  1
  Mn  Mn73  1  0.00090793  -0.00009721  0.49916770  1
  Mn  Mn74  1  -0.00166935  -0.00078525  0.83128140  1
  Mn  Mn75  1  0.00105206  0.50083525  0.16636142  1
  Mn  Mn76  1  -0.00219509  0.50063481  0.49955487  1
  Mn  Mn77  1  0.00123820  0.49856247  0.83453490  1
  Mn  Mn78  1  0.33344152  0.00063256  0.16902559  1
  Mn  Mn79  1  0.33704139  -0.00028539  0.50103077  1
  Mn  Mn80  1  0.33249149  0.00192402  0.83471606  1
  Mn  Mn81  1  0.33333409  0.49906591  0.16723323  1
  Mn  Mn82  1  0.33565581  0.49957677  0.50173198  1
  Mn  Mn83  1  0.33136128  0.49642678  0.83584950  1
  Mn  Mn84  1  0.66543433  -0.00084568  0.16493990  1
  Mn  Mn85  1  0.66608812  -0.00037721  0.49887046  1
  Mn  Mn86  1  0.66422349  0.00142407  0.83198934  1
  Mn  Mn87  1  0.66686623  0.50192929  0.16721875  1
  Mn  Mn88  1  0.66606578  0.50200696  0.49983327  1
  Mn  Mn89  1  0.66751684  0.49829209  0.83194920  1
  Mn  Mn90  1  -0.00020367  0.25289600  0.16597498  1
  Mn  Mn91  1  0.00118889  0.25124442  0.49929787  1
  Mn  Mn92  1  0.00017902  0.25352956  0.83105167  1
  Mn  Mn93  1  0.00241992  0.74740383  0.16608422  1
  Mn  Mn94  1  -0.00094586  0.74950812  0.49921667  1
  Mn  Mn95  1  0.00028955  0.74879991  0.83421528  1
  Mn  Mn96  1  0.33367396  0.24949764  0.16796784  1
  Mn  Mn97  1  0.33570954  0.24701355  0.50273639  1
  Mn  Mn98  1  0.33379669  0.25123893  0.83578214  1
  Mn  Mn99  1  0.33332919  0.75096645  0.16797973  1
  Mn  Mn100  1  0.33815921  0.75142645  0.50065729  1
  Mn  Mn101  1  0.33014782  0.74963896  0.83512703  1
  Mn  Mn102  1  0.66639836  0.25013636  0.16583748  1
  Mn  Mn103  1  0.66641573  0.24896348  0.49944994  1
  Mn  Mn104  1  0.66479785  0.25106300  0.83265453  1
  Mn  Mn105  1  0.66540456  0.74790938  0.16631598  1
  Mn  Mn106  1  0.66548564  0.74883370  0.49925553  1
  Mn  Mn107  1  0.66712620  0.75036204  0.83147833  1
  Mn  Mn108  1  0.16818299  0.25183452  -0.00336826  1
  Mn  Mn109  1  0.16610638  0.25012546  0.33221763  1
  Mn  Mn110  1  0.16829176  0.25067511  0.66581071  1
  Mn  Mn111  1  0.16933008  0.74929315  -0.00032520  1
  Mn  Mn112  1  0.16720788  0.75051377  0.33004344  1
  Mn  Mn113  1  0.16884007  0.74951444  0.66814456  1
  Mn  Mn114  1  0.49860566  0.25004531  0.00131313  1
  Mn  Mn115  1  0.49994068  0.24757518  0.33439692  1
  Mn  Mn116  1  0.49967041  0.25146564  0.66743392  1
  Mn  Mn117  1  0.49875647  0.75074627  0.00147429  1
  Mn  Mn118  1  0.49898419  0.75206647  0.33308761  1
  Mn  Mn119  1  0.49952393  0.74888552  0.66384980  1
  Mn  Mn120  1  0.83390536  0.25107650  0.00044626  1
  Mn  Mn121  1  0.83142934  0.25115849  0.33189372  1
  Mn  Mn122  1  0.83375538  0.25235706  0.66713556  1
  Mn  Mn123  1  0.83384546  0.74825069  0.00028629  1
  Mn  Mn124  1  0.83495726  0.74705059  0.33519262  1
  Mn  Mn125  1  0.82883816  0.74863114  0.66810480  1
  Mn  Mn126  1  0.16943035  -0.00007257  -0.00177461  1
  Mn  Mn127  1  0.16723808  -0.00174312  0.33155336  1
  Mn  Mn128  1  0.16703850  0.00171045  0.66629765  1
  Mn  Mn129  1  0.16756778  0.49909011  -0.00095995  1
  Mn  Mn130  1  0.16640237  0.50120700  0.33078652  1
  Mn  Mn131  1  0.16929650  0.49818962  0.66742228  1
  Mn  Mn132  1  0.49919116  0.00048866  0.00164698  1
  Mn  Mn133  1  0.50031304  -0.00152363  0.33231446  1
  Mn  Mn134  1  0.49946436  0.00151482  0.66489528  1
  Mn  Mn135  1  0.49817521  0.49889715  0.00103453  1
  Mn  Mn136  1  0.49833321  0.50061819  0.33410361  1
  Mn  Mn137  1  0.49958013  0.49843457  0.66652345  1
  Mn  Mn138  1  0.83301475  0.00038524  0.00085896  1
  Mn  Mn139  1  0.83181886  -0.00030327  0.33385363  1
  Mn  Mn140  1  0.83256532  0.00090405  0.66701212  1
  Mn  Mn141  1  0.83461833  0.49976725  0.00091370  1
  Mn  Mn142  1  0.83474479  0.50303710  0.33350791  1
  Mn  Mn143  1  0.83000756  0.49944798  0.66778513  1
  O  O144  1  0.17303614  0.13034066  0.02464650  1
  O  O145  1  0.16956420  0.12037800  0.35516906  1
  O  O146  1  0.16888372  0.12857421  0.68943547  1
  O  O147  1  0.17340363  0.62281474  0.02655480  1
  O  O148  1  0.16971156  0.62637756  0.34324216  1
  O  O149  1  0.17969812  0.62264192  0.68833337  1
  O  O150  1  0.49512840  0.12584581  0.02828424  1
  O  O151  1  0.51270253  0.12109045  0.34940775  1
  O  O152  1  0.49783603  0.13139401  0.69425294  1
  O  O153  1  0.49094336  0.62456688  0.01740287  1
  O  O154  1  0.50284498  0.63012212  0.35694386  1
  O  O155  1  0.50323406  0.62255510  0.68252194  1
  O  O156  1  0.83377525  0.13053351  0.01392642  1
  O  O157  1  0.82295845  0.12279998  0.34212033  1
  O  O158  1  0.84389014  0.12991048  0.67859397  1
  O  O159  1  0.84159902  0.62147491  0.01422925  1
  O  O160  1  0.83944936  0.62495090  0.36143922  1
  O  O161  1  0.82382069  0.62158501  0.69554941  1
  O  O162  1  0.16302546  0.37912370  0.31037395  1
  O  O163  1  0.16866868  0.37251481  0.65341302  1
  O  O164  1  0.16717789  0.37603338  0.97031908  1
  O  O165  1  0.17305439  0.87446915  0.30806535  1
  O  O166  1  0.17357017  0.87736999  0.65941526  1
  O  O167  1  0.17637071  0.87038909  0.97159233  1
  O  O168  1  0.49742971  0.37187680  0.31184601  1
  O  O169  1  0.49173823  0.37626776  0.63871858  1
  O  O170  1  0.48899229  0.37218278  0.97719184  1
  O  O171  1  0.49017676  0.87567719  0.30483808  1
  O  O172  1  0.49294380  0.87050367  0.64307733  1
  O  O173  1  0.49046376  0.87729718  0.98792263  1
  O  O174  1  0.83809383  0.38099409  0.30875268  1
  O  O175  1  0.82912994  0.37745218  0.63995707  1
  O  O176  1  0.83063671  0.37774138  0.98214716  1
  O  O177  1  0.83315771  0.87091724  0.32351567  1
  O  O178  1  0.82330968  0.87173273  0.64351085  1
  O  O179  1  0.82585857  0.87113258  0.98281678  1
  O  O180  1  0.00055606  0.37922195  0.19024306  1
  O  O181  1  -0.00659817  0.37647443  0.52043625  1
  O  O182  1  0.01323794  0.37810027  0.85695294  1
  O  O183  1  0.00932188  0.86943873  0.18730551  1
  O  O184  1  -0.00518242  0.87399546  0.50876260  1
  O  O185  1  0.01138897  0.86947422  0.84194496  1
  O  O186  1  0.32539092  0.37435436  0.18205441  1
  O  O187  1  0.34072496  0.37085167  0.52271061  1
  O  O188  1  0.32399997  0.37234120  0.86462388  1
  O  O189  1  0.32392759  0.88066938  0.19542883  1
  O  O190  1  0.34224012  0.87627502  0.52609021  1
  O  O191  1  0.32440175  0.88024191  0.85854721  1
  O  O192  1  0.66596147  0.37700574  0.17692795  1
  O  O193  1  0.66153418  0.38005064  0.52098094  1
  O  O194  1  0.66405467  0.37528303  0.85704162  1
  O  O195  1  0.66081507  0.87292508  0.18667522  1
  O  O196  1  0.66185577  0.87138927  0.52465500  1
  O  O197  1  0.67101561  0.87471899  0.85205275  1
  O  O198  1  0.00762540  0.13036012  0.15584575  1
  O  O199  1  0.00633724  0.12633314  0.49028869  1
  O  O200  1  0.00151628  0.13172604  0.80736767  1
  O  O201  1  0.00895736  0.62115560  0.13866811  1
  O  O202  1  -0.00947610  0.62395672  0.47932661  1
  O  O203  1  -0.00681255  0.62161430  0.82294847  1
  O  O204  1  0.33919589  0.12487350  0.14114846  1
  O  O205  1  0.33348490  0.12182539  0.47905022  1
  O  O206  1  0.34108309  0.12862099  0.80920921  1
  O  O207  1  0.33139000  0.62129847  0.14146123  1
  O  O208  1  0.34352410  0.62953875  0.47734178  1
  O  O209  1  0.32779420  0.61818732  0.80939061  1
  O  O210  1  0.66029437  0.12459372  0.15792813  1
  O  O211  1  0.66466046  0.12000754  0.47289211  1
  O  O212  1  0.65796835  0.12953365  0.81479470  1
  O  O213  1  0.66427343  0.62441556  0.15757002  1
  O  O214  1  0.66726202  0.62693581  0.47139115  1
  O  O215  1  0.67412119  0.62207887  0.81026976  1
  O  O216  1  0.08819854  0.00948151  0.24468173  1
  O  O217  1  0.08650666  0.02035710  0.58281408  1
  O  O218  1  0.08800594  0.01278246  0.90914161  1
  O  O219  1  0.08187290  0.52130107  0.24825544  1
  O  O220  1  0.07730459  0.50500899  0.58541965  1
  O  O221  1  0.08301138  0.52464100  0.92187455  1
  O  O222  1  0.40846104  0.02374311  0.25917150  1
  O  O223  1  0.41199085  0.02097762  0.58965051  1
  O  O224  1  0.41096679  0.02213166  0.92363208  1
  O  O225  1  0.41009980  0.51987998  0.25777151  1
  O  O226  1  0.41464210  0.52162565  0.59025437  1
  O  O227  1  0.40406884  0.51141071  0.92856428  1
  O  O228  1  0.73724128  0.00796216  0.25832585  1
  O  O229  1  0.74363827  0.00950468  0.58925590  1
  O  O230  1  0.74549857  0.00291261  0.91755075  1
  O  O231  1  0.74902584  0.52158350  0.25860869  1
  O  O232  1  0.74057161  0.52375932  0.58856687  1
  O  O233  1  0.75775295  0.51055414  0.91042964  1
  O  O234  1  0.24787749  0.22656879  0.24544873  1
  O  O235  1  0.25015784  0.22587753  0.58305915  1
  O  O236  1  0.24940779  0.22487307  0.91312999  1
  O  O237  1  0.24528882  0.73102433  0.24142292  1
  O  O238  1  0.25999177  0.73936317  0.59032812  1
  O  O239  1  0.24455270  0.72146998  0.91422446  1
  O  O240  1  0.57389893  0.23659839  0.24089666  1
  O  O241  1  0.57761798  0.24005487  0.57964407  1
  O  O242  1  0.56870617  0.23919519  0.90612024  1
  O  O243  1  0.57717302  0.73729947  0.24889688  1
  O  O244  1  0.57832604  0.72759979  0.57357803  1
  O  O245  1  0.58638178  0.74529722  0.91545086  1
  O  O246  1  0.91053257  0.24537828  0.24319601  1
  O  O247  1  0.92600448  0.24387331  0.59167615  1
  O  O248  1  0.91877016  0.25352971  0.91562090  1
  O  O249  1  0.91962654  0.72982497  0.25211178  1
  O  O250  1  0.90267688  0.73583866  0.57902552  1
  O  O251  1  0.91756050  0.73354764  0.91774413  1
  O  O252  1  0.08854739  0.47382109  0.08332094  1
  O  O253  1  0.07798748  0.49141223  0.40765023  1
  O  O254  1  0.08814095  0.48487125  0.75462050  1
  O  O255  1  0.09600015  0.98701085  0.08594237  1
  O  O256  1  0.08262015  0.98302415  0.40970289  1
  O  O257  1  0.08655769  0.99390584  0.75025357  1
  O  O258  1  0.42106943  0.47646591  0.09200153  1
  O  O259  1  0.42619535  0.48586469  0.42838434  1
  O  O260  1  0.41804693  0.47420910  0.75665344  1
  O  O261  1  0.42131082  0.97999102  0.09624933  1
  O  O262  1  0.42604752  0.97848720  0.42060098  1
  O  O263  1  0.41079700  0.98699526  0.74919729  1
  O  O264  1  0.75361308  0.48207747  0.08365587  1
  O  O265  1  0.75968089  0.48762503  0.42991707  1
  O  O266  1  0.75024719  0.47104583  0.74955165  1
  O  O267  1  0.74734303  0.98684132  0.08389505  1
  O  O268  1  0.75178784  0.97595801  0.42131606  1
  O  O269  1  0.75066460  0.98194920  0.75199496  1
  O  O270  1  0.25175100  0.27075900  0.07747164  1
  O  O271  1  0.25142411  0.25144034  0.41739141  1
  O  O272  1  0.25388568  0.26882732  0.74881365  1
  O  O273  1  0.25818080  0.77150656  0.07584240  1
  O  O274  1  0.26189640  0.76341235  0.40871063  1
  O  O275  1  0.25093252  0.77168409  0.75384590  1
  O  O276  1  0.58730470  0.27402241  0.07535350  1
  O  O277  1  0.58397340  0.26354872  0.41442011  1
  O  O278  1  0.58578107  0.27793274  0.74414372  1
  O  O279  1  0.58343663  0.76949388  0.08005982  1
  O  O280  1  0.58831947  0.77406125  0.41059070  1
  O  O281  1  0.58990089  0.76208180  0.73681963  1
  O  O282  1  0.91994121  0.27584217  0.08208695  1
  O  O283  1  0.91660610  0.26954742  0.41612167  1
  O  O284  1  0.91687797  0.28152156  0.75156039  1
  O  O285  1  0.92226966  0.75263487  0.08205503  1
  O  O286  1  0.91919583  0.76750376  0.41293187  1
  O  O287  1  0.90754171  0.76064884  0.75729791  1
  O  O288  1  0.25323325  0.47739877  0.07681105  1
  O  O289  1  0.25469264  0.49661989  0.41304818  1
  O  O290  1  0.25442734  0.47266131  0.75248382  1
  O  O291  1  0.25887935  0.98044495  0.07926686  1
  O  O292  1  0.26137350  0.98579310  0.40741674  1
  O  O293  1  0.25016466  0.98659665  0.75154361  1
  O  O294  1  0.58299567  0.47828015  0.07703598  1
  O  O295  1  0.58275269  0.48879010  0.41882230  1
  O  O296  1  0.58606990  0.47685469  0.74251914  1
  O  O297  1  0.58785302  0.97609552  0.07633638  1
  O  O298  1  0.58914746  0.97313129  0.40558651  1
  O  O299  1  0.58881720  0.98541143  0.73889982  1
  O  O300  1  0.91948998  0.47723338  0.08385859  1
  O  O301  1  0.91852390  0.47727783  0.41424625  1
  O  O302  1  0.91782445  0.47522988  0.74978783  1
  O  O303  1  0.91932370  0.99481260  0.08540178  1
  O  O304  1  0.91566770  0.98504575  0.41746444  1
  O  O305  1  0.91094069  0.98193398  0.75431467  1
  O  O306  1  0.08500080  0.27543141  0.07898063  1
  O  O307  1  0.07930118  0.26567225  0.41109428  1
  O  O308  1  0.08121192  0.27192493  0.74481626  1
  O  O309  1  0.09832767  0.76467421  0.09108983  1
  O  O310  1  0.08197024  0.76081279  0.40644251  1
  O  O311  1  0.09182874  0.75236357  0.75987141  1
  O  O312  1  0.42335656  0.27186326  0.09277080  1
  O  O313  1  0.42547395  0.25980428  0.42816635  1
  O  O314  1  0.42046481  0.27719424  0.75997770  1
  O  O315  1  0.41902319  0.77224883  0.09446343  1
  O  O316  1  0.42493664  0.77558136  0.42187568  1
  O  O317  1  0.40939821  0.76078827  0.74372928  1
  O  O318  1  0.75431939  0.27038082  0.08760629  1
  O  O319  1  0.75587200  0.26776967  0.42406220  1
  O  O320  1  0.75254577  0.27310464  0.75258817  1
  O  O321  1  0.74625787  0.76051526  0.07750298  1
  O  O322  1  0.75469334  0.76740519  0.42653044  1
  O  O323  1  0.74820872  0.77446970  0.74876223  1
  O  O324  1  0.24624783  0.02696848  0.24291514  1
  O  O325  1  0.24824388  0.02189568  0.58322568  1
  O  O326  1  0.24919725  0.02730722  0.91470952  1
  O  O327  1  0.24574738  0.51772073  0.24242175  1
  O  O328  1  0.25794366  0.51119189  0.58880556  1
  O  O329  1  0.24491588  0.52335753  0.91376985  1
  O  O330  1  0.57186986  0.01262992  0.23936696  1
  O  O331  1  0.57683301  0.01040141  0.57278870  1
  O  O332  1  0.57388476  0.01559114  0.90689600  1
  O  O333  1  0.57713045  0.51291868  0.24868438  1
  O  O334  1  0.58058113  0.52076905  0.57899375  1
  O  O335  1  0.57905388  0.50275191  0.91275142  1
  O  O336  1  0.91390197  0.00395142  0.25248582  1
  O  O337  1  0.92052275  0.01046736  0.58944475  1
  O  O338  1  0.91528031  0.00039167  0.91316705  1
  O  O339  1  0.91948835  0.52267586  0.25204571  1
  O  O340  1  0.90344263  0.51427452  0.57757690  1
  O  O341  1  0.91928957  0.51050409  0.91976934  1
  O  O342  1  0.08967060  0.24318951  0.24038758  1
  O  O343  1  0.08762953  0.23124813  0.58226348  1
  O  O344  1  0.09074045  0.23567145  0.90691692  1
  O  O345  1  0.08063498  0.72705355  0.24989455  1
  O  O346  1  0.08360328  0.74146622  0.58395997  1
  O  O347  1  0.08259607  0.72525319  0.92369160  1
  O  O348  1  0.41248426  0.22418180  0.25924445  1
  O  O349  1  0.40810382  0.23187197  0.59711682  1
  O  O350  1  0.41032371  0.22735423  0.92570504  1
  O  O351  1  0.40661400  0.73344731  0.26148189  1
  O  O352  1  0.41845585  0.72487485  0.58265386  1
  O  O353  1  0.40422873  0.73897592  0.92670288  1
  O  O354  1  0.74093895  0.23647954  0.25388546  1
  O  O355  1  0.74387773  0.24238001  0.58999044  1
  O  O356  1  0.74598300  0.24990311  0.91933283  1
  O  O357  1  0.74512672  0.73471603  0.26004500  1
  O  O358  1  0.74067969  0.72431352  0.58795576  1
  O  O359  1  0.75782652  0.73622458  0.90804693  1
