# generated using pymatgen
data_Ba17Sr5La8Pr42Mn72O216
_symmetry_space_group_name_H-M   'P 1'
_cell_length_a   16.67175191
_cell_length_b   15.70736548
_cell_length_c   16.81784045
_cell_angle_alpha   90.00585402
_cell_angle_beta   90.00519724
_cell_angle_gamma   90.00845314
_symmetry_Int_Tables_number   1
_chemical_formula_structural   Ba17Sr5La8Pr42Mn72O216
_chemical_formula_sum   'Ba17 Sr5 La8 Pr42 Mn72 O216'
_cell_volume   4404.07602575
_cell_formula_units_Z   1
loop_
 _symmetry_equiv_pos_site_id
 _symmetry_equiv_pos_as_xyz
  1  'x, y, z'
loop_
 _atom_site_type_symbol
 _atom_site_label
 _atom_site_symmetry_multiplicity
 _atom_site_fract_x
 _atom_site_fract_y
 _atom_site_fract_z
 _atom_site_occupancy
  Ba  Ba0  1  0.00301859  0.37401953  0.33299999  1
  Ba  Ba1  1  0.83192084  0.12293117  0.16523606  1
  Ba  Ba2  1  0.67064585  0.37609137  -0.00229702  1
  Ba  Ba3  1  0.83215287  0.87320058  0.83201614  1
  Ba  Ba4  1  0.66600509  0.12599534  0.99806403  1
  Ba  Ba5  1  0.33571735  0.37570431  0.66884955  1
  Ba  Ba6  1  0.00195610  0.37633812  0.66904169  1
  Ba  Ba7  1  0.66444036  0.87431433  0.33155179  1
  Ba  Ba8  1  0.33636718  0.37551328  0.33579135  1
  Ba  Ba9  1  0.83345070  0.62623742  0.49630485  1
  Ba  Ba10  1  0.33462531  0.37685350  0.00140562  1
  Ba  Ba11  1  0.83622423  0.37584834  0.83226355  1
  Ba  Ba12  1  0.49929561  0.12287316  0.83590589  1
  Ba  Ba13  1  0.33258394  0.62702032  1.00206931  1
  Ba  Ba14  1  0.16376052  0.12426537  0.83635081  1
  Ba  Ba15  1  0.83725092  0.37574453  0.16395163  1
  Ba  Ba16  1  0.49746267  0.87574846  0.49761977  1
  Sr  Sr17  1  0.16822100  0.62555947  0.16869541  1
  Sr  Sr18  1  0.66502596  0.62882134  0.33038079  1
  Sr  Sr19  1  0.83036947  0.87362580  0.16061797  1
  Sr  Sr20  1  0.00049150  0.87629980  0.00205229  1
  Sr  Sr21  1  0.17140046  0.37517670  0.83534095  1
  La  La22  1  0.49690363  0.12749364  0.16492461  1
  La  La23  1  0.32888171  0.12264458  0.33495132  1
  La  La24  1  0.33205045  0.62441350  0.66846468  1
  La  La25  1  0.67305773  0.37536855  0.33296668  1
  La  La26  1  0.67084993  0.37779100  0.66955217  1
  La  La27  1  0.33316428  0.87685655  0.66892253  1
  La  La28  1  0.33350375  0.87632298  0.00168536  1
  La  La29  1  0.17275122  0.37444927  0.49891644  1
  Pr  Pr30  1  -0.00780664  0.12488521  0.66819020  1
  Pr  Pr31  1  0.33298980  0.62734225  0.32968222  1
  Pr  Pr32  1  0.17228335  0.37660040  0.16398819  1
  Pr  Pr33  1  0.50750051  0.37376583  0.49744069  1
  Pr  Pr34  1  0.66052949  0.87128651  0.66551537  1
  Pr  Pr35  1  0.16622871  0.87243791  0.16393762  1
  Pr  Pr36  1  0.16209755  0.87781177  0.49676230  1
  Pr  Pr37  1  -0.00842104  0.12173230  0.99741415  1
  Pr  Pr38  1  0.83164518  0.12639619  0.83741990  1
  Pr  Pr39  1  -0.00226193  0.87227505  0.67028514  1
  Pr  Pr40  1  0.83673215  0.62327563  0.82963270  1
  Pr  Pr41  1  0.16463117  0.61973994  0.83781448  1
  Pr  Pr42  1  0.00719688  0.37246657  0.00470117  1
  Pr  Pr43  1  0.66954185  0.62685846  0.66083519  1
  Pr  Pr44  1  0.32829128  0.87318851  0.33770016  1
  Pr  Pr45  1  0.65707471  0.12177814  0.32598625  1
  Pr  Pr46  1  0.66498383  0.87784477  0.00391001  1
  Pr  Pr47  1  0.67128098  0.62431948  0.99915615  1
  Pr  Pr48  1  -0.00618141  0.87620219  0.33234699  1
  Pr  Pr49  1  0.16404387  0.12535506  0.16658693  1
  Pr  Pr50  1  0.16634128  0.87128685  0.83285417  1
  Pr  Pr51  1  -0.00145592  0.62778596  1.00026424  1
  Pr  Pr52  1  0.49857588  0.62123086  0.16998367  1
  Pr  Pr53  1  0.84218942  0.37735667  0.49444255  1
  Pr  Pr54  1  0.66554096  0.12350667  0.66648376  1
  Pr  Pr55  1  -0.00394619  0.12465407  0.32983745  1
  Pr  Pr56  1  0.16626201  0.62182200  0.50116746  1
  Pr  Pr57  1  0.49316286  0.12195916  0.50454198  1
  Pr  Pr58  1  0.15995173  0.12849005  0.50568303  1
  Pr  Pr59  1  0.50153866  0.62295543  0.83578307  1
  Pr  Pr60  1  0.33011016  0.12549155  0.99541227  1
  Pr  Pr61  1  0.50057221  0.87209808  0.16706507  1
  Pr  Pr62  1  -0.00069570  0.62519125  0.32699151  1
  Pr  Pr63  1  0.82917001  0.87311668  0.49444010  1
  Pr  Pr64  1  0.83581627  0.62486784  0.16974422  1
  Pr  Pr65  1  0.50558398  0.37663032  0.16394781  1
  Pr  Pr66  1  0.50085849  0.62649079  0.50016324  1
  Pr  Pr67  1  -0.00091889  0.62487068  0.66589289  1
  Pr  Pr68  1  0.50384190  0.37482544  0.83265314  1
  Pr  Pr69  1  0.32422890  0.12658961  0.66766649  1
  Pr  Pr70  1  0.49984385  0.87486687  0.83246519  1
  Pr  Pr71  1  0.82747002  0.12682579  0.49688058  1
  Mn  Mn72  1  0.00125393  -0.00095885  0.16607303  1
  Mn  Mn73  1  -0.00267576  -0.00005909  0.50022015  1
  Mn  Mn74  1  -0.00026472  -0.00311842  0.83284427  1
  Mn  Mn75  1  0.00402046  0.50161957  0.16539663  1
  Mn  Mn76  1  0.00247091  0.50238332  0.49960737  1
  Mn  Mn77  1  0.00245107  0.50188729  0.83499012  1
  Mn  Mn78  1  0.33320449  -0.00076596  0.16756866  1
  Mn  Mn79  1  0.32922857  -0.00055625  0.50098556  1
  Mn  Mn80  1  0.33211439  -0.00273687  0.83514096  1
  Mn  Mn81  1  0.33323193  0.50123633  0.17004146  1
  Mn  Mn82  1  0.33486947  0.50226986  0.50098922  1
  Mn  Mn83  1  0.33522233  0.50095656  0.83341644  1
  Mn  Mn84  1  0.66434732  -0.00095026  0.16608254  1
  Mn  Mn85  1  0.66634817  0.00299987  0.49797481  1
  Mn  Mn86  1  0.66661005  -0.00378149  0.83168434  1
  Mn  Mn87  1  0.66672907  0.50307380  0.16700199  1
  Mn  Mn88  1  0.66636278  0.49960323  0.49970795  1
  Mn  Mn89  1  0.66752354  0.50336890  0.83007132  1
  Mn  Mn90  1  0.00336072  0.24833337  0.16672452  1
  Mn  Mn91  1  -0.00057815  0.24782188  0.50062679  1
  Mn  Mn92  1  0.00124958  0.24970654  0.83456600  1
  Mn  Mn93  1  0.00096892  0.75197251  0.16563198  1
  Mn  Mn94  1  0.00153849  0.75193398  0.49904951  1
  Mn  Mn95  1  0.00109846  0.75027990  0.83312128  1
  Mn  Mn96  1  0.33332322  0.24788280  0.16852784  1
  Mn  Mn97  1  0.33390122  0.24917038  0.50159790  1
  Mn  Mn98  1  0.33443259  0.25027785  0.83393417  1
  Mn  Mn99  1  0.33362292  0.75134181  0.16893914  1
  Mn  Mn100  1  0.33043233  0.74894852  0.50071181  1
  Mn  Mn101  1  0.33297516  0.75038534  0.83307887  1
  Mn  Mn102  1  0.66533483  0.24907548  0.16735174  1
  Mn  Mn103  1  0.66682670  0.24922338  0.49909370  1
  Mn  Mn104  1  0.66698736  0.25105692  0.82975186  1
  Mn  Mn105  1  0.66510523  0.74938162  0.16332490  1
  Mn  Mn106  1  0.66533057  0.74950362  0.49832594  1
  Mn  Mn107  1  0.66580869  0.74776504  0.83254506  1
  Mn  Mn108  1  0.16732583  0.24869209  0.00254920  1
  Mn  Mn109  1  0.16776328  0.24714496  0.33491781  1
  Mn  Mn110  1  0.16491455  0.24908265  0.66918951  1
  Mn  Mn111  1  0.16542596  0.75000783  -0.00001906  1
  Mn  Mn112  1  0.16398776  0.75230173  0.33455492  1
  Mn  Mn113  1  0.16666016  0.75107986  0.66566330  1
  Mn  Mn114  1  0.49934559  0.25119548  0.00073525  1
  Mn  Mn115  1  0.50038452  0.24990896  0.33507478  1
  Mn  Mn116  1  0.50040475  0.24805512  0.66595606  1
  Mn  Mn117  1  0.50159499  0.74899880  -0.00049829  1
  Mn  Mn118  1  0.49746718  0.74905700  0.33300800  1
  Mn  Mn119  1  0.49892297  0.74977861  0.66784127  1
  Mn  Mn120  1  0.83582034  0.25056614  -0.00158922  1
  Mn  Mn121  1  0.83262865  0.24938025  0.33432791  1
  Mn  Mn122  1  0.83179281  0.24688300  0.66495516  1
  Mn  Mn123  1  0.83309309  0.74921334  -0.00086762  1
  Mn  Mn124  1  0.83304598  0.75101609  0.32998090  1
  Mn  Mn125  1  0.83320659  0.75178839  0.66336952  1
  Mn  Mn126  1  0.16580672  -0.00251650  0.00174576  1
  Mn  Mn127  1  0.16396564  0.00010260  0.33327223  1
  Mn  Mn128  1  0.16396913  -0.00150818  0.66636733  1
  Mn  Mn129  1  0.16648155  0.50217241  0.00235539  1
  Mn  Mn130  1  0.16794998  0.50135573  0.33468210  1
  Mn  Mn131  1  0.16758317  0.50244843  0.66925470  1
  Mn  Mn132  1  0.49832437  -0.00344117  0.00115572  1
  Mn  Mn133  1  0.49554418  0.00122230  0.33292421  1
  Mn  Mn134  1  0.49940935  -0.00007243  0.66758944  1
  Mn  Mn135  1  0.50215625  0.50225139  0.00106498  1
  Mn  Mn136  1  0.50175972  0.49980807  0.33511436  1
  Mn  Mn137  1  0.50069778  0.50175972  0.66586979  1
  Mn  Mn138  1  0.83256814  -0.00270127  -0.00204282  1
  Mn  Mn139  1  0.83212482  -0.00127294  0.33280628  1
  Mn  Mn140  1  0.83125324  -0.00032049  0.66321956  1
  Mn  Mn141  1  0.83792892  0.50382159  -0.00028716  1
  Mn  Mn142  1  0.83370062  0.50157716  0.33213836  1
  Mn  Mn143  1  0.83399510  0.50161232  0.66413907  1
  O  O144  1  0.17479308  0.12000178  0.02318059  1
  O  O145  1  0.16780807  0.12104284  0.36196948  1
  O  O146  1  0.16635099  0.12197590  0.67990131  1
  O  O147  1  0.15957489  0.62822302  0.01895961  1
  O  O148  1  0.16508651  0.63244067  0.35863269  1
  O  O149  1  0.16362978  0.63251742  0.69351937  1
  O  O150  1  0.49203322  0.11934788  0.02119644  1
  O  O151  1  0.50361600  0.12833215  0.35847966  1
  O  O152  1  0.50649620  0.12257120  0.68044797  1
  O  O153  1  0.50802856  0.62716298  0.02575011  1
  O  O154  1  0.49525689  0.62385482  0.35585515  1
  O  O155  1  0.50348524  0.62900091  0.69177251  1
  O  O156  1  0.83983930  0.12223476  0.00553518  1
  O  O157  1  0.83871811  0.12204072  0.35311312  1
  O  O158  1  0.82902151  0.11991830  0.69240611  1
  O  O159  1  0.83907431  0.62790832  0.02413823  1
  O  O160  1  0.83956627  0.62698780  0.33969193  1
  O  O161  1  0.82909489  0.62947620  0.68281187  1
  O  O162  1  0.16860969  0.36880898  0.30941947  1
  O  O163  1  0.16685007  0.37316578  0.64316463  1
  O  O164  1  0.15857122  0.37655327  0.98730389  1
  O  O165  1  0.16660153  0.87752678  0.30645021  1
  O  O166  1  0.16444762  0.87412192  0.63822016  1
  O  O167  1  0.16831367  0.87350490  0.97729109  1
  O  O168  1  0.50362355  0.37401698  0.30920005  1
  O  O169  1  0.50469983  0.37391661  0.63985375  1
  O  O170  1  0.49981562  0.38130774  0.97885793  1
  O  O171  1  0.48747853  0.87435925  0.31251618  1
  O  O172  1  0.50094514  0.87470879  0.65197965  1
  O  O173  1  0.49921372  0.87083066  0.97590540  1
  O  O174  1  0.82916281  0.37641327  0.32302541  1
  O  O175  1  0.82839408  0.37181491  0.64002539  1
  O  O176  1  0.84413899  0.37908393  0.98968797  1
  O  O177  1  0.83890026  0.87525103  0.31265728  1
  O  O178  1  0.84018657  0.87729894  0.63784495  1
  O  O179  1  0.82458692  0.87134043  0.98839274  1
  O  O180  1  0.00851160  0.37432604  0.17568828  1
  O  O181  1  -0.00541884  0.37063316  0.51215411  1
  O  O182  1  0.00215946  0.38006941  0.85860048  1
  O  O183  1  0.00901494  0.87612881  0.18997681  1
  O  O184  1  0.00140961  0.87725482  0.52869155  1
  O  O185  1  0.00611948  0.87253674  0.85176047  1
  O  O186  1  0.32827846  0.37540414  0.18058591  1
  O  O187  1  0.33142578  0.37691415  0.51257266  1
  O  O188  1  0.33873703  0.37816490  0.84300997  1
  O  O189  1  0.33527210  0.87698031  0.19596336  1
  O  O190  1  0.32510076  0.87425259  0.52455723  1
  O  O191  1  0.33354989  0.87285956  0.85667324  1
  O  O192  1  0.65976876  0.37626856  0.18781232  1
  O  O193  1  0.65744037  0.37203090  0.52665036  1
  O  O194  1  0.66168730  0.37941289  0.83887291  1
  O  O195  1  0.66639914  0.87407668  0.17496016  1
  O  O196  1  0.67180737  0.87965108  0.52061807  1
  O  O197  1  0.66177658  0.86717311  0.85897498  1
  O  O198  1  0.00970171  0.12215014  0.14244521  1
  O  O199  1  0.00629752  0.12185680  0.47251735  1
  O  O200  1  -0.00358781  0.11850559  0.81269398  1
  O  O201  1  -0.00135171  0.62838471  0.14592740  1
  O  O202  1  0.01101274  0.63214245  0.47096631  1
  O  O203  1  0.00828750  0.62866895  0.80962949  1
  O  O204  1  0.33400100  0.11952555  0.13806706  1
  O  O205  1  0.33507569  0.12303205  0.48050857  1
  O  O206  1  0.33331842  0.11892506  0.81332291  1
  O  O207  1  0.33622430  0.62692490  0.15829376  1
  O  O208  1  0.33254197  0.62590451  0.47499904  1
  O  O209  1  0.33413928  0.62901822  0.81299995  1
  O  O210  1  0.65645102  0.12275935  0.15805421  1
  O  O211  1  0.67427173  0.12876566  0.46898295  1
  O  O212  1  0.67212217  0.12423986  0.81052585  1
  O  O213  1  0.65483009  0.62686116  0.14411652  1
  O  O214  1  0.65909114  0.62159227  0.48225278  1
  O  O215  1  0.65803707  0.62679847  0.80301091  1
  O  O216  1  0.08363459  0.02471703  0.25301845  1
  O  O217  1  0.07831520  0.02077501  0.58237236  1
  O  O218  1  0.07718753  0.01303314  0.92809841  1
  O  O219  1  0.08005852  0.52030332  0.25556421  1
  O  O220  1  0.08238956  0.52435874  0.58709825  1
  O  O221  1  0.07794657  0.52288780  0.92417452  1
  O  O222  1  0.41338844  0.02646211  0.24928685  1
  O  O223  1  0.41242954  0.01782036  0.58743794  1
  O  O224  1  0.40822493  0.00875956  0.92719527  1
  O  O225  1  0.41455550  0.51925819  0.25794958  1
  O  O226  1  0.41337802  0.52605859  0.58839684  1
  O  O227  1  0.42226081  0.51887187  0.91499754  1
  O  O228  1  0.74302428  0.01451118  0.25738148  1
  O  O229  1  0.74892844  0.02568152  0.58092273  1
  O  O230  1  0.75279804  0.01193691  0.90666117  1
  O  O231  1  0.74737741  0.51845582  0.24935318  1
  O  O232  1  0.74050473  0.51232849  0.58801613  1
  O  O233  1  0.75220551  0.52496201  0.91463703  1
  O  O234  1  0.24680749  0.22312476  0.24787534  1
  O  O235  1  0.24299563  0.23042654  0.58050104  1
  O  O236  1  0.24891422  0.23772316  0.92101076  1
  O  O237  1  0.25390125  0.73869001  0.26085588  1
  O  O238  1  0.25164269  0.72507262  0.58713274  1
  O  O239  1  0.24357995  0.73711333  0.91049090  1
  O  O240  1  0.57466025  0.23075828  0.24839867  1
  O  O241  1  0.57733037  0.22508051  0.57148190  1
  O  O242  1  0.58016998  0.24783152  0.90807768  1
  O  O243  1  0.57859437  0.73755119  0.24571666  1
  O  O244  1  0.58614869  0.73375389  0.59029071  1
  O  O245  1  0.58921974  0.72467761  0.91975846  1
  O  O246  1  0.92115139  0.23443211  0.24908798  1
  O  O247  1  0.91065836  0.22329288  0.57992856  1
  O  O248  1  0.91568476  0.22977266  0.91075441  1
  O  O249  1  0.92251146  0.73463343  0.25151707  1
  O  O250  1  0.92749959  0.73430694  0.58676791  1
  O  O251  1  0.91782296  0.72783206  0.91433297  1
  O  O252  1  0.08969976  0.48236433  0.08906241  1
  O  O253  1  0.09407201  0.48539802  0.42725845  1
  O  O254  1  0.09159070  0.49102446  0.76051159  1
  O  O255  1  0.09209794  0.98149947  0.09173816  1
  O  O256  1  0.07851078  0.97592517  0.41669596  1
  O  O257  1  0.08522120  0.97530686  0.75118169  1
  O  O258  1  0.42491410  0.49051395  0.09670062  1
  O  O259  1  0.43002758  0.48794830  0.43012829  1
  O  O260  1  0.42762094  0.49198157  0.75624035  1
  O  O261  1  0.41790201  0.97261264  0.08840023  1
  O  O262  1  0.40662488  0.98904313  0.41058555  1
  O  O263  1  0.41552809  0.97755837  0.75496046  1
  O  O264  1  0.75485294  0.50286029  0.08490337  1
  O  O265  1  0.75109064  0.47917839  0.42376531  1
  O  O266  1  0.74978541  0.49410991  0.74766392  1
  O  O267  1  0.74625876  0.98709733  0.07763938  1
  O  O268  1  0.75678097  0.98624328  0.42318779  1
  O  O269  1  0.74239462  0.97843050  0.73567398  1
  O  O270  1  0.25086103  0.26002468  0.08703637  1
  O  O271  1  0.25250304  0.25783923  0.41590905  1
  O  O272  1  0.25567657  0.25279208  0.74496044  1
  O  O273  1  0.25021938  0.77121561  0.08673748  1
  O  O274  1  0.24033403  0.77415145  0.42097689  1
  O  O275  1  0.24761799  0.77569410  0.74598011  1
  O  O276  1  0.58001143  0.26374195  0.08572319  1
  O  O277  1  0.59262944  0.27254871  0.40922281  1
  O  O278  1  0.58862963  0.26677484  0.73909976  1
  O  O279  1  0.57954696  0.77485528  0.08264752  1
  O  O280  1  0.57575038  0.75522925  0.41930353  1
  O  O281  1  0.57698574  0.77206203  0.75578752  1
  O  O282  1  0.93247330  0.25726872  0.07316592  1
  O  O283  1  0.91569986  0.25693879  0.41962333  1
  O  O284  1  0.91779067  0.25150296  0.74362966  1
  O  O285  1  0.91669704  0.76399890  0.08691870  1
  O  O286  1  0.91786191  0.77364658  0.42043563  1
  O  O287  1  0.92006478  0.75964442  0.74599025  1
  O  O288  1  0.24751022  0.49041491  0.08877689  1
  O  O289  1  0.25130093  0.49080763  0.42049312  1
  O  O290  1  0.25464560  0.49937470  0.74765007  1
  O  O291  1  0.25247453  0.97280583  0.08529175  1
  O  O292  1  0.24508058  0.97726929  0.41585719  1
  O  O293  1  0.25080338  0.97602334  0.74975823  1
  O  O294  1  0.58337444  0.48451751  0.08576756  1
  O  O295  1  0.58821706  0.47644217  0.41368493  1
  O  O296  1  0.58470878  0.48194847  0.74396350  1
  O  O297  1  0.57865104  0.97731946  0.08345299  1
  O  O298  1  0.58223623  0.99647440  0.41591097  1
  O  O299  1  0.58338272  0.97674362  0.75041549  1
  O  O300  1  0.93177073  0.49274889  0.07210901  1
  O  O301  1  0.91887270  0.49194810  0.41676947  1
  O  O302  1  0.92041204  0.50217959  0.74864048  1
  O  O303  1  0.92118784  0.98781096  0.08117430  1
  O  O304  1  0.91628845  0.97654527  0.41870579  1
  O  O305  1  0.92225695  0.98441734  0.73768640  1
  O  O306  1  0.09560900  0.26362932  0.09596960  1
  O  O307  1  0.09407760  0.26204727  0.42808534  1
  O  O308  1  0.08840857  0.26220358  0.75758207  1
  O  O309  1  0.08468084  0.76996832  0.08534916  1
  O  O310  1  0.07962630  0.78077711  0.41436794  1
  O  O311  1  0.08433873  0.77419048  0.74670456  1
  O  O312  1  0.42436318  0.26240263  0.09895969  1
  O  O313  1  0.43200403  0.26167625  0.42981396  1
  O  O314  1  0.42830028  0.26447799  0.75817210  1
  O  O315  1  0.41693708  0.77173478  0.08250064  1
  O  O316  1  0.40332414  0.76275747  0.40784795  1
  O  O317  1  0.41234751  0.76981255  0.74477774  1
  O  O318  1  0.75374672  0.25575362  0.08473939  1
  O  O319  1  0.75575806  0.27277953  0.42975394  1
  O  O320  1  0.74734236  0.26314096  0.74226141  1
  O  O321  1  0.73788301  0.75665436  0.07059717  1
  O  O322  1  0.75196222  0.76341957  0.41597608  1
  O  O323  1  0.73854804  0.76461660  0.74102071  1
  O  O324  1  0.24929016  0.02183227  0.24827214  1
  O  O325  1  0.24651874  0.02024488  0.58297880  1
  O  O326  1  0.25127288  0.00973962  0.92171243  1
  O  O327  1  0.24979870  0.51942606  0.25414776  1
  O  O328  1  0.24805654  0.52211142  0.58137586  1
  O  O329  1  0.24278498  0.51340763  0.91274382  1
  O  O330  1  0.57511727  0.01314583  0.24844001  1
  O  O331  1  0.58597446  0.02076553  0.58068393  1
  O  O332  1  0.58107103  0.00084398  0.91842684  1
  O  O333  1  0.57785424  0.51832926  0.24768543  1
  O  O334  1  0.57737598  0.52192112  0.57862109  1
  O  O335  1  0.58604446  0.52261006  0.91324515  1
  O  O336  1  0.92336788  0.01207833  0.25616354  1
  O  O337  1  0.91298936  0.02864735  0.57842877  1
  O  O338  1  0.91492417  0.01423063  0.91163355  1
  O  O339  1  0.91752518  0.51926613  0.24207736  1
  O  O340  1  0.92041730  0.51660026  0.58367154  1
  O  O341  1  0.91608072  0.52952753  0.91255747  1
  O  O342  1  0.08258424  0.22327328  0.25652713  1
  O  O343  1  0.07574442  0.22682704  0.58867014  1
  O  O344  1  0.07405127  0.23463570  0.93433837  1
  O  O345  1  0.08341779  0.73239724  0.25293935  1
  O  O346  1  0.08837227  0.72904847  0.57978004  1
  O  O347  1  0.08298681  0.73055824  0.91438843  1
  O  O348  1  0.40987932  0.22609783  0.25885179  1
  O  O349  1  0.41046990  0.22516829  0.59203715  1
  O  O350  1  0.40989603  0.23453621  0.92739116  1
  O  O351  1  0.41955411  0.72845203  0.24831841  1
  O  O352  1  0.42048473  0.72838854  0.58221076  1
  O  O353  1  0.42816642  0.73493990  0.91018240  1
  O  O354  1  0.73865853  0.23729000  0.26344534  1
  O  O355  1  0.74367026  0.22360146  0.58523502  1
  O  O356  1  0.75310026  0.23924124  0.90769750  1
  O  O357  1  0.75280859  0.73253114  0.23656481  1
  O  O358  1  0.74793111  0.74120417  0.58289256  1
  O  O359  1  0.75184201  0.72073263  0.90701039  1
