# generated using pymatgen
data_Ba17Sr5La8Pr42Mn72O216
_symmetry_space_group_name_H-M   'P 1'
_cell_length_a   16.67225820
_cell_length_b   15.70739774
_cell_length_c   16.81553011
_cell_angle_alpha   90.00412126
_cell_angle_beta   89.99737119
_cell_angle_gamma   89.98040903
_symmetry_Int_Tables_number   1
_chemical_formula_structural   Ba17Sr5La8Pr42Mn72O216
_chemical_formula_sum   'Ba17 Sr5 La8 Pr42 Mn72 O216'
_cell_volume   4403.61360212
_cell_formula_units_Z   1
loop_
 _symmetry_equiv_pos_site_id
 _symmetry_equiv_pos_as_xyz
  1  'x, y, z'
loop_
 _atom_site_type_symbol
 _atom_site_label
 _atom_site_symmetry_multiplicity
 _atom_site_fract_x
 _atom_site_fract_y
 _atom_site_fract_z
 _atom_site_occupancy
  Ba  Ba0  1  0.83115714  0.12406198  0.83568530  1
  Ba  Ba1  1  0.50109937  0.12620637  0.16745529  1
  Ba  Ba2  1  0.49944653  0.87410322  0.49812426  1
  Ba  Ba3  1  -0.00148565  0.37638659  -0.00059282  1
  Ba  Ba4  1  0.83488338  0.12504377  0.50169595  1
  Ba  Ba5  1  0.83372049  0.37449631  0.50195956  1
  Ba  Ba6  1  0.16569924  0.87500321  0.83052027  1
  Ba  Ba7  1  0.66713133  0.62523848  0.66333494  1
  Ba  Ba8  1  0.66773059  0.62685036  0.99669981  1
  Ba  Ba9  1  0.83621479  0.12339973  0.16937700  1
  Ba  Ba10  1  0.33269187  0.87599237  0.33349591  1
  Ba  Ba11  1  0.33615087  0.62478455  0.33348094  1
  Ba  Ba12  1  0.50227800  0.62655527  0.49821361  1
  Ba  Ba13  1  0.16682732  0.37393471  0.50287521  1
  Ba  Ba14  1  0.49613626  0.37519070  0.83305278  1
  Ba  Ba15  1  0.33332985  0.37547727  -0.00166604  1
  Ba  Ba16  1  0.66557667  0.12503510  0.66649208  1
  Sr  Sr17  1  -0.00707984  0.37200096  0.66936200  1
  Sr  Sr18  1  0.00174441  0.12735722  0.33447145  1
  Sr  Sr19  1  0.66599314  0.12444624  0.99688097  1
  Sr  Sr20  1  0.00096832  0.12379889  0.66499406  1
  Sr  Sr21  1  0.66997428  0.12474723  0.33146508  1
  La  La22  1  0.66657413  0.36939969  0.33246359  1
  La  La23  1  0.50004182  0.12219120  0.49919391  1
  La  La24  1  0.83293838  0.37168871  0.16839336  1
  La  La25  1  0.17116626  0.62122527  0.16578122  1
  La  La26  1  0.17465863  0.62383044  0.50025903  1
  La  La27  1  -0.00156136  0.37170822  0.33846045  1
  La  La28  1  -0.00449229  0.87588622  0.33504851  1
  La  La29  1  0.16744259  0.87325914  0.16115378  1
  Pr  Pr30  1  0.66993493  0.62657435  0.32930147  1
  Pr  Pr31  1  0.50451224  0.87302705  0.16588091  1
  Pr  Pr32  1  0.16140855  0.12805588  0.83397041  1
  Pr  Pr33  1  0.33376531  0.87832753  0.00624997  1
  Pr  Pr34  1  0.16289309  0.87654065  0.49570634  1
  Pr  Pr35  1  0.00119805  0.12576349  0.99533890  1
  Pr  Pr36  1  0.66780988  0.37048339  0.00053571  1
  Pr  Pr37  1  0.82273509  0.37537109  0.82972767  1
  Pr  Pr38  1  0.66699547  0.37350723  0.66579741  1
  Pr  Pr39  1  0.32802786  0.37631740  0.67392667  1
  Pr  Pr40  1  0.00910932  0.62254747  0.33585721  1
  Pr  Pr41  1  0.84068157  0.62548817  0.17114216  1
  Pr  Pr42  1  -0.00806928  0.87635425  0.66906869  1
  Pr  Pr43  1  0.00636803  0.62604422  0.99730535  1
  Pr  Pr44  1  0.16700320  0.12532857  0.50132935  1
  Pr  Pr45  1  0.00907720  0.62531601  0.66532778  1
  Pr  Pr46  1  0.50635704  0.37677778  0.16021612  1
  Pr  Pr47  1  0.82608521  0.87444589  0.83308724  1
  Pr  Pr48  1  0.82703728  0.87567958  0.16821979  1
  Pr  Pr49  1  0.33755563  0.62468704  0.66275116  1
  Pr  Pr50  1  0.49762427  0.62523356  0.83443668  1
  Pr  Pr51  1  0.33802222  0.37284148  0.33540988  1
  Pr  Pr52  1  0.33135270  0.12459564  0.33283086  1
  Pr  Pr53  1  0.33117810  0.12490578  0.66883845  1
  Pr  Pr54  1  0.49645559  0.12330721  0.84249030  1
  Pr  Pr55  1  0.50448503  0.87387563  0.83097095  1
  Pr  Pr56  1  0.82535919  0.87713218  0.49964083  1
  Pr  Pr57  1  0.32991420  0.12557730  0.99729599  1
  Pr  Pr58  1  0.15899242  0.37377281  0.82479887  1
  Pr  Pr59  1  0.16971220  0.62318928  0.83315517  1
  Pr  Pr60  1  0.33724711  0.87363458  0.66805767  1
  Pr  Pr61  1  0.66327004  0.88191857  0.33279098  1
  Pr  Pr62  1  0.83892917  0.62403419  0.83781705  1
  Pr  Pr63  1  0.16663126  0.12852436  0.16599139  1
  Pr  Pr64  1  0.50387273  0.37584021  0.50197365  1
  Pr  Pr65  1  0.84120352  0.62547924  0.50536580  1
  Pr  Pr66  1  0.50032201  0.62025334  0.17214240  1
  Pr  Pr67  1  0.66350542  0.87612851  0.66346923  1
  Pr  Pr68  1  0.66803717  0.87820124  0.00049160  1
  Pr  Pr69  1  -0.00782924  0.87535012  0.00411510  1
  Pr  Pr70  1  0.33498264  0.62575519  1.00084260  1
  Pr  Pr71  1  0.16700891  0.37672650  0.16378706  1
  Mn  Mn72  1  0.00284520  -0.00176489  0.16784637  1
  Mn  Mn73  1  0.00114497  -0.00118492  0.50119377  1
  Mn  Mn74  1  -0.00107483  -0.00179956  0.83400729  1
  Mn  Mn75  1  0.00079034  0.50194785  0.16866322  1
  Mn  Mn76  1  0.00142840  0.50039861  0.50094876  1
  Mn  Mn77  1  -0.00193387  0.50133081  0.83252382  1
  Mn  Mn78  1  0.33285259  0.00176446  0.16707022  1
  Mn  Mn79  1  0.33045828  0.00249654  0.50164822  1
  Mn  Mn80  1  0.33195091  -0.00186630  0.83479247  1
  Mn  Mn81  1  0.33484708  0.49798644  0.16679232  1
  Mn  Mn82  1  0.33557092  0.49631516  0.50190120  1
  Mn  Mn83  1  0.32964757  0.50276809  0.83340991  1
  Mn  Mn84  1  0.66669580  -0.00031613  0.16619876  1
  Mn  Mn85  1  0.66549265  0.00111765  0.49857282  1
  Mn  Mn86  1  0.66404627  -0.00143961  0.83361988  1
  Mn  Mn87  1  0.67104266  0.50138278  0.16516632  1
  Mn  Mn88  1  0.66887696  0.49928258  0.49695218  1
  Mn  Mn89  1  0.66465337  0.50206030  0.83191140  1
  Mn  Mn90  1  0.00150797  0.25040809  0.16789019  1
  Mn  Mn91  1  0.00116414  0.24898644  0.50158455  1
  Mn  Mn92  1  -0.00318623  0.24985285  0.83311622  1
  Mn  Mn93  1  0.00190558  0.74932762  0.16824293  1
  Mn  Mn94  1  0.00114692  0.75045076  0.50156181  1
  Mn  Mn95  1  -0.00093153  0.75131353  0.83326266  1
  Mn  Mn96  1  0.33308390  0.25009844  0.16821416  1
  Mn  Mn97  1  0.33504545  0.24986887  0.50165484  1
  Mn  Mn98  1  0.32928527  0.24833119  0.83319313  1
  Mn  Mn99  1  0.33464516  0.75085720  0.16442943  1
  Mn  Mn100  1  0.33181980  0.75039522  0.50086965  1
  Mn  Mn101  1  0.33326529  0.75050111  0.83398193  1
  Mn  Mn102  1  0.66857966  0.24947361  0.16707137  1
  Mn  Mn103  1  0.66553990  0.25033192  0.49933027  1
  Mn  Mn104  1  0.66239252  0.25004659  0.83394502  1
  Mn  Mn105  1  0.66850937  0.74858095  0.16415464  1
  Mn  Mn106  1  0.66937207  0.75023601  0.49603483  1
  Mn  Mn107  1  0.66669696  0.74947121  0.83135980  1
  Mn  Mn108  1  0.16554588  0.25104033  -0.00002609  1
  Mn  Mn109  1  0.16751325  0.24959636  0.33210376  1
  Mn  Mn110  1  0.16412843  0.24698651  0.66742258  1
  Mn  Mn111  1  0.16759681  0.75019010  -0.00314678  1
  Mn  Mn112  1  0.16538694  0.75000703  0.33103922  1
  Mn  Mn113  1  0.16807580  0.75172731  0.66404839  1
  Mn  Mn114  1  0.49977347  0.25024056  0.00136040  1
  Mn  Mn115  1  0.50054663  0.25152325  0.33387262  1
  Mn  Mn116  1  0.49591053  0.24782643  0.66610948  1
  Mn  Mn117  1  0.49765140  0.75063381  -0.00104570  1
  Mn  Mn118  1  0.50261456  0.74858094  0.33023992  1
  Mn  Mn119  1  0.50008162  0.75187523  0.66787913  1
  Mn  Mn120  1  0.83289887  0.25087030  0.00078685  1
  Mn  Mn121  1  0.83530203  0.24950715  0.33359147  1
  Mn  Mn122  1  0.83350598  0.24997374  0.66813944  1
  Mn  Mn123  1  0.83492058  0.74953592  0.00196702  1
  Mn  Mn124  1  0.83439766  0.74935412  0.33618261  1
  Mn  Mn125  1  0.83487140  0.75036575  0.66775728  1
  Mn  Mn126  1  0.16573588  -0.00023962  -0.00167100  1
  Mn  Mn127  1  0.16456989  0.00066104  0.33095607  1
  Mn  Mn128  1  0.16716736  -0.00129276  0.66430787  1
  Mn  Mn129  1  0.16697080  0.50032605  -0.00161914  1
  Mn  Mn130  1  0.16835109  0.49857282  0.33228738  1
  Mn  Mn131  1  0.16493891  0.50127665  0.66797318  1
  Mn  Mn132  1  0.49753941  -0.00208038  0.00016881  1
  Mn  Mn133  1  0.49960008  0.00215628  0.33277857  1
  Mn  Mn134  1  0.49798812  0.00112673  0.66938438  1
  Mn  Mn135  1  0.50090978  0.50215267  0.00072535  1
  Mn  Mn136  1  0.50322411  0.49692380  0.33216082  1
  Mn  Mn137  1  0.49800820  0.49803609  0.66548644  1
  Mn  Mn138  1  0.83361320  -0.00043887  0.00202754  1
  Mn  Mn139  1  0.83559547  -0.00135878  0.33363703  1
  Mn  Mn140  1  0.83396410  -0.00124037  0.66719122  1
  Mn  Mn141  1  0.83411380  0.50051743  0.00160214  1
  Mn  Mn142  1  0.83459591  0.50305818  0.33450612  1
  Mn  Mn143  1  0.83369455  0.50209610  0.66930130  1
  O  O144  1  0.15908328  0.12297385  0.02208258  1
  O  O145  1  0.17105546  0.12638486  0.35754872  1
  O  O146  1  0.16836006  0.12102766  0.69060878  1
  O  O147  1  0.16029640  0.62556661  0.02110733  1
  O  O148  1  0.16270775  0.62502762  0.35595418  1
  O  O149  1  0.16426554  0.62857796  0.68956396  1
  O  O150  1  0.49419155  0.12315529  0.01004311  1
  O  O151  1  0.49728482  0.13152445  0.35474784  1
  O  O152  1  0.49434763  0.12322521  0.69703228  1
  O  O153  1  0.49213727  0.62881053  0.02711441  1
  O  O154  1  0.50662917  0.62195896  0.33980335  1
  O  O155  1  0.49222337  0.62934303  0.68942481  1
  O  O156  1  0.83406194  0.12270232  0.01227734  1
  O  O157  1  0.83182576  0.11959344  0.34228621  1
  O  O158  1  0.83525766  0.12093592  0.67781002  1
  O  O159  1  0.83603162  0.62682079  0.02715078  1
  O  O160  1  0.82114301  0.62855055  0.36193342  1
  O  O161  1  0.83666041  0.62835104  0.69371184  1
  O  O162  1  0.16734313  0.37383690  0.30727333  1
  O  O163  1  0.17255360  0.37467732  0.66273661  1
  O  O164  1  0.16761947  0.37854160  0.97168239  1
  O  O165  1  0.16044793  0.87406969  0.30628820  1
  O  O166  1  0.17598417  0.87449846  0.63959205  1
  O  O167  1  0.17948413  0.87474022  0.98602286  1
  O  O168  1  0.49914655  0.37406250  0.30546387  1
  O  O169  1  0.48635165  0.36990564  0.64610207  1
  O  O170  1  0.50937686  0.37688904  0.99118607  1
  O  O171  1  0.50821472  0.87153570  0.31170594  1
  O  O172  1  0.49517693  0.87766465  0.65516047  1
  O  O173  1  0.49078730  0.87259903  0.97349802  1
  O  O174  1  0.84289362  0.38218987  0.31388530  1
  O  O175  1  0.83096452  0.37905041  0.66086660  1
  O  O176  1  0.83096442  0.37792313  0.97598303  1
  O  O177  1  0.84327107  0.86987551  0.31126130  1
  O  O178  1  0.84210718  0.87176909  0.64379149  1
  O  O179  1  0.83991427  0.87260754  0.97783143  1
  O  O180  1  0.00661560  0.38214170  0.19337480  1
  O  O181  1  0.00145037  0.37917829  0.51487657  1
  O  O182  1  0.00723267  0.37762650  0.84313507  1
  O  O183  1  0.01132507  0.87246354  0.19179433  1
  O  O184  1  0.01088369  0.87122402  0.52614596  1
  O  O185  1  -0.00349139  0.87287150  0.85962434  1
  O  O186  1  0.32397271  0.37204382  0.19062354  1
  O  O187  1  0.34078934  0.37067116  0.52966651  1
  O  O188  1  0.32073534  0.37623699  0.84096373  1
  O  O189  1  0.32146964  0.87617558  0.17513481  1
  O  O190  1  0.32312113  0.87946305  0.52338442  1
  O  O191  1  0.33548285  0.87349441  0.86272270  1
  O  O192  1  0.66437322  0.37931332  0.18632950  1
  O  O193  1  0.66273533  0.37434706  0.51967562  1
  O  O194  1  0.66882897  0.37890271  0.85530763  1
  O  O195  1  0.66339060  0.87049735  0.18720513  1
  O  O196  1  0.67052320  0.87385043  0.51733261  1
  O  O197  1  0.66334712  0.87177960  0.85657462  1
  O  O198  1  0.00660072  0.11929946  0.13889347  1
  O  O199  1  0.00733929  0.12053304  0.48437666  1
  O  O200  1  0.00396786  0.12186918  0.81770129  1
  O  O201  1  -0.00414486  0.62612022  0.13981623  1
  O  O202  1  -0.00391901  0.62791734  0.47967713  1
  O  O203  1  -0.00593863  0.62855300  0.80913516  1
  O  O204  1  0.33085886  0.12654808  0.14127774  1
  O  O205  1  0.32769166  0.12821549  0.47595579  1
  O  O206  1  0.33719930  0.12139340  0.81298548  1
  O  O207  1  0.34193673  0.62606666  0.14620609  1
  O  O208  1  0.32756735  0.62112924  0.49118362  1
  O  O209  1  0.33289857  0.62818737  0.80694613  1
  O  O210  1  0.67033883  0.12277045  0.15020323  1
  O  O211  1  0.65958477  0.12701794  0.48397966  1
  O  O212  1  0.65675025  0.12093547  0.82495392  1
  O  O213  1  0.67584112  0.62565304  0.15152423  1
  O  O214  1  0.67492713  0.62607605  0.47560101  1
  O  O215  1  0.66804261  0.62768085  0.81944656  1
  O  O216  1  0.09121690  0.02039757  0.24050505  1
  O  O217  1  0.09412586  0.01223378  0.57158502  1
  O  O218  1  0.08507517  0.01892392  0.91399239  1
  O  O219  1  0.08618305  0.52485482  0.24557046  1
  O  O220  1  0.09013308  0.52378550  0.57896718  1
  O  O221  1  0.08619793  0.52319279  0.90888222  1
  O  O222  1  0.41207364  0.01440003  0.25604500  1
  O  O223  1  0.41015136  0.01923994  0.59232838  1
  O  O224  1  0.40690576  0.01836962  0.92466499  1
  O  O225  1  0.42498552  0.50846719  0.24460713  1
  O  O226  1  0.41639496  0.51561789  0.58419466  1
  O  O227  1  0.41475701  0.52232223  0.91341014  1
  O  O228  1  0.75196101  -0.00398133  0.25057187  1
  O  O229  1  0.75044008  -0.00093672  0.58412405  1
  O  O230  1  0.74377141  0.00081514  0.91974294  1
  O  O231  1  0.76058225  0.51868475  0.24226670  1
  O  O232  1  0.76099791  0.51667891  0.57571065  1
  O  O233  1  0.76054572  0.51492664  0.90679636  1
  O  O234  1  0.24904935  0.22489210  0.24830886  1
  O  O235  1  0.25151191  0.23009581  0.58706533  1
  O  O236  1  0.24755333  0.22435236  0.91736238  1
  O  O237  1  0.24824386  0.73544338  0.23957286  1
  O  O238  1  0.25034981  0.72750700  0.58599633  1
  O  O239  1  0.24945662  0.72339044  0.91382456  1
  O  O240  1  0.58625865  0.24266627  0.25170898  1
  O  O241  1  0.57268471  0.24033586  0.57531210  1
  O  O242  1  0.57646264  0.23500667  0.91176067  1
  O  O243  1  0.58652635  0.72779666  0.24378946  1
  O  O244  1  0.58832619  0.74653853  0.58382036  1
  O  O245  1  0.57172919  0.73609475  0.91019826  1
  O  O246  1  0.92357981  0.24488132  0.25340566  1
  O  O247  1  0.92048920  0.24282373  0.59150607  1
  O  O248  1  0.92175574  0.23553237  0.92417331  1
  O  O249  1  0.92164064  0.72497253  0.26267423  1
  O  O250  1  0.92777393  0.73070696  0.59473842  1
  O  O251  1  0.92226413  0.72770010  0.92693841  1
  O  O252  1  0.08629923  0.48793229  0.08585697  1
  O  O253  1  0.07855997  0.48834335  0.40741406  1
  O  O254  1  0.07442549  0.49154541  0.74270006  1
  O  O255  1  0.08122265  0.97366283  0.07755440  1
  O  O256  1  0.07770889  0.97733755  0.40999565  1
  O  O257  1  0.07757293  0.98188302  0.73823828  1
  O  O258  1  0.42060950  0.48483380  0.08796489  1
  O  O259  1  0.41877604  0.47550547  0.41507478  1
  O  O260  1  0.40198554  0.48967074  0.74240208  1
  O  O261  1  0.42002190  0.97666517  0.08756186  1
  O  O262  1  0.41468952  0.99848463  0.42207202  1
  O  O263  1  0.41998120  0.97858444  0.76029837  1
  O  O264  1  0.74660665  0.47545266  0.07814223  1
  O  O265  1  0.74168612  0.48361566  0.40186122  1
  O  O266  1  0.74181313  0.48044806  0.74526371  1
  O  O267  1  0.74974489  0.97492160  0.08326002  1
  O  O268  1  0.75032591  0.97939575  0.41410998  1
  O  O269  1  0.74861276  0.97570130  0.74990634  1
  O  O270  1  0.24627860  0.26324580  0.08675208  1
  O  O271  1  0.25908775  0.26719234  0.40872856  1
  O  O272  1  0.24232697  0.25904572  0.75605860  1
  O  O273  1  0.25388267  0.75786860  0.07664039  1
  O  O274  1  0.23822552  0.76374404  0.42253644  1
  O  O275  1  0.25738087  0.76640204  0.74476743  1
  O  O276  1  0.58915744  0.26741293  0.08319586  1
  O  O277  1  0.58226001  0.27385509  0.41525986  1
  O  O278  1  0.58395733  0.26893584  0.74075573  1
  O  O279  1  0.58100472  0.77356347  0.07788322  1
  O  O280  1  0.59150574  0.75959950  0.40467544  1
  O  O281  1  0.58321286  0.77104795  0.74808301  1
  O  O282  1  0.91324211  0.26588104  0.09040676  1
  O  O283  1  0.92015139  0.25990241  0.41438593  1
  O  O284  1  0.90942535  0.26640980  0.75986724  1
  O  O285  1  0.91372152  0.77302946  0.09336605  1
  O  O286  1  0.90858251  0.76768780  0.43040499  1
  O  O287  1  0.90949538  0.77296422  0.75919492  1
  O  O288  1  0.24715386  0.49036661  0.08737559  1
  O  O289  1  0.25537778  0.48253791  0.41618503  1
  O  O290  1  0.23543055  0.49086596  0.76212103  1
  O  O291  1  0.25124672  0.99045448  0.07845133  1
  O  O292  1  0.23918589  0.98663557  0.42279773  1
  O  O293  1  0.25900899  0.98405942  0.74283436  1
  O  O294  1  0.58450352  0.48781963  0.08857385  1
  O  O295  1  0.58150209  0.47678743  0.41462927  1
  O  O296  1  0.57939165  0.48636598  0.74558226  1
  O  O297  1  0.58435792  0.97604309  0.07667166  1
  O  O298  1  0.58746167  0.98923758  0.40956204  1
  O  O299  1  0.58585796  0.97688903  0.74708566  1
  O  O300  1  0.90836244  0.48562505  0.09767577  1
  O  O301  1  0.91517754  0.49619379  0.41822161  1
  O  O302  1  0.90311334  0.48865630  0.76632672  1
  O  O303  1  0.91524023  0.97326881  0.09258948  1
  O  O304  1  0.91403432  0.97573692  0.42460469  1
  O  O305  1  0.91205724  0.97620909  0.75716777  1
  O  O306  1  0.08792328  0.26772306  0.08742988  1
  O  O307  1  0.08341817  0.26335984  0.40978657  1
  O  O308  1  0.08180803  0.26049660  0.75175745  1
  O  O309  1  0.08224421  0.76988482  0.07519085  1
  O  O310  1  0.07263130  0.76731655  0.41081706  1
  O  O311  1  0.07537022  0.76541562  0.73602823  1
  O  O312  1  0.42204284  0.26822228  0.09358927  1
  O  O313  1  0.42192289  0.27386472  0.42165898  1
  O  O314  1  0.40370161  0.26169161  0.74252243  1
  O  O315  1  0.41573706  0.77566770  0.08090145  1
  O  O316  1  0.41602002  0.75657008  0.41503390  1
  O  O317  1  0.41920445  0.77128406  0.75835081  1
  O  O318  1  0.75065611  0.27325755  0.08351163  1
  O  O319  1  0.74529604  0.26222329  0.41033600  1
  O  O320  1  0.74590546  0.26825990  0.75262531  1
  O  O321  1  0.74858139  0.77571371  0.07932639  1
  O  O322  1  0.74805253  0.77831940  0.40904331  1
  O  O323  1  0.74721778  0.77690090  0.74075188  1
  O  O324  1  0.25013419  0.02342768  0.24987211  1
  O  O325  1  0.25008063  0.02799802  0.58354728  1
  O  O326  1  0.24633896  0.02590149  0.91386446  1
  O  O327  1  0.24833273  0.51420892  0.24568480  1
  O  O328  1  0.25412495  0.51336894  0.59486264  1
  O  O329  1  0.25301270  0.52869216  0.92016422  1
  O  O330  1  0.58443420  0.00544036  0.24580202  1
  O  O331  1  0.57589878  0.01290044  0.57889950  1
  O  O332  1  0.57090301  0.00748866  0.90984690  1
  O  O333  1  0.59268644  0.51817045  0.25073137  1
  O  O334  1  0.58425415  0.50129955  0.58292751  1
  O  O335  1  0.57855633  0.51904535  0.91154908  1
  O  O336  1  0.92728291  0.00500958  0.25808404  1
  O  O337  1  0.92669172  0.00430259  0.59064827  1
  O  O338  1  0.92502071  0.01111906  0.93035973  1
  O  O339  1  0.92225846  0.52886189  0.25764058  1
  O  O340  1  0.92347878  0.52212698  0.59320402  1
  O  O341  1  0.92330096  0.52519749  0.92543515  1
  O  O342  1  0.08894113  0.23102981  0.24590805  1
  O  O343  1  0.08944840  0.23133559  0.58128764  1
  O  O344  1  0.08370044  0.23117104  0.91492511  1
  O  O345  1  0.08642824  0.72340098  0.24480542  1
  O  O346  1  0.09064570  0.72716681  0.57378891  1
  O  O347  1  0.08619225  0.72851252  0.91079926  1
  O  O348  1  0.40633654  0.23792967  0.26254898  1
  O  O349  1  0.41572801  0.21775872  0.58337280  1
  O  O350  1  0.41072362  0.23257684  0.91583374  1
  O  O351  1  0.42670562  0.74176849  0.23824492  1
  O  O352  1  0.41023856  0.74205662  0.59377704  1
  O  O353  1  0.41233703  0.72281271  0.91900704  1
  O  O354  1  0.75227619  0.25107201  0.24857102  1
  O  O355  1  0.74525905  0.24768816  0.58730854  1
  O  O356  1  0.74354961  0.24538822  0.92231952  1
  O  O357  1  0.75882330  0.73391493  0.24683540  1
  O  O358  1  0.76501096  0.73861795  0.57227505  1
  O  O359  1  0.76028088  0.74028732  0.90693616  1
