# generated using pymatgen
data_Ba17Sr5La8Pr42Mn72O216
_symmetry_space_group_name_H-M   'P 1'
_cell_length_a   16.67389678
_cell_length_b   15.70579870
_cell_length_c   16.82000781
_cell_angle_alpha   90.01116308
_cell_angle_beta   89.99725947
_cell_angle_gamma   89.99132581
_symmetry_Int_Tables_number   1
_chemical_formula_structural   Ba17Sr5La8Pr42Mn72O216
_chemical_formula_sum   'Ba17 Sr5 La8 Pr42 Mn72 O216'
_cell_volume   4404.77079731
_cell_formula_units_Z   1
loop_
 _symmetry_equiv_pos_site_id
 _symmetry_equiv_pos_as_xyz
  1  'x, y, z'
loop_
 _atom_site_type_symbol
 _atom_site_label
 _atom_site_symmetry_multiplicity
 _atom_site_fract_x
 _atom_site_fract_y
 _atom_site_fract_z
 _atom_site_occupancy
  Ba  Ba0  1  0.33299290  0.12295048  0.66462310  1
  Ba  Ba1  1  0.83189477  0.12490453  0.83548339  1
  Ba  Ba2  1  0.66643690  0.12438696  0.99945490  1
  Ba  Ba3  1  0.00124738  0.12276036  0.99662315  1
  Ba  Ba4  1  0.16797534  0.12528562  0.83084435  1
  Ba  Ba5  1  0.50340040  0.37564482  0.16537199  1
  Ba  Ba6  1  0.00350676  0.37310025  0.33235758  1
  Ba  Ba7  1  0.16595414  0.62785171  0.16521628  1
  Ba  Ba8  1  -0.00205922  0.12313291  0.33207161  1
  Ba  Ba9  1  0.83439024  0.62537770  0.83616372  1
  Ba  Ba10  1  -0.00113326  0.62596982  0.66517254  1
  Ba  Ba11  1  0.66618030  0.37499460  0.33507032  1
  Ba  Ba12  1  0.16935393  0.37452269  0.83222977  1
  Ba  Ba13  1  0.49865082  0.62906726  0.83317924  1
  Ba  Ba14  1  0.16639757  0.37658754  0.16487270  1
  Ba  Ba15  1  0.33497228  0.37460327  0.00189863  1
  Ba  Ba16  1  0.49660509  0.62609455  0.50199627  1
  Sr  Sr17  1  0.67110377  0.37726258  0.00487658  1
  Sr  Sr18  1  0.50305265  0.87526276  0.83355864  1
  Sr  Sr19  1  0.16840001  0.37420913  0.49604328  1
  Sr  Sr20  1  0.50316523  0.87505077  0.16442872  1
  Sr  Sr21  1  0.83153302  0.12902554  0.50364157  1
  La  La22  1  -0.00126038  0.12774229  0.66253060  1
  La  La23  1  0.33564166  0.62243354  1.00188931  1
  La  La24  1  0.83694704  0.37192799  0.16663430  1
  La  La25  1  0.49848503  0.12229462  0.83679203  1
  La  La26  1  0.16866588  0.62533800  0.83567726  1
  La  La27  1  0.66398251  0.12440347  0.33038669  1
  La  La28  1  0.66271377  0.62711305  0.66715041  1
  La  La29  1  0.33082616  0.62373697  0.33197343  1
  Pr  Pr30  1  0.83018824  0.12561219  0.16996179  1
  Pr  Pr31  1  0.16410098  0.87723392  0.16077419  1
  Pr  Pr32  1  0.83562283  0.87433004  0.49811379  1
  Pr  Pr33  1  0.33799046  0.37638800  0.67097869  1
  Pr  Pr34  1  0.50529100  0.37373061  0.83467581  1
  Pr  Pr35  1  0.00233317  0.37278171  0.00130349  1
  Pr  Pr36  1  -0.00010315  0.37452397  0.66572126  1
  Pr  Pr37  1  0.83148871  0.87890625  0.83259470  1
  Pr  Pr38  1  0.49988866  0.12551234  0.50189351  1
  Pr  Pr39  1  0.83641805  0.37185133  0.83774005  1
  Pr  Pr40  1  0.82831121  0.62033558  0.50657212  1
  Pr  Pr41  1  0.16400803  0.62391504  0.49939641  1
  Pr  Pr42  1  0.84105073  0.37562047  0.49560773  1
  Pr  Pr43  1  0.33478109  0.12836813  0.99640070  1
  Pr  Pr44  1  0.00387464  0.62219024  0.99431379  1
  Pr  Pr45  1  -0.00381208  0.87512730  -0.00439468  1
  Pr  Pr46  1  0.16388837  0.87609589  0.82848393  1
  Pr  Pr47  1  0.15790768  0.12683989  0.50319330  1
  Pr  Pr48  1  0.00288812  0.87491279  0.33337888  1
  Pr  Pr49  1  0.33516731  0.87484041  0.00118311  1
  Pr  Pr50  1  0.49563533  0.62390035  0.17031610  1
  Pr  Pr51  1  0.67021317  0.87150510  0.00044468  1
  Pr  Pr52  1  0.65890847  0.62500742  0.33218121  1
  Pr  Pr53  1  0.33225990  0.86995188  0.33550193  1
  Pr  Pr54  1  0.49849118  0.37244431  0.49541156  1
  Pr  Pr55  1  0.66981245  0.37708213  0.66903749  1
  Pr  Pr56  1  -0.00650269  0.87683225  0.66789292  1
  Pr  Pr57  1  0.49787447  0.12653728  0.16688749  1
  Pr  Pr58  1  0.66349693  0.12220123  0.66671879  1
  Pr  Pr59  1  0.49957022  0.87688452  0.49854295  1
  Pr  Pr60  1  0.66103816  0.62455988  0.99925692  1
  Pr  Pr61  1  -0.00363178  0.62389151  0.32977281  1
  Pr  Pr62  1  0.33183864  0.37810000  0.33530129  1
  Pr  Pr63  1  0.16549856  0.87859776  0.49814962  1
  Pr  Pr64  1  0.32988755  0.62379862  0.66548498  1
  Pr  Pr65  1  0.83472535  0.87907929  0.16694469  1
  Pr  Pr66  1  0.82953384  0.62505220  0.17028748  1
  Pr  Pr67  1  0.66617805  0.87231738  0.67048870  1
  Pr  Pr68  1  0.33171366  0.12439798  0.33220158  1
  Pr  Pr69  1  0.66712526  0.87518412  0.33803390  1
  Pr  Pr70  1  0.33411144  0.87212020  0.67243519  1
  Pr  Pr71  1  0.16974732  0.12820639  0.16423607  1
  Mn  Mn72  1  -0.00002945  -0.00105833  0.16471216  1
  Mn  Mn73  1  -0.00225366  -0.00187199  0.49946742  1
  Mn  Mn74  1  -0.00027865  -0.00221611  0.83027535  1
  Mn  Mn75  1  -0.00222778  0.50254608  0.16415954  1
  Mn  Mn76  1  0.00055765  0.50170398  0.49828846  1
  Mn  Mn77  1  0.00092234  0.49931577  0.83182123  1
  Mn  Mn78  1  0.33388886  -0.00179228  0.16641306  1
  Mn  Mn79  1  0.33280213  -0.00217548  0.49818884  1
  Mn  Mn80  1  0.33452105  -0.00201418  0.83491006  1
  Mn  Mn81  1  0.33387929  0.50158471  0.16736474  1
  Mn  Mn82  1  0.33104825  0.49963834  0.50202806  1
  Mn  Mn83  1  0.33621782  0.50073056  0.83224312  1
  Mn  Mn84  1  0.66550139  -0.00226486  0.16808098  1
  Mn  Mn85  1  0.66701179  0.00009533  0.50096756  1
  Mn  Mn86  1  0.66536964  -0.00183928  0.83307210  1
  Mn  Mn87  1  0.66910700  0.50240003  0.16672960  1
  Mn  Mn88  1  0.66498277  0.49921407  0.50295192  1
  Mn  Mn89  1  0.66741860  0.49923073  0.83625464  1
  Mn  Mn90  1  -0.00053220  0.24784761  0.16472237  1
  Mn  Mn91  1  -0.00019782  0.25007568  0.49972298  1
  Mn  Mn92  1  -0.00000176  0.25252198  0.83164490  1
  Mn  Mn93  1  -0.00233680  0.75144763  0.16539908  1
  Mn  Mn94  1  -0.00109748  0.75177547  0.49738020  1
  Mn  Mn95  1  0.00056547  0.75088453  0.83163071  1
  Mn  Mn96  1  0.33431249  0.24637427  0.16675076  1
  Mn  Mn97  1  0.33245725  0.24897671  0.49888720  1
  Mn  Mn98  1  0.33674624  0.25004331  0.83246895  1
  Mn  Mn99  1  0.33431627  0.75379463  0.16801624  1
  Mn  Mn100  1  0.33079004  0.75218081  0.50229876  1
  Mn  Mn101  1  0.33298407  0.75120189  0.83515148  1
  Mn  Mn102  1  0.66749555  0.24869510  0.16689632  1
  Mn  Mn103  1  0.66603994  0.24836758  0.50281907  1
  Mn  Mn104  1  0.66637977  0.25337544  0.83371919  1
  Mn  Mn105  1  0.66782512  0.75099416  0.16851242  1
  Mn  Mn106  1  0.66675640  0.75172639  0.50087534  1
  Mn  Mn107  1  0.66752145  0.74920738  0.83572090  1
  Mn  Mn108  1  0.16720785  0.24877409  -0.00054033  1
  Mn  Mn109  1  0.16909842  0.24735287  0.33374132  1
  Mn  Mn110  1  0.16767685  0.25130569  0.66257388  1
  Mn  Mn111  1  0.16843690  0.75256402  -0.00304378  1
  Mn  Mn112  1  0.16549954  0.75233283  0.33300201  1
  Mn  Mn113  1  0.16647567  0.75075709  0.66426040  1
  Mn  Mn114  1  0.50253733  0.24925682  0.00050400  1
  Mn  Mn115  1  0.49764694  0.24803478  0.33491999  1
  Mn  Mn116  1  0.50226843  0.25009888  0.66570187  1
  Mn  Mn117  1  0.50088670  0.75331113  0.00272331  1
  Mn  Mn118  1  0.49967048  0.75229967  0.33293117  1
  Mn  Mn119  1  0.49880515  0.75125034  0.66725578  1
  Mn  Mn120  1  0.83384500  0.25048053  0.00091537  1
  Mn  Mn121  1  0.83114132  0.24894417  0.33586281  1
  Mn  Mn122  1  0.83138797  0.25163084  0.66678135  1
  Mn  Mn123  1  0.83539682  0.74971243  0.00382660  1
  Mn  Mn124  1  0.83163368  0.75021219  0.33519202  1
  Mn  Mn125  1  0.83111376  0.75013622  0.66571179  1
  Mn  Mn126  1  0.16965739  -0.00361326  -0.00247768  1
  Mn  Mn127  1  0.16866266  -0.00071938  0.33000365  1
  Mn  Mn128  1  0.16605033  -0.00190988  0.66250352  1
  Mn  Mn129  1  0.16654632  0.50195990  -0.00153787  1
  Mn  Mn130  1  0.16637646  0.50101059  0.33425139  1
  Mn  Mn131  1  0.16710613  0.49948031  0.66369109  1
  Mn  Mn132  1  0.50070706  -0.00372482  0.00092035  1
  Mn  Mn133  1  0.49835563  -0.00249269  0.33290599  1
  Mn  Mn134  1  0.50032359  -0.00145309  0.66632842  1
  Mn  Mn135  1  0.50229626  0.50189068  0.00090348  1
  Mn  Mn136  1  0.49876493  0.50035723  0.33535757  1
  Mn  Mn137  1  0.50069652  0.49909141  0.66654604  1
  Mn  Mn138  1  0.83319335  -0.00287520  0.00064110  1
  Mn  Mn139  1  0.83074591  -0.00140480  0.33425517  1
  Mn  Mn140  1  0.83109227  0.00108169  0.66522163  1
  Mn  Mn141  1  0.83490976  0.50147561  0.00416127  1
  Mn  Mn142  1  0.83222074  0.50248964  0.33615367  1
  Mn  Mn143  1  0.83125954  0.49843979  0.66782354  1
  O  O144  1  0.17186781  0.11728636  0.01921618  1
  O  O145  1  0.17603827  0.11928450  0.35981501  1
  O  O146  1  0.15598102  0.12213338  0.67260670  1
  O  O147  1  0.15759613  0.63043675  0.00818216  1
  O  O148  1  0.16771562  0.63130440  0.35599496  1
  O  O149  1  0.17002363  0.62805043  0.69097897  1
  O  O150  1  0.49586157  0.11725386  0.02162218  1
  O  O151  1  0.49629182  0.11972973  0.35953034  1
  O  O152  1  0.50631731  0.12287632  0.69229717  1
  O  O153  1  0.50222364  0.63175925  0.02424030  1
  O  O154  1  0.50121921  0.62798453  0.34643162  1
  O  O155  1  0.49797533  0.62510027  0.67770608  1
  O  O156  1  0.83463557  0.11968543  0.02296263  1
  O  O157  1  0.82577116  0.11994213  0.35277786  1
  O  O158  1  0.83524602  0.12597099  0.67998691  1
  O  O159  1  0.84210319  0.62764068  0.02727413  1
  O  O160  1  0.83918782  0.62936094  0.36412990  1
  O  O161  1  0.82735445  0.62377244  0.67926789  1
  O  O162  1  0.17467698  0.37170535  0.32256553  1
  O  O163  1  0.17503004  0.37658948  0.64555141  1
  O  O164  1  0.15990396  0.37905306  0.99241306  1
  O  O165  1  0.16613606  0.87564954  0.30437059  1
  O  O166  1  0.17766752  0.87349320  0.64012691  1
  O  O167  1  0.18234947  0.87290616  0.97289954  1
  O  O168  1  0.49302185  0.37470561  0.32263085  1
  O  O169  1  0.50033329  0.37461399  0.63863343  1
  O  O170  1  0.50387744  0.37822905  0.98139629  1
  O  O171  1  0.50121998  0.87558762  0.31213382  1
  O  O172  1  0.50227306  0.87644816  0.64214685  1
  O  O173  1  0.50372279  0.87456801  0.98186161  1
  O  O174  1  0.83203108  0.37981446  0.31359256  1
  O  O175  1  0.82628844  0.37530196  0.63857852  1
  O  O176  1  0.83253729  0.38022070  0.98364073  1
  O  O177  1  0.82409823  0.87184156  0.30892329  1
  O  O178  1  0.82789745  0.87544028  0.64160009  1
  O  O179  1  0.83022422  0.87087127  0.97729734  1
  O  O180  1  -0.00284358  0.37580626  0.17615990  1
  O  O181  1  -0.00440938  0.37505763  0.51908279  1
  O  O182  1  -0.00561685  0.37783653  0.85437839  1
  O  O183  1  0.00334826  0.87471941  0.19167725  1
  O  O184  1  -0.00159755  0.87364597  0.52346865  1
  O  O185  1  -0.00343454  0.87210078  0.84941795  1
  O  O186  1  0.33434487  0.37015222  0.18904380  1
  O  O187  1  0.33312658  0.37289451  0.52523758  1
  O  O188  1  0.34099583  0.37549002  0.84334940  1
  O  O189  1  0.32634278  0.87714344  0.19412254  1
  O  O190  1  0.32877499  0.87543502  0.52807011  1
  O  O191  1  0.32335382  0.87363272  0.85596385  1
  O  O192  1  0.67498023  0.37549338  0.17760722  1
  O  O193  1  0.65520444  0.36972815  0.52518727  1
  O  O194  1  0.65958426  0.37742709  0.85537547  1
  O  O195  1  0.67082444  0.87330354  0.19614505  1
  O  O196  1  0.66612597  0.87698163  0.52669526  1
  O  O197  1  0.66978727  0.87072740  0.85501225  1
  O  O198  1  -0.00969969  0.12027144  0.15368898  1
  O  O199  1  0.00277845  0.12208467  0.49177697  1
  O  O200  1  -0.00099766  0.12402563  0.80838320  1
  O  O201  1  -0.01059869  0.63002002  0.13888788  1
  O  O202  1  -0.00108525  0.63149290  0.47456237  1
  O  O203  1  0.00669410  0.62783237  0.82220483  1
  O  O204  1  0.33490754  0.11759022  0.14076209  1
  O  O205  1  0.34220356  0.12031034  0.47503698  1
  O  O206  1  0.34333799  0.12298964  0.82172575  1
  O  O207  1  0.34085205  0.63289690  0.14862232  1
  O  O208  1  0.32770119  0.63011004  0.47541757  1
  O  O209  1  0.32970381  0.62775801  0.80905798  1
  O  O210  1  0.66766123  0.12141186  0.15636041  1
  O  O211  1  0.66489570  0.12182404  0.47448557  1
  O  O212  1  0.66244460  0.12775800  0.80980671  1
  O  O213  1  0.67609191  0.63022418  0.14258267  1
  O  O214  1  0.67478004  0.63072305  0.47578084  1
  O  O215  1  0.66898650  0.62437673  0.81117375  1
  O  O216  1  0.09215977  0.01419559  0.24003939  1
  O  O217  1  0.08268013  0.00888615  0.57951004  1
  O  O218  1  0.08937173  -0.00286985  0.90999286  1
  O  O219  1  0.07544609  0.51875650  0.25185555  1
  O  O220  1  0.08526124  0.51585493  0.57765811  1
  O  O221  1  0.08675081  0.51752595  0.91207110  1
  O  O222  1  0.41526371  0.02220688  0.24788361  1
  O  O223  1  0.42409396  0.01065651  0.57614523  1
  O  O224  1  0.41782920  0.01279859  0.91910773  1
  O  O225  1  0.41437389  0.51967555  0.25477221  1
  O  O226  1  0.40494809  0.51197033  0.59355607  1
  O  O227  1  0.41295758  0.51848555  0.92346443  1
  O  O228  1  0.74540195  0.01722534  0.25421158  1
  O  O229  1  0.74489479  0.01967561  0.58724423  1
  O  O230  1  0.74869831  0.00167118  0.91864013  1
  O  O231  1  0.74578789  0.52771817  0.26014827  1
  O  O232  1  0.74343513  0.51807098  0.59092521  1
  O  O233  1  0.74685562  0.51768489  0.93060673  1
  O  O234  1  0.25095512  0.22245482  0.24852581  1
  O  O235  1  0.24282987  0.23018359  0.56869286  1
  O  O236  1  0.25498382  0.23719087  0.91986343  1
  O  O237  1  0.25560201  0.73695381  0.25886477  1
  O  O238  1  0.24895948  0.72487193  0.58399725  1
  O  O239  1  0.25236861  0.72523175  0.91751214  1
  O  O240  1  0.57887196  0.22880444  0.25015338  1
  O  O241  1  0.58263400  0.22117973  0.58418169  1
  O  O242  1  0.57472222  0.23672123  0.90391909  1
  O  O243  1  0.58429451  0.72785464  0.24549789  1
  O  O244  1  0.58756707  0.73933774  0.58424574  1
  O  O245  1  0.58841453  0.73695951  0.92219958  1
  O  O246  1  0.90707576  0.23833729  0.24058490  1
  O  O247  1  0.91674548  0.23937625  0.58686168  1
  O  O248  1  0.91436669  0.24756207  0.91355611  1
  O  O249  1  0.90930978  0.73027684  0.25112830  1
  O  O250  1  0.90858953  0.73897020  0.57336534  1
  O  O251  1  0.92537313  0.73907403  0.92780095  1
  O  O252  1  0.07437377  0.49504443  0.07350554  1
  O  O253  1  0.08691174  0.49659844  0.41778395  1
  O  O254  1  0.08127016  0.48265367  0.73993552  1
  O  O255  1  0.08442989  0.97387713  0.07542929  1
  O  O256  1  0.08446894  0.97780604  0.41258899  1
  O  O257  1  0.08035027  0.97503548  0.74236121  1
  O  O258  1  0.42230082  0.49955654  0.08770146  1
  O  O259  1  0.41448371  0.48043832  0.42317661  1
  O  O260  1  0.42443288  0.47855457  0.75228951  1
  O  O261  1  0.41307070  0.97682241  0.08337364  1
  O  O262  1  0.41504685  0.97176766  0.41530546  1
  O  O263  1  0.41512101  0.97827512  0.74790972  1
  O  O264  1  0.76211033  0.49093851  0.09676798  1
  O  O265  1  0.75689405  0.48546451  0.43072199  1
  O  O266  1  0.75240342  0.47520669  0.75557414  1
  O  O267  1  0.75339591  0.97685718  0.08827612  1
  O  O268  1  0.74949690  0.97443321  0.41906534  1
  O  O269  1  0.74939456  0.97866037  0.75029960  1
  O  O270  1  0.25105986  0.24935348  0.08556054  1
  O  O271  1  0.26053527  0.26257162  0.40681919  1
  O  O272  1  0.25786240  0.26109208  0.74046367  1
  O  O273  1  0.25091773  0.77076638  0.08425223  1
  O  O274  1  0.24762056  0.77583008  0.42088407  1
  O  O275  1  0.24806382  0.77039393  0.75052663  1
  O  O276  1  0.58953514  0.25674218  0.08133676  1
  O  O277  1  0.57712736  0.25830312  0.42377564  1
  O  O278  1  0.58834171  0.27470212  0.74384637  1
  O  O279  1  0.59176516  0.76860811  0.08244201  1
  O  O280  1  0.58635826  0.77254889  0.41605527  1
  O  O281  1  0.58722876  0.76519116  0.74638997  1
  O  O282  1  0.92038293  0.26980904  0.07832583  1
  O  O283  1  0.91478148  0.26233909  0.42090328  1
  O  O284  1  0.91531445  0.27612628  0.74692001  1
  O  O285  1  0.91624378  0.78053434  0.08609244  1
  O  O286  1  0.91807949  0.77816936  0.41063805  1
  O  O287  1  0.91425925  0.77166814  0.74741231  1
  O  O288  1  0.25285357  0.50208278  0.07921353  1
  O  O289  1  0.25524664  0.48658563  0.41528624  1
  O  O290  1  0.26057925  0.49022566  0.73845350  1
  O  O291  1  0.24807589  0.97601053  0.08753244  1
  O  O292  1  0.25181155  0.97254231  0.41051914  1
  O  O293  1  0.24782530  0.98088427  0.74852676  1
  O  O294  1  0.59273362  0.49866107  0.07902709  1
  O  O295  1  0.58105288  0.48915143  0.42002213  1
  O  O296  1  0.58541249  0.47915759  0.74683208  1
  O  O297  1  0.58903939  0.97852085  0.08069339  1
  O  O298  1  0.58371696  0.97708909  0.41861401  1
  O  O299  1  0.58845450  0.98054599  0.74228387  1
  O  O300  1  0.91690634  0.47785598  0.08356900  1
  O  O301  1  0.91663226  0.48773720  0.41606190  1
  O  O302  1  0.91539801  0.47664825  0.74724882  1
  O  O303  1  0.91748267  0.97356245  0.08098346  1
  O  O304  1  0.91610155  0.97463312  0.41458729  1
  O  O305  1  0.91330126  0.97684420  0.74766317  1
  O  O306  1  0.08205876  0.25381706  0.08211652  1
  O  O307  1  0.09108867  0.25373219  0.42166611  1
  O  O308  1  0.07630053  0.26632118  0.74128255  1
  O  O309  1  0.08444266  0.77542764  0.07627291  1
  O  O310  1  0.08304836  0.77704175  0.41449801  1
  O  O311  1  0.08268917  0.77675427  0.74102563  1
  O  O312  1  0.42050105  0.25103466  0.08793539  1
  O  O313  1  0.41559561  0.27024019  0.41813629  1
  O  O314  1  0.42514746  0.27057710  0.74997940  1
  O  O315  1  0.41568372  0.77211874  0.08600749  1
  O  O316  1  0.41449433  0.77421960  0.42151232  1
  O  O317  1  0.41317591  0.77102827  0.75225412  1
  O  O318  1  0.76156835  0.25751029  0.09548144  1
  O  O319  1  0.75349459  0.26671352  0.42960386  1
  O  O320  1  0.75185993  0.27564619  0.75412121  1
  O  O321  1  0.75416623  0.77368593  0.09121717  1
  O  O322  1  0.75180792  0.77610472  0.42091493  1
  O  O323  1  0.75026216  0.77177362  0.75178115  1
  O  O324  1  0.25220150  0.02449149  0.24862790  1
  O  O325  1  0.24280132  0.01587264  0.57047533  1
  O  O326  1  0.25957644  0.01539512  0.92531113  1
  O  O327  1  0.25361176  0.51408861  0.25589162  1
  O  O328  1  0.24575878  0.52680332  0.57914344  1
  O  O329  1  0.24956704  0.51974855  0.91297976  1
  O  O330  1  0.57991871  0.01957041  0.25089542  1
  O  O331  1  0.58297651  0.02256392  0.58045890  1
  O  O332  1  0.57824575  0.01230582  0.90739737  1
  O  O333  1  0.58323311  0.52184082  0.24508069  1
  O  O334  1  0.58587265  0.51655007  0.58822339  1
  O  O335  1  0.58399423  0.51881393  0.91810117  1
  O  O336  1  0.90620080  0.00677883  0.24647788  1
  O  O337  1  0.91650698  0.01038878  0.58706623  1
  O  O338  1  0.91645314  -0.00033664  0.91574564  1
  O  O339  1  0.91134645  0.52459837  0.24722030  1
  O  O340  1  0.90909618  0.51098958  0.57648534  1
  O  O341  1  0.92129369  0.51319040  0.92547914  1
  O  O342  1  0.08867394  0.23131824  0.24636707  1
  O  O343  1  0.07883258  0.23736499  0.58403539  1
  O  O344  1  0.08245239  0.24551155  0.91519623  1
  O  O345  1  0.07327750  0.73501376  0.25513012  1
  O  O346  1  0.08939477  0.73704475  0.57387578  1
  O  O347  1  0.09145341  0.74392701  0.90800537  1
  O  O348  1  0.41406543  0.22281581  0.25248906  1
  O  O349  1  0.42194401  0.23516052  0.57797170  1
  O  O350  1  0.41778897  0.23189727  0.91821385  1
  O  O351  1  0.41576247  0.73353430  0.25155202  1
  O  O352  1  0.40683534  0.74063422  0.59081696  1
  O  O353  1  0.40949042  0.74121552  0.92550208  1
  O  O354  1  0.74449392  0.22973498  0.25586090  1
  O  O355  1  0.74089528  0.23198647  0.59305671  1
  O  O356  1  0.74806829  0.24784406  0.91890642  1
  O  O357  1  0.74569179  0.72466654  0.25888072  1
  O  O358  1  0.74671160  0.73009713  0.58472372  1
  O  O359  1  0.74695961  0.73387664  0.92809154  1
