# generated using pymatgen
data_Ba17Sr5La8Pr42Mn72O216
_symmetry_space_group_name_H-M   'P 1'
_cell_length_a   16.67730453
_cell_length_b   15.70354613
_cell_length_c   16.81934519
_cell_angle_alpha   90.00406327
_cell_angle_beta   89.97299243
_cell_angle_gamma   90.01164290
_symmetry_Int_Tables_number   1
_chemical_formula_structural   Ba17Sr5La8Pr42Mn72O216
_chemical_formula_sum   'Ba17 Sr5 La8 Pr42 Mn72 O216'
_cell_volume   4404.86517066
_cell_formula_units_Z   1
loop_
 _symmetry_equiv_pos_site_id
 _symmetry_equiv_pos_as_xyz
  1  'x, y, z'
loop_
 _atom_site_type_symbol
 _atom_site_label
 _atom_site_symmetry_multiplicity
 _atom_site_fract_x
 _atom_site_fract_y
 _atom_site_fract_z
 _atom_site_occupancy
  Ba  Ba0  1  0.33422989  0.62618118  0.99881304  1
  Ba  Ba1  1  0.67106281  0.62498638  0.66389239  1
  Ba  Ba2  1  0.83328148  0.12636559  0.16540830  1
  Ba  Ba3  1  0.66869969  0.12409394  0.66424635  1
  Ba  Ba4  1  0.16343505  0.12518234  0.83667973  1
  Ba  Ba5  1  0.50057999  0.37548151  0.83093195  1
  Ba  Ba6  1  0.33020018  0.12367757  1.00013871  1
  Ba  Ba7  1  0.49653823  0.12366071  0.16609716  1
  Ba  Ba8  1  0.50161241  0.37624965  0.49882417  1
  Ba  Ba9  1  0.50083567  0.12465136  0.49920429  1
  Ba  Ba10  1  0.33093075  0.12428207  0.66595090  1
  Ba  Ba11  1  0.33556379  0.37700970  -0.00097402  1
  Ba  Ba12  1  0.33260736  0.87347128  0.66540523  1
  Ba  Ba13  1  0.33295145  0.62492104  0.66426615  1
  Ba  Ba14  1  -0.00130869  0.87477130  0.00473620  1
  Ba  Ba15  1  0.16280620  0.12620073  0.50306875  1
  Ba  Ba16  1  -0.00135569  0.87359086  0.33708895  1
  Sr  Sr17  1  0.66440770  0.87659518  0.33143378  1
  Sr  Sr18  1  -0.00340663  0.12234899  1.00110801  1
  Sr  Sr19  1  0.33172589  0.87561927  0.00015096  1
  Sr  Sr20  1  0.66644195  0.37279236  0.33119097  1
  Sr  Sr21  1  0.33784224  0.37144659  0.66803436  1
  La  La22  1  0.83595354  0.62534144  0.83527424  1
  La  La23  1  0.33523031  0.62488776  0.33039440  1
  La  La24  1  0.66235961  0.12713733  0.32952145  1
  La  La25  1  0.17109296  0.87583717  0.50045771  1
  La  La26  1  0.33477708  0.87756047  0.33422405  1
  La  La27  1  0.50055081  0.62462738  0.83161012  1
  La  La28  1  0.50061468  0.62465015  0.16428051  1
  La  La29  1  0.00016175  0.62278496  0.66914904  1
  Pr  Pr30  1  0.66219902  0.12583947  0.99388813  1
  Pr  Pr31  1  0.82985118  0.37676509  0.49927825  1
  Pr  Pr32  1  0.66934774  0.62392015  0.99175057  1
  Pr  Pr33  1  0.83072061  0.12417545  0.84028535  1
  Pr  Pr34  1  0.17614526  0.37578426  0.83228116  1
  Pr  Pr35  1  0.16955778  0.87635940  0.83681155  1
  Pr  Pr36  1  0.00217447  0.62318327  0.33372646  1
  Pr  Pr37  1  0.83679568  0.62618467  0.50070772  1
  Pr  Pr38  1  0.17005145  0.37714321  0.16468201  1
  Pr  Pr39  1  -0.00009380  0.37329446  0.33911178  1
  Pr  Pr40  1  0.83606234  0.37342528  0.82926161  1
  Pr  Pr41  1  0.50742538  0.62718910  0.50115127  1
  Pr  Pr42  1  0.83388559  0.87728490  0.83140535  1
  Pr  Pr43  1  0.66231680  0.87568664  0.66645426  1
  Pr  Pr44  1  0.83738504  0.62582557  0.16823773  1
  Pr  Pr45  1  0.00378395  0.62606765  0.99933878  1
  Pr  Pr46  1  0.00203865  0.37217372  0.00475835  1
  Pr  Pr47  1  0.49088527  0.12412296  0.83480160  1
  Pr  Pr48  1  0.50791460  0.37443550  0.16072555  1
  Pr  Pr49  1  0.66963051  0.37331220  0.00005472  1
  Pr  Pr50  1  0.49701079  0.87537465  0.50015472  1
  Pr  Pr51  1  0.16946930  0.62714760  0.16855376  1
  Pr  Pr52  1  0.16374463  0.62737592  0.50481642  1
  Pr  Pr53  1  0.33894621  0.37298144  0.33504341  1
  Pr  Pr54  1  0.66653209  0.87546340  0.00307325  1
  Pr  Pr55  1  0.16268497  0.12476684  0.17035333  1
  Pr  Pr56  1  0.66343714  0.37235883  0.66678093  1
  Pr  Pr57  1  0.49471310  0.87396598  0.83107829  1
  Pr  Pr58  1  0.83353806  0.12338475  0.49912435  1
  Pr  Pr59  1  -0.00297210  0.12588833  0.66889565  1
  Pr  Pr60  1  0.49937049  0.87492696  0.16095499  1
  Pr  Pr61  1  0.83073555  0.87563318  0.16348400  1
  Pr  Pr62  1  0.00106685  0.87631818  0.67209638  1
  Pr  Pr63  1  0.16899955  0.87481010  0.16396030  1
  Pr  Pr64  1  0.17026986  0.62752722  0.83679789  1
  Pr  Pr65  1  0.66764823  0.62097742  0.32948527  1
  Pr  Pr66  1  0.32740587  0.12720216  0.32948828  1
  Pr  Pr67  1  -0.00469343  0.12531073  0.33073673  1
  Pr  Pr68  1  0.82889127  0.87381564  0.49703689  1
  Pr  Pr69  1  0.17513845  0.37576542  0.50178888  1
  Pr  Pr70  1  0.00424531  0.37414332  0.67227054  1
  Pr  Pr71  1  0.83393454  0.37484405  0.16410485  1
  Mn  Mn72  1  -0.00075390  0.00019592  0.17025248  1
  Mn  Mn73  1  -0.00228634  -0.00014882  0.50339823  1
  Mn  Mn74  1  -0.00143764  -0.00129624  0.83604824  1
  Mn  Mn75  1  0.00004704  0.50017897  0.16895871  1
  Mn  Mn76  1  -0.00008831  0.49844626  0.50204653  1
  Mn  Mn77  1  0.00068579  0.50000261  0.83667574  1
  Mn  Mn78  1  0.33077624  -0.00103434  0.16747400  1
  Mn  Mn79  1  0.33332338  -0.00088194  0.49832378  1
  Mn  Mn80  1  0.33203521  -0.00243585  0.83444123  1
  Mn  Mn81  1  0.33404514  0.50166685  0.16823509  1
  Mn  Mn82  1  0.33282476  0.50127431  0.49646158  1
  Mn  Mn83  1  0.33413040  0.50148065  0.83038414  1
  Mn  Mn84  1  0.66647178  -0.00119238  0.16686563  1
  Mn  Mn85  1  0.66805637  -0.00303421  0.49719557  1
  Mn  Mn86  1  0.66691966  -0.00193931  0.83311010  1
  Mn  Mn87  1  0.66903262  0.50159565  0.16287870  1
  Mn  Mn88  1  0.66928121  0.50001838  0.49583415  1
  Mn  Mn89  1  0.67017964  0.49955019  0.83052608  1
  Mn  Mn90  1  0.00093562  0.25186801  0.17027339  1
  Mn  Mn91  1  -0.00216111  0.25249929  0.50292624  1
  Mn  Mn92  1  -0.00116840  0.25189775  0.83724120  1
  Mn  Mn93  1  -0.00050529  0.74834242  0.16982479  1
  Mn  Mn94  1  -0.00098402  0.74906574  0.50386561  1
  Mn  Mn95  1  -0.00075449  0.74994270  0.83524831  1
  Mn  Mn96  1  0.33165457  0.25173407  0.16782965  1
  Mn  Mn97  1  0.33377252  0.25211869  0.50012107  1
  Mn  Mn98  1  0.33297407  0.25024239  0.83285173  1
  Mn  Mn99  1  0.33420469  0.74943947  0.16702728  1
  Mn  Mn100  1  0.33299193  0.74895747  0.49530491  1
  Mn  Mn101  1  0.33333870  0.74973192  0.83347808  1
  Mn  Mn102  1  0.66718080  0.25032027  0.16510720  1
  Mn  Mn103  1  0.66885558  0.25082758  0.49734366  1
  Mn  Mn104  1  0.66743745  0.24942026  0.83159579  1
  Mn  Mn105  1  0.66748586  0.74807199  0.16498228  1
  Mn  Mn106  1  0.66847806  0.75129246  0.49599653  1
  Mn  Mn107  1  0.66941658  0.75184169  0.83273383  1
  Mn  Mn108  1  0.16355462  0.25182092  0.00196615  1
  Mn  Mn109  1  0.16532479  0.25289524  0.33454991  1
  Mn  Mn110  1  0.16482233  0.25181728  0.66798504  1
  Mn  Mn111  1  0.16645688  0.75023768  0.00235305  1
  Mn  Mn112  1  0.16659502  0.74869859  0.33552526  1
  Mn  Mn113  1  0.16302296  0.74967699  0.66850622  1
  Mn  Mn114  1  0.50134611  0.24971134  -0.00181205  1
  Mn  Mn115  1  0.49951154  0.25022372  0.33058871  1
  Mn  Mn116  1  0.50078014  0.24946491  0.66613753  1
  Mn  Mn117  1  0.50319198  0.75049195  -0.00141935  1
  Mn  Mn118  1  0.50149510  0.75022664  0.33125427  1
  Mn  Mn119  1  0.50200028  0.74922160  0.66503572  1
  Mn  Mn120  1  0.83311589  0.25151875  -0.00097283  1
  Mn  Mn121  1  0.83254735  0.25276097  0.33434962  1
  Mn  Mn122  1  0.83556320  0.25011728  0.66590106  1
  Mn  Mn123  1  0.83256010  0.74860085  0.00113853  1
  Mn  Mn124  1  0.83154917  0.74826508  0.33269465  1
  Mn  Mn125  1  0.83548856  0.75066753  0.66575562  1
  Mn  Mn126  1  0.16439929  -0.00107890  0.00292821  1
  Mn  Mn127  1  0.16511384  -0.00017490  0.33434673  1
  Mn  Mn128  1  0.16309831  -0.00171328  0.66793467  1
  Mn  Mn129  1  0.16466524  0.50031794  0.00051154  1
  Mn  Mn130  1  0.16629909  0.49963707  0.33458183  1
  Mn  Mn131  1  0.16600268  0.50020449  0.66742096  1
  Mn  Mn132  1  0.50059279  -0.00201265  -0.00159893  1
  Mn  Mn133  1  0.49976375  -0.00215845  0.33202887  1
  Mn  Mn134  1  0.50100165  -0.00170150  0.66644106  1
  Mn  Mn135  1  0.50418756  0.50064120  -0.00113996  1
  Mn  Mn136  1  0.50119282  0.50244103  0.33061662  1
  Mn  Mn137  1  0.50156666  0.50200045  0.66391116  1
  Mn  Mn138  1  0.83130278  -0.00047651  0.00004038  1
  Mn  Mn139  1  0.83132840  -0.00145835  0.33362244  1
  Mn  Mn140  1  0.83485902  -0.00051990  0.66563879  1
  Mn  Mn141  1  0.83493094  0.49937465  0.00008317  1
  Mn  Mn142  1  0.83345120  0.49996637  0.33253162  1
  Mn  Mn143  1  0.83570488  0.49906145  0.66568007  1
  O  O144  1  0.16252031  0.12787108  0.02343333  1
  O  O145  1  0.17211783  0.12710603  0.34738712  1
  O  O146  1  0.15662951  0.12607431  0.67883595  1
  O  O147  1  0.16000967  0.62383697  0.02360206  1
  O  O148  1  0.16444554  0.62104895  0.36331491  1
  O  O149  1  0.15886349  0.62469582  0.69269894  1
  O  O150  1  0.50672357  0.12310857  0.00949056  1
  O  O151  1  0.50362064  0.12099735  0.34139275  1
  O  O152  1  0.50413153  0.11981498  0.68651264  1
  O  O153  1  0.51166802  0.62661886  0.02088884  1
  O  O154  1  0.50333536  0.62765436  0.35700107  1
  O  O155  1  0.50569109  0.62815446  0.68451907  1
  O  O156  1  0.82779172  0.12511716  0.00874219  1
  O  O157  1  0.83571043  0.12994944  0.35566192  1
  O  O158  1  0.83866859  0.12744222  0.69603380  1
  O  O159  1  0.82725914  0.62132548  0.02565281  1
  O  O160  1  0.82769486  0.62292286  0.35786629  1
  O  O161  1  0.83768356  0.62592759  0.69312752  1
  O  O162  1  0.15696435  0.37817898  0.30615473  1
  O  O163  1  0.15619221  0.37825060  0.64606773  1
  O  O164  1  0.15440672  0.37921094  0.97859185  1
  O  O165  1  0.16851471  0.87408891  0.30773065  1
  O  O166  1  0.15317543  0.87068201  0.64477301  1
  O  O167  1  0.16311512  0.87082737  0.98408851  1
  O  O168  1  0.49415512  0.38093890  0.30664950  1
  O  O169  1  0.50474818  0.37782723  0.65769546  1
  O  O170  1  0.51155599  0.37631738  0.98862422  1
  O  O171  1  0.49667503  0.87166650  0.30415043  1
  O  O172  1  0.50544079  0.87185447  0.64660502  1
  O  O173  1  0.51107213  0.87318334  0.97496190  1
  O  O174  1  0.83916518  0.37850255  0.30637719  1
  O  O175  1  0.84273600  0.37332953  0.64214791  1
  O  O176  1  0.83669196  0.37823198  0.97357726  1
  O  O177  1  0.83221280  0.86834982  0.30607254  1
  O  O178  1  0.84464462  0.87248017  0.63977695  1
  O  O179  1  0.82758251  0.87401607  0.97703326  1
  O  O180  1  -0.00168749  0.37873904  0.19537112  1
  O  O181  1  -0.00761657  0.37720773  0.52955538  1
  O  O182  1  -0.00854806  0.38081631  0.86294560  1
  O  O183  1  -0.00262827  0.87168519  0.18093283  1
  O  O184  1  -0.00712097  0.86936673  0.52707518  1
  O  O185  1  -0.00587740  0.87208110  0.84956954  1
  O  O186  1  0.32810349  0.37890768  0.19077100  1
  O  O187  1  0.32930413  0.37901684  0.51521576  1
  O  O188  1  0.32954371  0.37853196  0.83902182  1
  O  O189  1  0.33202397  0.87180911  0.19011089  1
  O  O190  1  0.33536034  0.87184664  0.50728282  1
  O  O191  1  0.33675822  0.87186727  0.84765349  1
  O  O192  1  0.66501560  0.37914900  0.18271891  1
  O  O193  1  0.67489920  0.37779025  0.52080118  1
  O  O194  1  0.67457107  0.37597345  0.85637415  1
  O  O195  1  0.66999167  0.87024976  0.18424439  1
  O  O196  1  0.67619485  0.87250611  0.52174026  1
  O  O197  1  0.67466435  0.87392045  0.86051761  1
  O  O198  1  0.00663534  0.12898534  0.15176588  1
  O  O199  1  -0.00511053  0.13169816  0.47333629  1
  O  O200  1  -0.00779643  0.12312439  0.81275307  1
  O  O201  1  -0.00303205  0.62197660  0.14231158  1
  O  O202  1  0.00159186  0.62199217  0.47575930  1
  O  O203  1  -0.00070310  0.62478411  0.81128221  1
  O  O204  1  0.32410976  0.12529220  0.15728081  1
  O  O205  1  0.33098168  0.12450729  0.47629870  1
  O  O206  1  0.33746957  0.12071442  0.82704274  1
  O  O207  1  0.32982661  0.62592603  0.15361664  1
  O  O208  1  0.32117519  0.62582778  0.47340487  1
  O  O209  1  0.32576953  0.62707229  0.82355882  1
  O  O210  1  0.66635240  0.12506489  0.14065592  1
  O  O211  1  0.67657952  0.12245736  0.47487943  1
  O  O212  1  0.67829459  0.12331866  0.81951122  1
  O  O213  1  0.66936089  0.62478910  0.13480172  1
  O  O214  1  0.66867305  0.62721491  0.47420281  1
  O  O215  1  0.67270032  0.62681597  0.81920218  1
  O  O216  1  0.07991803  0.02184852  0.25841735  1
  O  O217  1  0.07006441  0.01095734  0.59631120  1
  O  O218  1  0.07555259  0.00946291  0.92297311  1
  O  O219  1  0.08504233  0.52648594  0.25200850  1
  O  O220  1  0.08054546  0.52140833  0.58607704  1
  O  O221  1  0.08107114  0.52604935  0.91828514  1
  O  O222  1  0.40336626  0.01135749  0.25914213  1
  O  O223  1  0.41794952  0.00308180  0.58070386  1
  O  O224  1  0.42252865  0.00589861  0.91442941  1
  O  O225  1  0.41871166  0.52499111  0.24996342  1
  O  O226  1  0.42016049  0.52099578  0.57028807  1
  O  O227  1  0.42411533  0.51595119  0.91404530  1
  O  O228  1  0.74571090  0.01491065  0.25215168  1
  O  O229  1  0.75880859  0.01081618  0.57551438  1
  O  O230  1  0.74632589  0.01638889  0.91856799  1
  O  O231  1  0.75088290  0.52237848  0.24403755  1
  O  O232  1  0.75827579  0.51341974  0.57268703  1
  O  O233  1  0.75421152  0.51896882  0.91491408  1
  O  O234  1  0.24402080  0.23702028  0.24785102  1
  O  O235  1  0.24320324  0.25053787  0.57854796  1
  O  O236  1  0.24125851  0.25019376  0.91597511  1
  O  O237  1  0.24822136  0.72818348  0.25278982  1
  O  O238  1  0.24078288  0.73903604  0.57696559  1
  O  O239  1  0.24408972  0.74067112  0.91475089  1
  O  O240  1  0.58037534  0.24365136  0.24297107  1
  O  O241  1  0.58831145  0.24637523  0.58125716  1
  O  O242  1  0.58210662  0.22797639  0.90916081  1
  O  O243  1  0.58798380  0.72440358  0.25016117  1
  O  O244  1  0.58643885  0.73938344  0.57848364  1
  O  O245  1  0.59072116  0.73086786  0.91995449  1
  O  O246  1  0.92061284  0.23822799  0.25723602  1
  O  O247  1  0.91429526  0.22322281  0.58242462  1
  O  O248  1  0.90541283  0.23628839  0.90719563  1
  O  O249  1  0.91868302  0.72272655  0.25643293  1
  O  O250  1  0.92052223  0.72175511  0.58857765  1
  O  O251  1  0.91927973  0.72581069  0.92203235  1
  O  O252  1  0.07935210  0.47895176  0.08508396  1
  O  O253  1  0.08235566  0.47613367  0.41982055  1
  O  O254  1  0.08221982  0.47814232  0.75607393  1
  O  O255  1  0.09105529  0.98768119  0.09747121  1
  O  O256  1  0.08817409  0.98296417  0.42657072  1
  O  O257  1  0.08331897  0.97716504  0.75677053  1
  O  O258  1  0.42807986  0.48969231  0.09026133  1
  O  O259  1  0.40887658  0.49110955  0.40656349  1
  O  O260  1  0.41895583  0.50092275  0.74924808  1
  O  O261  1  0.41976070  0.97932374  0.08762728  1
  O  O262  1  0.42046425  0.97770556  0.41631092  1
  O  O263  1  0.42346241  0.98707516  0.75601870  1
  O  O264  1  0.75242895  0.47441441  0.08044423  1
  O  O265  1  0.75287580  0.48014856  0.41344816  1
  O  O266  1  0.75452343  0.47514944  0.74752897  1
  O  O267  1  0.74873701  0.97696754  0.08261880  1
  O  O268  1  0.75050163  0.97895029  0.41499720  1
  O  O269  1  0.75165444  0.97430685  0.74765383  1
  O  O270  1  0.24567176  0.26888579  0.08767814  1
  O  O271  1  0.25058585  0.27450170  0.41077514  1
  O  O272  1  0.24717369  0.26601616  0.74748337  1
  O  O273  1  0.24719179  0.76567013  0.08880394  1
  O  O274  1  0.24957736  0.77103889  0.41301963  1
  O  O275  1  0.23895204  0.76399678  0.75522320  1
  O  O276  1  0.59260685  0.26634189  0.07486921  1
  O  O277  1  0.59036609  0.25691064  0.40754011  1
  O  O278  1  0.59350047  0.26368949  0.74426027  1
  O  O279  1  0.58208639  0.77187308  0.08606560  1
  O  O280  1  0.57599860  0.76986966  0.41929038  1
  O  O281  1  0.58611518  0.77310807  0.75556123  1
  O  O282  1  0.91927186  0.27271966  0.08374821  1
  O  O283  1  0.91781843  0.27643163  0.41966006  1
  O  O284  1  0.92284564  0.27278983  0.74694058  1
  O  O285  1  0.90438959  0.75972203  0.09309626  1
  O  O286  1  0.90906680  0.75879608  0.42784820  1
  O  O287  1  0.91249277  0.76820196  0.75507421  1
  O  O288  1  0.24266399  0.48820779  0.08935606  1
  O  O289  1  0.24869797  0.47386809  0.41209729  1
  O  O290  1  0.24657217  0.48549174  0.74702619  1
  O  O291  1  0.24999528  0.97914073  0.08620498  1
  O  O292  1  0.25316338  0.98120519  0.40906778  1
  O  O293  1  0.24418409  0.98327927  0.75249829  1
  O  O294  1  0.58996972  0.48165730  0.07983665  1
  O  O295  1  0.58895805  0.49309264  0.40699956  1
  O  O296  1  0.59439725  0.48673507  0.74539282  1
  O  O297  1  0.58449503  0.97729698  0.08142161  1
  O  O298  1  0.58192654  0.97871680  0.41935833  1
  O  O299  1  0.58575664  0.97381336  0.75278115  1
  O  O300  1  0.91395445  0.47780760  0.08583985  1
  O  O301  1  0.91888380  0.48077294  0.41829692  1
  O  O302  1  0.91916481  0.48064606  0.75415728  1
  O  O303  1  0.91041704  0.98709855  0.08789845  1
  O  O304  1  0.90969737  0.98671579  0.42626761  1
  O  O305  1  0.91781624  0.97832507  0.74795231  1
  O  O306  1  0.08586097  0.27592098  0.09261211  1
  O  O307  1  0.08402668  0.27640607  0.42343402  1
  O  O308  1  0.08484680  0.27472709  0.76081963  1
  O  O309  1  0.08780023  0.75876099  0.09217444  1
  O  O310  1  0.08828028  0.76245082  0.42744957  1
  O  O311  1  0.07846780  0.76942977  0.75163197  1
  O  O312  1  0.42404978  0.26746977  0.09316850  1
  O  O313  1  0.41327862  0.26335169  0.41219055  1
  O  O314  1  0.42105109  0.25033282  0.75121542  1
  O  O315  1  0.42190997  0.76751704  0.08291140  1
  O  O316  1  0.41397953  0.76588324  0.40678329  1
  O  O317  1  0.42169258  0.75880196  0.75273192  1
  O  O318  1  0.75479173  0.27501535  0.08528254  1
  O  O319  1  0.75557474  0.27138920  0.41855937  1
  O  O320  1  0.75564574  0.27347876  0.75037476  1
  O  O321  1  0.74542563  0.77080014  0.07874157  1
  O  O322  1  0.74663068  0.76814855  0.41041458  1
  O  O323  1  0.75037851  0.77604523  0.74499982  1
  O  O324  1  0.24166837  0.01582774  0.24590343  1
  O  O325  1  0.24258943  -0.00090856  0.57829884  1
  O  O326  1  0.24532006  -0.00214677  0.91581210  1
  O  O327  1  0.24753842  0.52189187  0.25387291  1
  O  O328  1  0.24108257  0.51329383  0.57298623  1
  O  O329  1  0.24205865  0.51041268  0.91027438  1
  O  O330  1  0.58479169  0.00931149  0.25099455  1
  O  O331  1  0.58848221  -0.00037699  0.58359308  1
  O  O332  1  0.58484243  0.01920621  0.91273137  1
  O  O333  1  0.58388318  0.52436395  0.24270688  1
  O  O334  1  0.58372099  0.51582379  0.57402493  1
  O  O335  1  0.58815607  0.52062637  0.91502446  1
  O  O336  1  0.91873676  0.01551182  0.25750309  1
  O  O337  1  0.91580721  0.02786427  0.58585455  1
  O  O338  1  0.90653611  0.01232407  0.90926081  1
  O  O339  1  0.91771360  0.52517191  0.25262610  1
  O  O340  1  0.91821665  0.52441564  0.58331703  1
  O  O341  1  0.91863538  0.52715523  0.92136655  1
  O  O342  1  0.08030089  0.23064658  0.25748556  1
  O  O343  1  0.06966597  0.24054140  0.59644224  1
  O  O344  1  0.06886720  0.24133120  0.93064004  1
  O  O345  1  0.08444328  0.72399875  0.25599489  1
  O  O346  1  0.07979009  0.72492315  0.58762320  1
  O  O347  1  0.08341124  0.72810970  0.91672046  1
  O  O348  1  0.40424492  0.23889543  0.25819699  1
  O  O349  1  0.41451964  0.24402514  0.58406547  1
  O  O350  1  0.41943636  0.23898955  0.91731693  1
  O  O351  1  0.42134826  0.72841963  0.24665006  1
  O  O352  1  0.42274232  0.73532810  0.56858014  1
  O  O353  1  0.42871512  0.73666321  0.91087228  1
  O  O354  1  0.74272240  0.23740308  0.25429199  1
  O  O355  1  0.75714544  0.23867603  0.57799573  1
  O  O356  1  0.74238273  0.23646047  0.92169840  1
  O  O357  1  0.75281226  0.72349940  0.24243060  1
  O  O358  1  0.76231516  0.73638030  0.57302505  1
  O  O359  1  0.75603937  0.72904964  0.91295234  1
