# generated using pymatgen
data_Ba17Sr5La8Pr42Mn72O216
_symmetry_space_group_name_H-M   'P 1'
_cell_length_a   16.67978821
_cell_length_b   15.70307316
_cell_length_c   16.82545083
_cell_angle_alpha   89.99400086
_cell_angle_beta   90.00360845
_cell_angle_gamma   90.00497522
_symmetry_Int_Tables_number   1
_chemical_formula_structural   Ba17Sr5La8Pr42Mn72O216
_chemical_formula_sum   'Ba17 Sr5 La8 Pr42 Mn72 O216'
_cell_volume   4406.98823232
_cell_formula_units_Z   1
loop_
 _symmetry_equiv_pos_site_id
 _symmetry_equiv_pos_as_xyz
  1  'x, y, z'
loop_
 _atom_site_type_symbol
 _atom_site_label
 _atom_site_symmetry_multiplicity
 _atom_site_fract_x
 _atom_site_fract_y
 _atom_site_fract_z
 _atom_site_occupancy
  Ba  Ba0  1  0.16940998  0.37516891  0.49635858  1
  Ba  Ba1  1  0.49570066  0.62496193  0.16614351  1
  Ba  Ba2  1  0.66731721  0.37525404  0.33830248  1
  Ba  Ba3  1  0.33586637  0.62463200  0.66611321  1
  Ba  Ba4  1  0.33049703  0.62520606  0.99613893  1
  Ba  Ba5  1  0.50015061  0.87406569  0.16740767  1
  Ba  Ba6  1  0.16885754  0.87516450  0.49704430  1
  Ba  Ba7  1  0.83328009  0.62456850  0.83654536  1
  Ba  Ba8  1  0.83358762  0.62394957  0.16911085  1
  Ba  Ba9  1  0.83586750  0.87629784  0.83384854  1
  Ba  Ba10  1  -0.00056437  0.12386322  0.32932226  1
  Ba  Ba11  1  0.66579530  0.87546868  0.33627476  1
  Ba  Ba12  1  0.66331275  0.12680930  1.00323055  1
  Ba  Ba13  1  0.66344358  0.12707523  0.33512169  1
  Ba  Ba14  1  -0.00145299  0.62521394  0.33298330  1
  Ba  Ba15  1  -0.00264372  0.62459887  0.66597441  1
  Ba  Ba16  1  0.66697843  0.87801277  0.00199187  1
  Sr  Sr17  1  0.50526505  0.87229292  0.83617280  1
  Sr  Sr18  1  0.49656345  0.62638698  0.83923972  1
  Sr  Sr19  1  0.32740067  0.12515741  0.33058683  1
  Sr  Sr20  1  0.16864528  0.37048531  0.16530954  1
  Sr  Sr21  1  0.16421815  0.12680990  0.16795473  1
  La  La22  1  0.33602245  0.87685258  0.33226416  1
  La  La23  1  0.82858718  0.12397543  0.17072347  1
  La  La24  1  0.84375983  0.37184745  0.83313264  1
  La  La25  1  0.34277393  0.87594955  0.66862990  1
  La  La26  1  0.82455613  0.62509315  0.50551686  1
  La  La27  1  0.65782936  0.62916875  0.99907276  1
  La  La28  1  0.16200917  0.12326909  0.83157636  1
  La  La29  1  0.50071752  0.37617357  0.50061258  1
  Pr  Pr30  1  0.67698731  0.37474078  0.67071422  1
  Pr  Pr31  1  0.17490776  0.87358761  0.82709013  1
  Pr  Pr32  1  0.33778825  0.87389110  0.00116022  1
  Pr  Pr33  1  0.34085398  0.37494171  0.00214023  1
  Pr  Pr34  1  0.15820723  0.62548576  0.50195194  1
  Pr  Pr35  1  0.00767607  0.37682179  0.00016099  1
  Pr  Pr36  1  0.82827383  0.12376006  0.83628765  1
  Pr  Pr37  1  0.84209784  0.37162081  0.16953360  1
  Pr  Pr38  1  0.67461615  0.37875080  0.00831306  1
  Pr  Pr39  1  0.34505902  0.37364205  0.66930172  1
  Pr  Pr40  1  0.66095922  0.62417908  0.33269712  1
  Pr  Pr41  1  0.83472375  0.87741926  0.16403423  1
  Pr  Pr42  1  0.65731600  0.12385037  0.66898522  1
  Pr  Pr43  1  0.16229898  0.62491451  0.83512480  1
  Pr  Pr44  1  0.49463363  0.12147693  0.17298643  1
  Pr  Pr45  1  0.83989619  0.87559050  0.50137306  1
  Pr  Pr46  1  0.01212730  0.87312231  0.67120814  1
  Pr  Pr47  1  -0.00987618  0.12260580  0.65675612  1
  Pr  Pr48  1  0.49472394  0.12469586  0.84009667  1
  Pr  Pr49  1  -0.00245152  0.62414694  0.99458554  1
  Pr  Pr50  1  0.33673388  0.37276471  0.33181327  1
  Pr  Pr51  1  0.15725444  0.12532345  0.49704227  1
  Pr  Pr52  1  0.51166639  0.37894687  0.83436819  1
  Pr  Pr53  1  0.32650149  0.62424976  0.32883514  1
  Pr  Pr54  1  0.49907202  0.62505567  0.50133575  1
  Pr  Pr55  1  0.32728531  0.12581818  0.66088311  1
  Pr  Pr56  1  -0.00291889  0.12672735  0.99847195  1
  Pr  Pr57  1  0.66238420  0.62747452  0.67292478  1
  Pr  Pr58  1  0.16259663  0.62275811  0.16509402  1
  Pr  Pr59  1  0.01433703  0.37548316  0.66879334  1
  Pr  Pr60  1  0.50475224  0.37359418  0.16595959  1
  Pr  Pr61  1  0.32749781  0.12356761  1.00093823  1
  Pr  Pr62  1  0.84298238  0.37381300  0.49758497  1
  Pr  Pr63  1  0.16530269  0.87893900  0.16358068  1
  Pr  Pr64  1  0.00547366  0.37594041  0.33117933  1
  Pr  Pr65  1  0.00030141  0.87328670  -0.00103779  1
  Pr  Pr66  1  0.00082819  0.87253773  0.33021010  1
  Pr  Pr67  1  0.49994660  0.87357037  0.49819671  1
  Pr  Pr68  1  0.67053207  0.87466121  0.67605386  1
  Pr  Pr69  1  0.17701724  0.37451709  0.82754669  1
  Pr  Pr70  1  0.81931373  0.12471711  0.50127642  1
  Pr  Pr71  1  0.49633859  0.12595284  0.49928380  1
  Mn  Mn72  1  0.00074529  0.00018083  0.16324785  1
  Mn  Mn73  1  -0.00230206  -0.00076427  0.49798004  1
  Mn  Mn74  1  0.00226022  0.00239698  0.83028613  1
  Mn  Mn75  1  0.00178669  0.49805525  0.16475101  1
  Mn  Mn76  1  -0.00110582  0.49927302  0.49986703  1
  Mn  Mn77  1  0.00296775  0.49669164  0.83347581  1
  Mn  Mn78  1  0.32936853  0.00029060  0.16568075  1
  Mn  Mn79  1  0.33301747  0.00261496  0.49923195  1
  Mn  Mn80  1  0.33532747  0.00188445  0.83186161  1
  Mn  Mn81  1  0.33102035  0.49831508  0.16605417  1
  Mn  Mn82  1  0.33441098  0.49990371  0.49691049  1
  Mn  Mn83  1  0.33430125  0.49820978  0.83269306  1
  Mn  Mn84  1  0.66614992  0.00149685  0.16954453  1
  Mn  Mn85  1  0.66337031  -0.00001123  0.50643164  1
  Mn  Mn86  1  0.66594562  0.00166511  0.83408963  1
  Mn  Mn87  1  0.66724676  0.49954835  0.16963633  1
  Mn  Mn88  1  0.66591242  0.50031679  0.50505696  1
  Mn  Mn89  1  0.66901391  0.49785048  0.83760623  1
  Mn  Mn90  1  0.00171198  0.24959237  0.16370837  1
  Mn  Mn91  1  -0.00141553  0.24902276  0.49845044  1
  Mn  Mn92  1  0.00316420  0.24734025  0.82951577  1
  Mn  Mn93  1  0.00046084  0.75125723  0.16467406  1
  Mn  Mn94  1  -0.00184190  0.75204918  0.50016351  1
  Mn  Mn95  1  0.00231725  0.75164798  0.83375037  1
  Mn  Mn96  1  0.33205862  0.25067168  0.16578258  1
  Mn  Mn97  1  0.33277717  0.24949015  0.49870057  1
  Mn  Mn98  1  0.33535562  0.24855841  0.83253098  1
  Mn  Mn99  1  0.32880391  0.74932740  0.16569455  1
  Mn  Mn100  1  0.33385779  0.74929126  0.49743061  1
  Mn  Mn101  1  0.33461482  0.75139485  0.83217197  1
  Mn  Mn102  1  0.66599030  0.25186639  0.16826712  1
  Mn  Mn103  1  0.66426627  0.24987826  0.50611207  1
  Mn  Mn104  1  0.66813999  0.25102471  0.83619293  1
  Mn  Mn105  1  0.66774054  0.74861450  0.16862151  1
  Mn  Mn106  1  0.66537816  0.75033685  0.50467864  1
  Mn  Mn107  1  0.66619227  0.75007215  0.83507077  1
  Mn  Mn108  1  0.16693895  0.24742924  -0.00410946  1
  Mn  Mn109  1  0.16770790  0.24992315  0.32995738  1
  Mn  Mn110  1  0.16925597  0.24866754  0.66448471  1
  Mn  Mn111  1  0.16482262  0.75279742  -0.00281522  1
  Mn  Mn112  1  0.16716071  0.74990701  0.33008235  1
  Mn  Mn113  1  0.17040712  0.74952075  0.66500372  1
  Mn  Mn114  1  0.49802562  0.25013439  0.00130276  1
  Mn  Mn115  1  0.49639976  0.24968509  0.33371755  1
  Mn  Mn116  1  0.50119814  0.25049518  0.67094562  1
  Mn  Mn117  1  0.49841408  0.75127976  -0.00064212  1
  Mn  Mn118  1  0.49690778  0.74954925  0.33604971  1
  Mn  Mn119  1  0.50179171  0.74950764  0.66709465  1
  Mn  Mn120  1  0.83539544  0.25051180  -0.00046334  1
  Mn  Mn121  1  0.83440803  0.25025877  0.33431643  1
  Mn  Mn122  1  0.83481320  0.25065908  0.66711060  1
  Mn  Mn123  1  0.83388424  0.75027452  0.00297668  1
  Mn  Mn124  1  0.83213891  0.75154141  0.33621877  1
  Mn  Mn125  1  0.83212671  0.74983910  0.66667255  1
  Mn  Mn126  1  0.16507521  0.00141688  -0.00354236  1
  Mn  Mn127  1  0.16723824  -0.00016136  0.32990388  1
  Mn  Mn128  1  0.16851228  0.00157221  0.66489213  1
  Mn  Mn129  1  0.16688106  0.49705191  -0.00193405  1
  Mn  Mn130  1  0.16709202  0.49913403  0.33055378  1
  Mn  Mn131  1  0.17139170  0.49985639  0.66456943  1
  Mn  Mn132  1  0.49659538  0.00275344  0.00213555  1
  Mn  Mn133  1  0.49737298  0.00074718  0.33586502  1
  Mn  Mn134  1  0.49992037  0.00141494  0.66882486  1
  Mn  Mn135  1  0.49968574  0.49780876  -0.00146013  1
  Mn  Mn136  1  0.49670285  0.49939776  0.33504102  1
  Mn  Mn137  1  0.50349764  0.50014439  0.66807365  1
  Mn  Mn138  1  0.83526275  0.00192591  0.00089240  1
  Mn  Mn139  1  0.83293556  -0.00159367  0.33419706  1
  Mn  Mn140  1  0.83254286  0.00157034  0.66711552  1
  Mn  Mn141  1  0.83469024  0.49779624  0.00207184  1
  Mn  Mn142  1  0.83355643  0.49941018  0.33692346  1
  Mn  Mn143  1  0.83349964  0.49798098  0.66691098  1
  O  O144  1  0.17322351  0.12442333  0.02006036  1
  O  O145  1  0.16858135  0.12513170  0.35312786  1
  O  O146  1  0.17200694  0.12556723  0.68806840  1
  O  O147  1  0.16207784  0.62631806  0.02157942  1
  O  O148  1  0.17346556  0.62494605  0.35754130  1
  O  O149  1  0.16846340  0.62384133  0.68986015  1
  O  O150  1  0.48970168  0.12933085  0.02662478  1
  O  O151  1  0.49287514  0.12618801  0.35443609  1
  O  O152  1  0.50032921  0.12859199  0.69811860  1
  O  O153  1  0.50355907  0.62056981  0.00540451  1
  O  O154  1  0.49378937  0.62410897  0.35709492  1
  O  O155  1  0.50596119  0.62063911  0.69061327  1
  O  O156  1  0.84712779  0.12893426  0.02449759  1
  O  O157  1  0.83478524  0.12501254  0.35738064  1
  O  O158  1  0.84420525  0.12914921  0.69318523  1
  O  O159  1  0.84738864  0.62091803  0.01155373  1
  O  O160  1  0.83095097  0.62628025  0.36169820  1
  O  O161  1  0.82984249  0.62194794  0.67941710  1
  O  O162  1  0.16392255  0.37594532  0.31562134  1
  O  O163  1  0.16755356  0.37227330  0.65353833  1
  O  O164  1  0.15875707  0.36839061  0.96919899  1
  O  O165  1  0.16821616  0.87334458  0.30882454  1
  O  O166  1  0.16645016  0.87802587  0.65459514  1
  O  O167  1  0.15901467  0.88010171  0.96813341  1
  O  O168  1  0.49296959  0.37376520  0.31086321  1
  O  O169  1  0.50026943  0.37373236  0.64414636  1
  O  O170  1  0.49339835  0.37148886  0.97665914  1
  O  O171  1  0.49473354  0.87603502  0.32595847  1
  O  O172  1  0.50264916  0.87863062  0.64213155  1
  O  O173  1  0.49115786  0.88069162  0.98757351  1
  O  O174  1  0.83647998  0.37393196  0.31537427  1
  O  O175  1  0.82618820  0.37235578  0.64054590  1
  O  O176  1  0.82656863  0.37241860  0.97590038  1
  O  O177  1  0.83485239  0.87496606  0.31051061  1
  O  O178  1  0.82042412  0.87716686  0.64585723  1
  O  O179  1  0.83727057  0.87834921  0.99072629  1
  O  O180  1  -0.00186413  0.37282323  0.18659242  1
  O  O181  1  -0.00662277  0.37161077  0.52615040  1
  O  O182  1  0.00472279  0.36905331  0.85568640  1
  O  O183  1  0.00221575  0.87618810  0.18584253  1
  O  O184  1  -0.00761246  0.87785735  0.52796627  1
  O  O185  1  0.01009566  0.87929504  0.85382736  1
  O  O186  1  0.33332773  0.37481532  0.18800598  1
  O  O187  1  0.33452062  0.37318507  0.52656678  1
  O  O188  1  0.32459011  0.36955576  0.85742196  1
  O  O189  1  0.32222532  0.87319664  0.18757038  1
  O  O190  1  0.33692987  0.88044301  0.52567061  1
  O  O191  1  0.32449515  0.88160142  0.85609404  1
  O  O192  1  0.65881632  0.37600050  0.18095129  1
  O  O193  1  0.65664820  0.37336247  0.52843788  1
  O  O194  1  0.66566659  0.37218730  0.86275946  1
  O  O195  1  0.67508939  0.87545963  0.17666629  1
  O  O196  1  0.65389336  0.87646720  0.53116600  1
  O  O197  1  0.66604764  0.87846914  0.84017079  1
  O  O198  1  -0.00270548  0.12511099  0.14151286  1
  O  O199  1  0.00281573  0.12387307  0.48713768  1
  O  O200  1  0.00141462  0.12633531  0.80009422  1
  O  O201  1  0.00709600  0.62518053  0.13908205  1
  O  O202  1  0.00251381  0.62580052  0.49069973  1
  O  O203  1  0.00501300  0.62369361  0.82339700  1
  O  O204  1  0.33768936  0.12798518  0.14344022  1
  O  O205  1  0.34620325  0.12645545  0.48102822  1
  O  O206  1  0.34386656  0.12603230  0.80411490  1
  O  O207  1  0.32487691  0.62270743  0.15181662  1
  O  O208  1  0.34715232  0.62104513  0.47243259  1
  O  O209  1  0.33028809  0.62285916  0.82266097  1
  O  O210  1  0.66884519  0.12988356  0.15961428  1
  O  O211  1  0.67059826  0.12655281  0.49137953  1
  O  O212  1  0.66594031  0.12952863  0.81312843  1
  O  O213  1  0.66766120  0.61946989  0.14620030  1
  O  O214  1  0.67327530  0.62400624  0.47743156  1
  O  O215  1  0.66378462  0.62023784  0.81746360  1
  O  O216  1  0.08410037  0.00704537  0.24298136  1
  O  O217  1  0.07689975  0.01832274  0.58762927  1
  O  O218  1  0.07956004  0.02867307  0.91960907  1
  O  O219  1  0.08505855  0.51473569  0.24427328  1
  O  O220  1  0.08145978  0.50838658  0.58324699  1
  O  O221  1  0.07864142  0.51810762  0.92324152  1
  O  O222  1  0.41296683  0.01377628  0.24993334  1
  O  O223  1  0.41224940  0.02218220  0.59189742  1
  O  O224  1  0.41007241  0.02405414  0.91938507  1
  O  O225  1  0.40531463  0.51156301  0.26061957  1
  O  O226  1  0.41959397  0.50970110  0.57895091  1
  O  O227  1  0.41170589  0.50082279  0.91774351  1
  O  O228  1  0.75194436  0.01368504  0.25359389  1
  O  O229  1  0.74121561  0.02265141  0.59557049  1
  O  O230  1  0.75354216  0.01860346  0.91828040  1
  O  O231  1  0.74339736  0.51635755  0.26606286  1
  O  O232  1  0.73785609  0.51537142  0.59835452  1
  O  O233  1  0.73956093  0.51357010  0.93311913  1
  O  O234  1  0.24688886  0.23822835  0.24178107  1
  O  O235  1  0.24372739  0.22344137  0.57247219  1
  O  O236  1  0.24354884  0.22603652  0.90315490  1
  O  O237  1  0.24316615  0.72606445  0.24345235  1
  O  O238  1  0.24535855  0.72923162  0.56955995  1
  O  O239  1  0.23769875  0.73952251  0.90503416  1
  O  O240  1  0.57106012  0.23865259  0.24058056  1
  O  O241  1  0.57526989  0.22538456  0.58437171  1
  O  O242  1  0.56763164  0.23582527  0.90900163  1
  O  O243  1  0.58199477  0.73403352  0.25864444  1
  O  O244  1  0.58209023  0.72261474  0.58355779  1
  O  O245  1  0.58157782  0.73925645  0.91385794  1
  O  O246  1  0.91075873  0.23756043  0.23724800  1
  O  O247  1  0.90582223  0.22869777  0.57436111  1
  O  O248  1  0.91576817  0.23022090  0.90646939  1
  O  O249  1  0.91826632  0.74698488  0.24785543  1
  O  O250  1  0.90226897  0.74074572  0.57443060  1
  O  O251  1  0.92207701  0.74351194  0.92164881  1
  O  O252  1  0.08603535  0.47810693  0.08176740  1
  O  O253  1  0.08284276  0.48749477  0.41205669  1
  O  O254  1  0.09178582  0.48036925  0.75783227  1
  O  O255  1  0.08371660  0.97932702  0.08009349  1
  O  O256  1  0.08323201  0.98541459  0.41094767  1
  O  O257  1  0.09323770  0.98398878  0.75617370  1
  O  O258  1  0.42047497  0.47791830  0.08770416  1
  O  O259  1  0.41883305  0.47120723  0.41949923  1
  O  O260  1  0.42414547  0.47555736  0.75355349  1
  O  O261  1  0.40630946  0.98825021  0.07906673  1
  O  O262  1  0.41871010  0.98062501  0.42382536  1
  O  O263  1  0.42343544  0.97859568  0.75399506  1
  O  O264  1  0.75906963  0.47570936  0.09142530  1
  O  O265  1  0.75866484  0.48274584  0.43641246  1
  O  O266  1  0.75843172  0.47422745  0.76107111  1
  O  O267  1  0.76141825  0.99600327  0.09208845  1
  O  O268  1  0.75568124  0.98610871  0.43541906  1
  O  O269  1  0.75582815  0.99755938  0.75287554  1
  O  O270  1  0.25862535  0.26590136  0.06862942  1
  O  O271  1  0.25781853  0.26300704  0.40606458  1
  O  O272  1  0.26518138  0.26531963  0.73961664  1
  O  O273  1  0.24631937  0.77579936  0.07615161  1
  O  O274  1  0.25908169  0.76368164  0.40302757  1
  O  O275  1  0.25828699  0.77195789  0.74350208  1
  O  O276  1  0.58540906  0.27242135  0.07651104  1
  O  O277  1  0.57770262  0.25984259  0.42374454  1
  O  O278  1  0.59273644  0.27318230  0.74423260  1
  O  O279  1  0.58584763  0.75227632  0.08069173  1
  O  O280  1  0.57882488  0.75791475  0.42617563  1
  O  O281  1  0.58983083  0.76455798  0.74204421  1
  O  O282  1  0.92136592  0.27592636  0.07519501  1
  O  O283  1  0.92337169  0.27336839  0.41109669  1
  O  O284  1  0.92825736  0.27461122  0.73908478  1
  O  O285  1  0.92066258  0.77147892  0.08256708  1
  O  O286  1  0.91917858  0.77551291  0.41384531  1
  O  O287  1  0.92695263  0.76941538  0.74094146  1
  O  O288  1  0.25357788  0.47684028  0.07135638  1
  O  O289  1  0.26203238  0.48600274  0.40259339  1
  O  O290  1  0.26107470  0.47630861  0.74223789  1
  O  O291  1  0.24792851  0.97722846  0.07524060  1
  O  O292  1  0.25703808  0.98785481  0.40832166  1
  O  O293  1  0.26042445  0.98608943  0.74226064  1
  O  O294  1  0.58602838  0.48040633  0.07687927  1
  O  O295  1  0.57966939  0.49142142  0.42396348  1
  O  O296  1  0.59469852  0.47549619  0.74693642  1
  O  O297  1  0.57856603  0.99999410  0.08644793  1
  O  O298  1  0.57832593  0.99167412  0.42695420  1
  O  O299  1  0.59209358  0.98873916  0.73899847  1
  O  O300  1  0.92197240  0.47500742  0.07845672  1
  O  O301  1  0.92205876  0.47648172  0.41294647  1
  O  O302  1  0.92525848  0.47404542  0.74304004  1
  O  O303  1  0.92482664  0.98023852  0.07593105  1
  O  O304  1  0.91994225  0.97423212  0.41087252  1
  O  O305  1  0.93012235  0.98347602  0.73320840  1
  O  O306  1  0.08234322  0.26382996  0.07658494  1
  O  O307  1  0.08350160  0.26028463  0.41667953  1
  O  O308  1  0.09328823  0.26846243  0.75606419  1
  O  O309  1  0.08398833  0.77594519  0.07986675  1
  O  O310  1  0.08193755  0.76482961  0.40882144  1
  O  O311  1  0.09189812  0.76702976  0.75653559  1
  O  O312  1  0.42187124  0.27519276  0.08866483  1
  O  O313  1  0.41845340  0.27358274  0.42255907  1
  O  O314  1  0.42749843  0.27625144  0.76132644  1
  O  O315  1  0.40949912  0.76282159  0.08151116  1
  O  O316  1  0.41775847  0.77274018  0.42133148  1
  O  O317  1  0.42015634  0.76948938  0.74765122  1
  O  O318  1  0.75387984  0.26929090  0.08815162  1
  O  O319  1  0.75761949  0.26270023  0.43431659  1
  O  O320  1  0.76223682  0.27092168  0.75580437  1
  O  O321  1  0.75927009  0.76050493  0.09189910  1
  O  O322  1  0.75623439  0.76955014  0.43403178  1
  O  O323  1  0.74978763  0.75910303  0.75002200  1
  O  O324  1  0.24604942  0.01420243  0.24273964  1
  O  O325  1  0.24497210  0.02654243  0.57473761  1
  O  O326  1  0.24668411  0.02397305  0.90870941  1
  O  O327  1  0.24292554  0.51864501  0.24296516  1
  O  O328  1  0.24495754  0.52177785  0.56718555  1
  O  O329  1  0.23689833  0.50922857  0.90200540  1
  O  O330  1  0.57510479  0.01416762  0.25044019  1
  O  O331  1  0.57484619  0.02859730  0.58338376  1
  O  O332  1  0.57330682  0.01629217  0.90989968  1
  O  O333  1  0.57959495  0.51476473  0.25592466  1
  O  O334  1  0.58134307  0.52489077  0.58282063  1
  O  O335  1  0.57883365  0.50781293  0.91113953  1
  O  O336  1  0.91128145  0.01129405  0.23590658  1
  O  O337  1  0.90304498  0.02030102  0.57508259  1
  O  O338  1  0.91649470  0.02429908  0.90987904  1
  O  O339  1  0.91600871  0.50196556  0.24619965  1
  O  O340  1  0.90275197  0.50947751  0.57272912  1
  O  O341  1  0.91754927  0.50056247  0.91582072  1
  O  O342  1  0.08180436  0.24209267  0.24701440  1
  O  O343  1  0.07480786  0.23153724  0.58816291  1
  O  O344  1  0.07891815  0.22141465  0.91570345  1
  O  O345  1  0.08738349  0.73602368  0.24078308  1
  O  O346  1  0.08252809  0.74102953  0.58323005  1
  O  O347  1  0.08049938  0.72831637  0.92031177  1
  O  O348  1  0.41223392  0.23351659  0.25190968  1
  O  O349  1  0.41048761  0.23378172  0.59525810  1
  O  O350  1  0.40496593  0.22852736  0.92556851  1
  O  O351  1  0.40571296  0.73984942  0.25991696  1
  O  O352  1  0.42260595  0.73927404  0.58024220  1
  O  O353  1  0.41239443  0.74851906  0.91541906  1
  O  O354  1  0.75243069  0.24204921  0.25136183  1
  O  O355  1  0.74157823  0.23004413  0.59853723  1
  O  O356  1  0.75484747  0.23160330  0.91650747  1
  O  O357  1  0.74290402  0.73121038  0.26430370  1
  O  O358  1  0.74049815  0.73030283  0.59200621  1
  O  O359  1  0.74471739  0.73491842  0.92782115  1
