# generated using pymatgen
data_Ba17Sr5La8Pr42Mn72O216
_symmetry_space_group_name_H-M   'P 1'
_cell_length_a   16.67882727
_cell_length_b   15.70721678
_cell_length_c   16.81774859
_cell_angle_alpha   89.99311369
_cell_angle_beta   89.99438759
_cell_angle_gamma   89.96577092
_symmetry_Int_Tables_number   1
_chemical_formula_structural   Ba17Sr5La8Pr42Mn72O216
_chemical_formula_sum   'Ba17 Sr5 La8 Pr42 Mn72 O216'
_cell_volume   4405.87855331
_cell_formula_units_Z   1
loop_
 _symmetry_equiv_pos_site_id
 _symmetry_equiv_pos_as_xyz
  1  'x, y, z'
loop_
 _atom_site_type_symbol
 _atom_site_label
 _atom_site_symmetry_multiplicity
 _atom_site_fract_x
 _atom_site_fract_y
 _atom_site_fract_z
 _atom_site_occupancy
  Ba  Ba0  1  -0.00167815  0.87378442  0.33681995  1
  Ba  Ba1  1  0.16649792  0.37744473  0.16305347  1
  Ba  Ba2  1  0.00059090  0.87611342  0.66741712  1
  Ba  Ba3  1  0.33165864  0.37684235  0.33419738  1
  Ba  Ba4  1  0.33515899  0.87438668  0.00145672  1
  Ba  Ba5  1  0.83558760  0.12699442  0.16852484  1
  Ba  Ba6  1  0.49994991  0.62595488  0.50417638  1
  Ba  Ba7  1  -0.00093893  0.87372159  0.00177670  1
  Ba  Ba8  1  0.16629803  0.37529886  0.82867372  1
  Ba  Ba9  1  0.33240940  0.37563025  0.66644847  1
  Ba  Ba10  1  0.16615079  0.87307471  0.16547563  1
  Ba  Ba11  1  0.16831937  0.12441457  0.49698994  1
  Ba  Ba12  1  0.83195383  0.62278733  0.16904921  1
  Ba  Ba13  1  0.50052471  0.12396895  0.16759177  1
  Ba  Ba14  1  0.66886843  0.12543122  0.99820927  1
  Ba  Ba15  1  0.83304512  0.62415185  0.83563074  1
  Ba  Ba16  1  0.33461600  0.12304629  1.00186011  1
  Sr  Sr17  1  0.83283928  0.87552851  0.50002809  1
  Sr  Sr18  1  0.50055834  0.12674804  0.49973914  1
  Sr  Sr19  1  0.16728601  0.87541332  0.49563914  1
  Sr  Sr20  1  0.49587619  0.62390369  0.83442283  1
  Sr  Sr21  1  0.16348472  0.37447522  0.49503456  1
  La  La22  1  0.50500528  0.87480989  0.49920353  1
  La  La23  1  0.66886016  0.12488101  0.66208084  1
  La  La24  1  0.83720081  0.62714706  0.50382095  1
  La  La25  1  0.83023357  0.87687244  0.82904339  1
  La  La26  1  0.32953599  0.12788118  0.32979840  1
  La  La27  1  0.17028241  0.12002173  0.16818079  1
  La  La28  1  0.00751021  0.12619458  1.00251367  1
  La  La29  1  0.82566311  0.37323376  0.83007893  1
  Pr  Pr30  1  0.66871258  0.62514070  0.66197677  1
  Pr  Pr31  1  0.32509251  0.62378949  0.33386830  1
  Pr  Pr32  1  0.65621444  0.37683862  0.66563962  1
  Pr  Pr33  1  0.49479246  0.62629044  0.17079596  1
  Pr  Pr34  1  0.33708037  0.87446915  0.66898590  1
  Pr  Pr35  1  0.33442816  0.12739112  0.66500117  1
  Pr  Pr36  1  -0.00998784  0.37791073  0.00340658  1
  Pr  Pr37  1  0.16268283  0.62974669  0.16557668  1
  Pr  Pr38  1  0.66079626  0.37398130  0.33173117  1
  Pr  Pr39  1  0.50025712  0.37401071  0.16447550  1
  Pr  Pr40  1  0.66692757  0.87246207  0.66557904  1
  Pr  Pr41  1  0.49555031  0.37642762  0.49590994  1
  Pr  Pr42  1  0.83966256  0.12349953  0.49926071  1
  Pr  Pr43  1  0.00816388  0.12491876  0.66506392  1
  Pr  Pr44  1  0.00613963  0.62349442  0.66414739  1
  Pr  Pr45  1  0.67212565  0.87544028  0.33181732  1
  Pr  Pr46  1  0.66304024  0.62413203  0.99324588  1
  Pr  Pr47  1  0.32523405  0.62425939  0.66487755  1
  Pr  Pr48  1  0.01028421  0.12346575  0.33109082  1
  Pr  Pr49  1  0.17023853  0.12388384  0.83129097  1
  Pr  Pr50  1  -0.00395832  0.37239971  0.66827651  1
  Pr  Pr51  1  0.17118964  0.87725280  0.82959375  1
  Pr  Pr52  1  0.84505234  0.12517156  0.83906307  1
  Pr  Pr53  1  0.49635531  0.37247486  0.83439599  1
  Pr  Pr54  1  0.50575975  0.87483578  0.16438092  1
  Pr  Pr55  1  0.00675557  0.62376898  0.99905339  1
  Pr  Pr56  1  0.50584897  0.87898115  0.83347261  1
  Pr  Pr57  1  0.33533194  0.37668775  0.00449510  1
  Pr  Pr58  1  0.82384295  0.37414634  0.50071211  1
  Pr  Pr59  1  0.66435257  0.37665909  -0.00051978  1
  Pr  Pr60  1  0.83390098  0.87638490  0.16431364  1
  Pr  Pr61  1  0.66965048  0.87282107  -0.00070367  1
  Pr  Pr62  1  0.49930897  0.12674564  0.84042679  1
  Pr  Pr63  1  0.32373036  0.62667413  0.99833139  1
  Pr  Pr64  1  0.82750449  0.37325008  0.16765213  1
  Pr  Pr65  1  0.00521718  0.62735275  0.33555545  1
  Pr  Pr66  1  0.33714722  0.87713593  0.33780943  1
  Pr  Pr67  1  0.66378526  0.62501019  0.33024861  1
  Pr  Pr68  1  0.66750912  0.12219505  0.32419463  1
  Pr  Pr69  1  0.16430597  0.62608541  0.82948231  1
  Pr  Pr70  1  0.16671114  0.62518472  0.49879194  1
  Pr  Pr71  1  -0.00782785  0.37498827  0.33905439  1
  Mn  Mn72  1  -0.00094391  0.00057318  0.16725734  1
  Mn  Mn73  1  -0.00071402  0.00018577  0.50035605  1
  Mn  Mn74  1  0.00239512  -0.00001149  0.83471474  1
  Mn  Mn75  1  -0.00171081  0.49973147  0.16995911  1
  Mn  Mn76  1  -0.00233634  0.49895149  0.50194124  1
  Mn  Mn77  1  -0.00156300  0.49926701  0.83305177  1
  Mn  Mn78  1  0.33510346  -0.00188019  0.17017561  1
  Mn  Mn79  1  0.33687247  0.00041647  0.50181060  1
  Mn  Mn80  1  0.33579572  -0.00219299  0.83100013  1
  Mn  Mn81  1  0.33487137  0.50246444  0.16607218  1
  Mn  Mn82  1  0.33206132  0.50100299  0.50029148  1
  Mn  Mn83  1  0.33341689  0.50298227  0.83494656  1
  Mn  Mn84  1  0.66803049  -0.00235740  0.16587664  1
  Mn  Mn85  1  0.66765835  0.00223491  0.49737557  1
  Mn  Mn86  1  0.66766131  0.00117624  0.82907816  1
  Mn  Mn87  1  0.66408136  0.50024771  0.16467089  1
  Mn  Mn88  1  0.66772722  0.49919080  0.49844293  1
  Mn  Mn89  1  0.66242051  0.49941462  0.83129035  1
  Mn  Mn90  1  0.00050605  0.25307659  0.16877254  1
  Mn  Mn91  1  -0.00239784  0.25013093  0.50134277  1
  Mn  Mn92  1  0.00048335  0.25090422  0.83417540  1
  Mn  Mn93  1  -0.00318365  0.74785312  0.16776299  1
  Mn  Mn94  1  -0.00025882  0.74985722  0.50161429  1
  Mn  Mn95  1  0.00048250  0.75005465  0.83376852  1
  Mn  Mn96  1  0.33371745  0.25150813  0.16699515  1
  Mn  Mn97  1  0.33449045  0.24869200  0.49954098  1
  Mn  Mn98  1  0.33325954  0.24949745  0.83367120  1
  Mn  Mn99  1  0.33546596  0.74832718  0.16843430  1
  Mn  Mn100  1  0.33383485  0.75109963  0.50173124  1
  Mn  Mn101  1  0.33541754  0.74929312  0.83241308  1
  Mn  Mn102  1  0.66628274  0.25178224  0.16678538  1
  Mn  Mn103  1  0.66641887  0.24849306  0.49755621  1
  Mn  Mn104  1  0.66583873  0.25068144  0.82868702  1
  Mn  Mn105  1  0.66562406  0.74844848  0.16433054  1
  Mn  Mn106  1  0.66905972  0.75146922  0.49826413  1
  Mn  Mn107  1  0.66439470  0.74898550  0.83236714  1
  Mn  Mn108  1  0.16784941  0.25164486  -0.00276360  1
  Mn  Mn109  1  0.16485629  0.25260912  0.33155328  1
  Mn  Mn110  1  0.16620897  0.25006890  0.66368411  1
  Mn  Mn111  1  0.16587831  0.74883758  -0.00265646  1
  Mn  Mn112  1  0.16826567  0.75006626  0.33414727  1
  Mn  Mn113  1  0.16827493  0.75178932  0.66431823  1
  Mn  Mn114  1  0.50057593  0.25110256  -0.00113380  1
  Mn  Mn115  1  0.50056375  0.24913090  0.33564119  1
  Mn  Mn116  1  0.50057990  0.24837903  0.66695493  1
  Mn  Mn117  1  0.50105731  0.74806983  0.00076376  1
  Mn  Mn118  1  0.49981991  0.74992243  0.33349059  1
  Mn  Mn119  1  0.50108137  0.75026460  0.66983696  1
  Mn  Mn120  1  0.83411357  0.25079900  -0.00126753  1
  Mn  Mn121  1  0.83209796  0.25136935  0.33589091  1
  Mn  Mn122  1  0.83184193  0.24835808  0.66698781  1
  Mn  Mn123  1  0.83218948  0.74808433  0.00072687  1
  Mn  Mn124  1  0.83137142  0.74763577  0.33573262  1
  Mn  Mn125  1  0.83344489  0.74961412  0.66761580  1
  Mn  Mn126  1  0.16718657  0.00135228  -0.00089736  1
  Mn  Mn127  1  0.16838405  -0.00227678  0.33384498  1
  Mn  Mn128  1  0.16972097  -0.00087653  0.66461242  1
  Mn  Mn129  1  0.16664947  0.49871267  -0.00379884  1
  Mn  Mn130  1  0.16281512  0.49986865  0.33270139  1
  Mn  Mn131  1  0.16452715  0.49907815  0.66315966  1
  Mn  Mn132  1  0.50259416  -0.00181132  -0.00103161  1
  Mn  Mn133  1  0.50129268  -0.00150339  0.33573544  1
  Mn  Mn134  1  0.50164468  0.00107796  0.66637196  1
  Mn  Mn135  1  0.49903698  0.50269631  0.00129370  1
  Mn  Mn136  1  0.49957991  0.50270824  0.33338388  1
  Mn  Mn137  1  0.49902498  0.50179942  0.66962674  1
  Mn  Mn138  1  0.83470501  0.00049196  -0.00152949  1
  Mn  Mn139  1  0.83353810  0.00020737  0.33512717  1
  Mn  Mn140  1  0.83240044  0.00205848  0.66703252  1
  Mn  Mn141  1  0.83119407  0.50004993  0.00144086  1
  Mn  Mn142  1  0.83084125  0.50009120  0.33711452  1
  Mn  Mn143  1  0.83345180  0.49864344  0.66681686  1
  O  O144  1  0.16146770  0.13074634  0.02179819  1
  O  O145  1  0.16806354  0.12540800  0.33825095  1
  O  O146  1  0.16362229  0.12363706  0.68494116  1
  O  O147  1  0.16432520  0.62114131  0.02017769  1
  O  O148  1  0.16699780  0.62493669  0.35392057  1
  O  O149  1  0.16296286  0.62661555  0.68473599  1
  O  O150  1  0.50217518  0.12505703  0.00618666  1
  O  O151  1  0.51101498  0.12133893  0.35106953  1
  O  O152  1  0.50282999  0.12342953  0.69566739  1
  O  O153  1  0.51011238  0.62506618  0.02761473  1
  O  O154  1  0.51261079  0.62650235  0.34903618  1
  O  O155  1  0.51155382  0.62928211  0.68608673  1
  O  O156  1  0.83648409  0.12866355  0.01016795  1
  O  O157  1  0.81825044  0.12993464  0.35523083  1
  O  O158  1  0.82250831  0.12812844  0.69623986  1
  O  O159  1  0.81877957  0.62269764  0.01351439  1
  O  O160  1  0.81879019  0.62215278  0.35949584  1
  O  O161  1  0.82586989  0.62377775  0.67955788  1
  O  O162  1  0.15398635  0.37719859  0.32114296  1
  O  O163  1  0.16033763  0.37539340  0.64768595  1
  O  O164  1  0.17979638  0.37722335  0.98355028  1
  O  O165  1  0.17376156  0.87178478  0.32382520  1
  O  O166  1  0.17764987  0.87475523  0.64696753  1
  O  O167  1  0.16607800  0.87149487  0.97489497  1
  O  O168  1  0.50480473  0.38015734  0.30962432  1
  O  O169  1  0.50490077  0.37207930  0.63872945  1
  O  O170  1  0.49758136  0.37855650  0.97834291  1
  O  O171  1  0.49287781  0.87165275  0.30802195  1
  O  O172  1  0.50014441  0.87633688  0.64121027  1
  O  O173  1  0.50748514  0.87111916  0.97792739  1
  O  O174  1  0.84221810  0.37726663  0.31199972  1
  O  O175  1  0.84294971  0.37206537  0.64264069  1
  O  O176  1  0.83699569  0.37485872  0.97520002  1
  O  O177  1  0.82937656  0.86986938  0.30940203  1
  O  O178  1  0.82773746  0.87419944  0.64959183  1
  O  O179  1  0.82825972  0.87401527  0.97467078  1
  O  O180  1  -0.00264775  0.37784151  0.19593215  1
  O  O181  1  -0.00301693  0.37476461  0.52432056  1
  O  O182  1  -0.00231488  0.37297317  0.85891335  1
  O  O183  1  -0.00938629  0.87309721  0.17911252  1
  O  O184  1  -0.00039119  0.87318336  0.51001921  1
  O  O185  1  0.00510158  0.87560578  0.84523803  1
  O  O186  1  0.34068064  0.37908701  0.17653908  1
  O  O187  1  0.34011279  0.37690477  0.50992081  1
  O  O188  1  0.33618306  0.37969602  0.85844971  1
  O  O189  1  0.33969256  0.87077506  0.19213290  1
  O  O190  1  0.33536342  0.87529570  0.52494498  1
  O  O191  1  0.32291314  0.87231262  0.84467095  1
  O  O192  1  0.66012757  0.37760270  0.18768321  1
  O  O193  1  0.66879892  0.37294109  0.52461888  1
  O  O194  1  0.66590397  0.37498091  0.85424009  1
  O  O195  1  0.66523292  0.87153482  0.18775426  1
  O  O196  1  0.66569907  0.88063028  0.52357408  1
  O  O197  1  0.66751688  0.87598966  0.85445522  1
  O  O198  1  0.00225540  0.12859458  0.14760212  1
  O  O199  1  -0.00911459  0.12845519  0.47741945  1
  O  O200  1  -0.00413934  0.12628059  0.80911321  1
  O  O201  1  0.00176179  0.62125649  0.14412610  1
  O  O202  1  -0.00361316  0.62162702  0.48148894  1
  O  O203  1  0.00483346  0.62583961  0.80748853  1
  O  O204  1  0.32920266  0.12469816  0.16181129  1
  O  O205  1  0.34005842  0.12198294  0.47510939  1
  O  O206  1  0.34411607  0.11924065  0.81047472  1
  O  O207  1  0.34313654  0.62524194  0.14209671  1
  O  O208  1  0.32949682  0.62624689  0.47929912  1
  O  O209  1  0.33791589  0.62750798  0.80849872  1
  O  O210  1  0.66781422  0.12540409  0.15966578  1
  O  O211  1  0.66691790  0.12630413  0.46873561  1
  O  O212  1  0.65732713  0.12696145  0.80648318  1
  O  O213  1  0.66063512  0.62374418  0.13802357  1
  O  O214  1  0.67349970  0.62146009  0.47469878  1
  O  O215  1  0.66284597  0.62173787  0.80618193  1
  O  O216  1  0.08459127  0.01639496  0.24668152  1
  O  O217  1  0.08085510  0.01322810  0.58878579  1
  O  O218  1  0.08513596  0.02433855  0.91460822  1
  O  O219  1  0.08576122  0.52626449  0.24554483  1
  O  O220  1  0.08741903  0.52200548  0.57467685  1
  O  O221  1  0.08555243  0.52085497  0.90821217  1
  O  O222  1  0.41053316  0.01360499  0.26486659  1
  O  O223  1  0.41762598  0.02069352  0.58890927  1
  O  O224  1  0.42263479  0.00592679  0.90903090  1
  O  O225  1  0.41405238  0.52500332  0.25520389  1
  O  O226  1  0.41252362  0.51791739  0.59470035  1
  O  O227  1  0.40889471  0.51974495  0.93177611  1
  O  O228  1  0.74965789  0.00639968  0.25017941  1
  O  O229  1  0.75160701  0.02576405  0.57524049  1
  O  O230  1  0.75890289  0.01497205  0.90147471  1
  O  O231  1  0.74087050  0.50990634  0.25369935  1
  O  O232  1  0.75746272  0.51376680  0.57499938  1
  O  O233  1  0.73962929  0.50826882  0.91796692  1
  O  O234  1  0.24956990  0.23839292  0.24888961  1
  O  O235  1  0.25767553  0.23430476  0.58567425  1
  O  O236  1  0.24831513  0.23036153  0.91137638  1
  O  O237  1  0.24771615  0.72439395  0.24546078  1
  O  O238  1  0.24458217  0.72705799  0.57683979  1
  O  O239  1  0.24506757  0.72752117  0.90799069  1
  O  O240  1  0.59026272  0.24002082  0.25981799  1
  O  O241  1  0.59221813  0.23091718  0.58871103  1
  O  O242  1  0.58210175  0.24184857  0.91136038  1
  O  O243  1  0.57601478  0.73374525  0.23962314  1
  O  O244  1  0.59042144  0.73999184  0.58692418  1
  O  O245  1  0.58076683  0.73042576  0.91456628  1
  O  O246  1  0.92561037  0.23526274  0.26944078  1
  O  O247  1  0.92033272  0.22465595  0.59459653  1
  O  O248  1  0.92697239  0.23239320  0.92359077  1
  O  O249  1  0.91845489  0.72842922  0.26066724  1
  O  O250  1  0.91900061  0.72859935  0.58916668  1
  O  O251  1  0.92017920  0.73146219  0.92747952  1
  O  O252  1  0.07496357  0.48531050  0.07039155  1
  O  O253  1  0.06739342  0.48840096  0.40993328  1
  O  O254  1  0.07151438  0.48731983  0.73432204  1
  O  O255  1  0.08001573  0.99723160  0.08284326  1
  O  O256  1  0.08441986  0.99569281  0.41404787  1
  O  O257  1  0.09279750  0.98976580  0.75686922  1
  O  O258  1  0.42665793  0.48361269  0.09151739  1
  O  O259  1  0.42092207  0.49073011  0.42145359  1
  O  O260  1  0.42138713  0.48521233  0.76302955  1
  O  O261  1  0.42332958  0.98401875  0.09400657  1
  O  O262  1  0.42206879  0.97542331  0.42333281  1
  O  O263  1  0.41954948  0.97422758  0.74989022  1
  O  O264  1  0.74767133  0.47363438  0.08380378  1
  O  O265  1  0.74480324  0.47140569  0.41346431  1
  O  O266  1  0.74429576  0.47754571  0.74179228  1
  O  O267  1  0.74790584  0.97745032  0.07959626  1
  O  O268  1  0.74449426  0.98097813  0.41090230  1
  O  O269  1  0.74352108  0.97969030  0.74195772  1
  O  O270  1  0.25432687  0.26362062  0.07674668  1
  O  O271  1  0.24413073  0.25884363  0.41488645  1
  O  O272  1  0.24908832  0.24883488  0.75028578  1
  O  O273  1  0.25306884  0.75097628  0.07794571  1
  O  O274  1  0.26043671  0.76183046  0.40812581  1
  O  O275  1  0.25939521  0.76123457  0.73745747  1
  O  O276  1  0.58146059  0.27225648  0.08218392  1
  O  O277  1  0.58042216  0.27599383  0.42168192  1
  O  O278  1  0.58057363  0.27488877  0.75063196  1
  O  O279  1  0.58997021  0.77210431  0.07698954  1
  O  O280  1  0.58727052  0.77153687  0.40919022  1
  O  O281  1  0.58486396  0.77649323  0.74868302  1
  O  O282  1  0.91303899  0.27601126  0.09371598  1
  O  O283  1  0.90435232  0.26936541  0.43021811  1
  O  O284  1  0.90762563  0.26783778  0.76119926  1
  O  O285  1  0.90783485  0.76123679  0.09113106  1
  O  O286  1  0.91202540  0.75135463  0.42398830  1
  O  O287  1  0.91127379  0.76422920  0.75678019  1
  O  O288  1  0.26126072  0.49290707  0.07325075  1
  O  O289  1  0.24176927  0.49439283  0.41834978  1
  O  O290  1  0.24680640  0.49961353  0.74740741  1
  O  O291  1  0.24909346  0.99380062  0.08456538  1
  O  O292  1  0.25881591  0.98451115  0.41441759  1
  O  O293  1  0.25482407  0.98479652  0.74609962  1
  O  O294  1  0.58535129  0.47569318  0.07920181  1
  O  O295  1  0.58332331  0.47805569  0.41656646  1
  O  O296  1  0.58025602  0.47455574  0.75161462  1
  O  O297  1  0.58709356  0.97808882  0.08283537  1
  O  O298  1  0.58436163  0.97392592  0.41600385  1
  O  O299  1  0.58437223  0.97507175  0.74655497  1
  O  O300  1  0.91122658  0.47719161  0.09423921  1
  O  O301  1  0.90552333  0.48218299  0.43255557  1
  O  O302  1  0.91080877  0.47707023  0.75797583  1
  O  O303  1  0.90942980  0.98716957  0.09244063  1
  O  O304  1  0.90680217  0.99419135  0.42486127  1
  O  O305  1  0.90965916  0.98951663  0.76225409  1
  O  O306  1  0.07507854  0.26916052  0.06763809  1
  O  O307  1  0.07005870  0.26117513  0.40729427  1
  O  O308  1  0.06974597  0.26176929  0.74112994  1
  O  O309  1  0.08375357  0.75059711  0.08293408  1
  O  O310  1  0.08867831  0.75113404  0.42190167  1
  O  O311  1  0.09733486  0.76447577  0.75553374  1
  O  O312  1  0.41927240  0.26986572  0.08327781  1
  O  O313  1  0.42254011  0.26277905  0.42179410  1
  O  O314  1  0.42095351  0.26514462  0.75522271  1
  O  O315  1  0.43056396  0.76310827  0.09818606  1
  O  O316  1  0.42187317  0.77129658  0.42461520  1
  O  O317  1  0.42432895  0.77419126  0.75840700  1
  O  O318  1  0.74624828  0.27448914  0.07817059  1
  O  O319  1  0.74322382  0.27696884  0.41117103  1
  O  O320  1  0.74148934  0.27428132  0.73696811  1
  O  O321  1  0.75046854  0.77419912  0.08550115  1
  O  O322  1  0.74863509  0.77209779  0.41549993  1
  O  O323  1  0.74673813  0.76883355  0.74799702  1
  O  O324  1  0.25086736  0.01188851  0.25121870  1
  O  O325  1  0.25871352  0.01808154  0.58768482  1
  O  O326  1  0.24585613  0.01434372  0.90559851  1
  O  O327  1  0.24998461  0.52278297  0.24411235  1
  O  O328  1  0.24845149  0.52146801  0.58293500  1
  O  O329  1  0.24783578  0.52772823  0.91186659  1
  O  O330  1  0.58803195  0.00535173  0.25470075  1
  O  O331  1  0.58814973  0.02019983  0.58432095  1
  O  O332  1  0.58359496  0.01181175  0.90706342  1
  O  O333  1  0.58030953  0.52113140  0.24478935  1
  O  O334  1  0.59540055  0.51355092  0.58881912  1
  O  O335  1  0.57935008  0.51692543  0.91767732  1
  O  O336  1  0.92314885  0.01807807  0.26111929  1
  O  O337  1  0.91708320  0.02489362  0.59193937  1
  O  O338  1  0.92386875  0.01969984  0.92107880  1
  O  O339  1  0.92351851  0.51839837  0.26901547  1
  O  O340  1  0.92551585  0.51843106  0.59440046  1
  O  O341  1  0.92409980  0.51488017  0.93141829  1
  O  O342  1  0.08712777  0.22940308  0.24280371  1
  O  O343  1  0.08022324  0.23581625  0.58221470  1
  O  O344  1  0.08877023  0.22711659  0.90714060  1
  O  O345  1  0.08290457  0.72941010  0.25108658  1
  O  O346  1  0.08166417  0.72963907  0.58595465  1
  O  O347  1  0.08307870  0.72501964  0.91649383  1
  O  O348  1  0.41650406  0.23801325  0.25675397  1
  O  O349  1  0.41985858  0.22865116  0.58928454  1
  O  O350  1  0.42123954  0.24078897  0.91346530  1
  O  O351  1  0.41037898  0.72475458  0.26226473  1
  O  O352  1  0.40760981  0.73650548  0.59866013  1
  O  O353  1  0.41187370  0.73012324  0.92852162  1
  O  O354  1  0.75295729  0.24904543  0.24995639  1
  O  O355  1  0.75692995  0.23022779  0.57198527  1
  O  O356  1  0.75810138  0.23815041  0.89848243  1
  O  O357  1  0.73793083  0.73322541  0.25615002  1
  O  O358  1  0.75199644  0.73134964  0.58294515  1
  O  O359  1  0.74040539  0.73774813  0.92214533  1
