# generated using pymatgen
data_Ba17Sr5La8Pr42Mn72O216
_symmetry_space_group_name_H-M   'P 1'
_cell_length_a   16.67582191
_cell_length_b   15.70300874
_cell_length_c   16.82611305
_cell_angle_alpha   90.00344794
_cell_angle_beta   89.99331265
_cell_angle_gamma   89.99423203
_symmetry_Int_Tables_number   1
_chemical_formula_structural   Ba17Sr5La8Pr42Mn72O216
_chemical_formula_sum   'Ba17 Sr5 La8 Pr42 Mn72 O216'
_cell_volume   4406.09561697
_cell_formula_units_Z   1
loop_
 _symmetry_equiv_pos_site_id
 _symmetry_equiv_pos_as_xyz
  1  'x, y, z'
loop_
 _atom_site_type_symbol
 _atom_site_label
 _atom_site_symmetry_multiplicity
 _atom_site_fract_x
 _atom_site_fract_y
 _atom_site_fract_z
 _atom_site_occupancy
  Ba  Ba0  1  0.16750512  0.62589976  0.83216241  1
  Ba  Ba1  1  0.83581799  0.62643915  0.16508623  1
  Ba  Ba2  1  0.16717852  0.37401947  0.16591989  1
  Ba  Ba3  1  0.33329141  0.12498531  0.66521176  1
  Ba  Ba4  1  0.00274311  0.62508459  0.66678286  1
  Ba  Ba5  1  -0.00267282  0.87591175  0.66864743  1
  Ba  Ba6  1  -0.00222547  0.37426321  0.66802970  1
  Ba  Ba7  1  0.33747757  0.62664020  0.33155193  1
  Ba  Ba8  1  0.33398060  0.87511955  0.33196428  1
  Ba  Ba9  1  0.16913403  0.62292926  0.16697811  1
  Ba  Ba10  1  0.49803789  0.12579727  0.83603092  1
  Ba  Ba11  1  0.83120595  0.87596250  0.16593292  1
  Ba  Ba12  1  0.83307379  0.12399510  0.16753965  1
  Ba  Ba13  1  0.83184419  0.37306229  0.83025195  1
  Ba  Ba14  1  0.50342602  0.62393398  0.83557070  1
  Ba  Ba15  1  0.49731621  0.37500080  0.83278517  1
  Ba  Ba16  1  0.00206282  0.87723742  0.00248249  1
  Sr  Sr17  1  0.66281210  0.87549391  0.00536892  1
  Sr  Sr18  1  0.66394186  0.37480076  0.33188705  1
  Sr  Sr19  1  0.50381279  0.62596763  0.16831823  1
  Sr  Sr20  1  0.66638321  0.87463932  0.33352673  1
  Sr  Sr21  1  0.50120900  0.12459190  0.16602123  1
  La  La22  1  0.83362917  0.87154475  0.49542286  1
  La  La23  1  0.49659686  0.87463177  0.83472214  1
  La  La24  1  0.66216297  0.87508568  0.66897933  1
  La  La25  1  -0.00346710  0.37538746  0.33294942  1
  La  La26  1  0.17150290  0.87234656  0.16607775  1
  La  La27  1  0.33152651  0.37670538  0.33098193  1
  La  La28  1  0.33653275  0.62322404  1.00036652  1
  La  La29  1  0.50916864  0.62793914  0.50144555  1
  Pr  Pr30  1  0.32914680  0.87450085  0.66649879  1
  Pr  Pr31  1  0.33363162  0.37732686  -0.00188297  1
  Pr  Pr32  1  0.00355478  0.62523962  0.33067342  1
  Pr  Pr33  1  0.84199147  0.62491071  0.83649058  1
  Pr  Pr34  1  0.16016385  0.12353052  0.83378374  1
  Pr  Pr35  1  0.49489580  0.87785371  0.49492867  1
  Pr  Pr36  1  -0.00362358  0.37751568  0.00175460  1
  Pr  Pr37  1  0.49505276  0.37665032  0.16533592  1
  Pr  Pr38  1  0.50330999  0.12157336  0.50345765  1
  Pr  Pr39  1  0.67812520  0.62653221  0.99845562  1
  Pr  Pr40  1  0.16708422  0.87469758  0.83224329  1
  Pr  Pr41  1  0.82789846  0.87414325  0.83230739  1
  Pr  Pr42  1  0.66509278  0.12968699  0.66726631  1
  Pr  Pr43  1  -0.00298315  0.87531963  0.33333216  1
  Pr  Pr44  1  0.16570849  0.12445886  0.16853608  1
  Pr  Pr45  1  0.16063203  0.37201862  0.49650320  1
  Pr  Pr46  1  0.66657853  0.12630879  0.32898704  1
  Pr  Pr47  1  0.49921092  0.87347899  0.16635133  1
  Pr  Pr48  1  0.83827141  0.62555043  0.49940842  1
  Pr  Pr49  1  -0.00311037  0.12641601  0.33131718  1
  Pr  Pr50  1  0.32741439  0.37558450  0.66877087  1
  Pr  Pr51  1  0.65736358  0.37441174  0.00300175  1
  Pr  Pr52  1  0.67421393  0.62112118  0.66774996  1
  Pr  Pr53  1  0.00604446  0.62647008  0.99683465  1
  Pr  Pr54  1  0.34141222  0.62367430  0.66237912  1
  Pr  Pr55  1  0.16473005  0.37516373  0.83132369  1
  Pr  Pr56  1  0.33483161  0.12465489  0.32856392  1
  Pr  Pr57  1  0.82661730  0.37355396  0.15990700  1
  Pr  Pr58  1  0.17677885  0.62523463  0.50534839  1
  Pr  Pr59  1  0.82970456  0.37724205  0.49736880  1
  Pr  Pr60  1  0.82908003  0.12288168  0.50021312  1
  Pr  Pr61  1  0.49290457  0.37242106  0.49740994  1
  Pr  Pr62  1  0.66256094  0.37454286  0.67064143  1
  Pr  Pr63  1  0.67270915  0.12209185  0.99898010  1
  Pr  Pr64  1  -0.00470754  0.12601990  1.00138677  1
  Pr  Pr65  1  0.67170522  0.62417089  0.32875890  1
  Pr  Pr66  1  0.83496823  0.12415427  0.83498193  1
  Pr  Pr67  1  0.33504698  0.87404053  0.00090453  1
  Pr  Pr68  1  0.16324160  0.12338003  0.50305429  1
  Pr  Pr69  1  0.32879395  0.12737762  0.99226901  1
  Pr  Pr70  1  0.16126264  0.87678738  0.49668933  1
  Pr  Pr71  1  -0.00653144  0.12611020  0.66520617  1
  Mn  Mn72  1  0.00335031  0.00204050  0.16892900  1
  Mn  Mn73  1  -0.00253103  0.00154061  0.50011416  1
  Mn  Mn74  1  -0.00137289  -0.00005632  0.83441922  1
  Mn  Mn75  1  -0.00117209  0.49885799  0.16715306  1
  Mn  Mn76  1  0.00060687  0.49855483  0.49803792  1
  Mn  Mn77  1  0.00084949  0.49913497  0.83430554  1
  Mn  Mn78  1  0.33492411  0.00226583  0.16330285  1
  Mn  Mn79  1  0.33225454  0.00126576  0.49783770  1
  Mn  Mn80  1  0.33075462  -0.00094998  0.83337922  1
  Mn  Mn81  1  0.33554434  0.49928060  0.16712898  1
  Mn  Mn82  1  0.33515923  0.49785164  0.50024590  1
  Mn  Mn83  1  0.33227352  0.50036045  0.83183283  1
  Mn  Mn84  1  0.66343946  0.00061346  0.16723547  1
  Mn  Mn85  1  0.66736417  -0.00039563  0.50131009  1
  Mn  Mn86  1  0.66537292  -0.00121731  0.83498191  1
  Mn  Mn87  1  0.66538233  0.49987048  0.16761936  1
  Mn  Mn88  1  0.66729281  0.49884227  0.49880308  1
  Mn  Mn89  1  0.66825325  0.50050307  0.83364928  1
  Mn  Mn90  1  -0.00028130  0.25065126  0.16691869  1
  Mn  Mn91  1  -0.00307440  0.24850807  0.49967541  1
  Mn  Mn92  1  0.00021627  0.24739306  0.83394653  1
  Mn  Mn93  1  0.00248692  0.74992414  0.16729747  1
  Mn  Mn94  1  0.00167685  0.75012932  0.49796186  1
  Mn  Mn95  1  -0.00027721  0.75228082  0.83499768  1
  Mn  Mn96  1  0.33455389  0.24730352  0.16407386  1
  Mn  Mn97  1  0.33284454  0.24957997  0.49686822  1
  Mn  Mn98  1  0.32933018  0.25019042  0.83187319  1
  Mn  Mn99  1  0.33644729  0.75096636  0.16538689  1
  Mn  Mn100  1  0.33537658  0.75074017  0.50084152  1
  Mn  Mn101  1  0.33393052  0.75120924  0.83283061  1
  Mn  Mn102  1  0.66407071  0.25019827  0.16780873  1
  Mn  Mn103  1  0.66609494  0.25124438  0.49849061  1
  Mn  Mn104  1  0.66551530  0.24879185  0.83408940  1
  Mn  Mn105  1  0.66487060  0.75008485  0.16711758  1
  Mn  Mn106  1  0.66867446  0.74963389  0.50146143  1
  Mn  Mn107  1  0.66725512  0.75174384  0.83525300  1
  Mn  Mn108  1  0.16515208  0.24930168  -0.00163200  1
  Mn  Mn109  1  0.16768966  0.24839475  0.33430237  1
  Mn  Mn110  1  0.16475385  0.24823223  0.66567870  1
  Mn  Mn111  1  0.16912504  0.75094609  0.00017143  1
  Mn  Mn112  1  0.16566705  0.75122876  0.33457093  1
  Mn  Mn113  1  0.16918310  0.75129865  0.66561982  1
  Mn  Mn114  1  0.49830108  0.24890265  0.00329897  1
  Mn  Mn115  1  0.49987041  0.24944158  0.33314645  1
  Mn  Mn116  1  0.49959057  0.24927803  0.66430915  1
  Mn  Mn117  1  0.50203498  0.74991247  0.00124751  1
  Mn  Mn118  1  0.50406772  0.75055699  0.33416305  1
  Mn  Mn119  1  0.50139606  0.75077833  0.66628032  1
  Mn  Mn120  1  0.83133593  0.25047260  -0.00159480  1
  Mn  Mn121  1  0.83203441  0.25215498  0.33311057  1
  Mn  Mn122  1  0.82974953  0.24774137  0.66434466  1
  Mn  Mn123  1  0.83472393  0.75133238  -0.00072829  1
  Mn  Mn124  1  0.83349889  0.74997697  0.33362866  1
  Mn  Mn125  1  0.83070271  0.75054250  0.66636337  1
  Mn  Mn126  1  0.16800066  0.00205895  0.00111694  1
  Mn  Mn127  1  0.16633408  0.00269065  0.33366793  1
  Mn  Mn128  1  0.16508738  0.00038367  0.66667469  1
  Mn  Mn129  1  0.16669693  0.49895738  -0.00146460  1
  Mn  Mn130  1  0.16551720  0.49814833  0.33626587  1
  Mn  Mn131  1  0.16916643  0.49917034  0.66501275  1
  Mn  Mn132  1  0.49918528  0.00119950  0.00252320  1
  Mn  Mn133  1  0.50184936  0.00187629  0.33324295  1
  Mn  Mn134  1  0.50015923  -0.00119610  0.66615146  1
  Mn  Mn135  1  0.50071205  0.50081983  0.00260063  1
  Mn  Mn136  1  0.50215180  0.49809351  0.33395914  1
  Mn  Mn137  1  0.50194121  0.50055754  0.66357097  1
  Mn  Mn138  1  0.83261322  0.00031303  -0.00073116  1
  Mn  Mn139  1  0.83221730  -0.00040486  0.33562169  1
  Mn  Mn140  1  0.82856968  -0.00016646  0.66674411  1
  Mn  Mn141  1  0.83289111  0.49837994  -0.00122747  1
  Mn  Mn142  1  0.83307252  0.49798459  0.33168018  1
  Mn  Mn143  1  0.83245161  0.50080746  0.66468024  1
  O  O144  1  0.17307735  0.12631150  0.02537865  1
  O  O145  1  0.17732579  0.12621939  0.36047748  1
  O  O146  1  0.16127074  0.12350265  0.68909654  1
  O  O147  1  0.15927905  0.62435727  0.00958198  1
  O  O148  1  0.15883248  0.62115029  0.36099755  1
  O  O149  1  0.17750471  0.62503681  0.67273450  1
  O  O150  1  0.48580056  0.12543175  0.01689903  1
  O  O151  1  0.50256602  0.12722888  0.36063508  1
  O  O152  1  0.50516194  0.12346783  0.67881514  1
  O  O153  1  0.48924735  0.62467309  0.01765854  1
  O  O154  1  0.50753381  0.62034670  0.35861448  1
  O  O155  1  0.49437178  0.62568281  0.67843554  1
  O  O156  1  0.83089916  0.12699347  0.01145901  1
  O  O157  1  0.83266439  0.12701208  0.35638335  1
  O  O158  1  0.82705289  0.12259403  0.69098323  1
  O  O159  1  0.83015014  0.62307526  0.00816183  1
  O  O160  1  0.83211742  0.62284850  0.35565608  1
  O  O161  1  0.82499153  0.62866590  0.69104825  1
  O  O162  1  0.16298767  0.37076928  0.32294245  1
  O  O163  1  0.17099150  0.37274292  0.64123048  1
  O  O164  1  0.16755930  0.37157654  0.97528760  1
  O  O165  1  0.15648020  0.88297067  0.30992767  1
  O  O166  1  0.17034338  0.87746843  0.64177023  1
  O  O167  1  0.17520354  0.87865452  0.97652500  1
  O  O168  1  0.49800494  0.37180673  0.30922239  1
  O  O169  1  0.50757035  0.37569781  0.64100992  1
  O  O170  1  0.50577478  0.37461615  0.98877524  1
  O  O171  1  0.50538178  0.88051046  0.31159876  1
  O  O172  1  0.50630950  0.87410273  0.63871232  1
  O  O173  1  0.50208235  0.87661522  0.97860758  1
  O  O174  1  0.83802608  0.37463131  0.30481270  1
  O  O175  1  0.82680952  0.37124083  0.64088224  1
  O  O176  1  0.83432661  0.37339272  0.98548944  1
  O  O177  1  0.83757547  0.87528667  0.32503732  1
  O  O178  1  0.82584315  0.87625062  0.63996131  1
  O  O179  1  0.83202891  0.87798866  0.97713039  1
  O  O180  1  -0.00650446  0.37376974  0.18853774  1
  O  O181  1  0.00335533  0.37062854  0.51350117  1
  O  O182  1  0.00509827  0.36898823  0.85608590  1
  O  O183  1  0.00929580  0.88029639  0.18948551  1
  O  O184  1  0.00228154  0.87812225  0.51323689  1
  O  O185  1  -0.00487023  0.87819099  0.84565562  1
  O  O186  1  0.33924341  0.36907102  0.18847854  1
  O  O187  1  0.33995402  0.37187982  0.52576735  1
  O  O188  1  0.32300452  0.37312316  0.85294850  1
  O  O189  1  0.33131647  0.87887424  0.17677357  1
  O  O190  1  0.33992034  0.87441556  0.52085345  1
  O  O191  1  0.32677107  0.87548817  0.85646270  1
  O  O192  1  0.67099885  0.37486381  0.18278686  1
  O  O193  1  0.67574187  0.37534151  0.52866253  1
  O  O194  1  0.66595245  0.37391762  0.85579952  1
  O  O195  1  0.65745217  0.87641508  0.18258821  1
  O  O196  1  0.67657241  0.87480512  0.52692962  1
  O  O197  1  0.66763698  0.87565237  0.85614231  1
  O  O198  1  0.00789810  0.12734318  0.14535682  1
  O  O199  1  -0.00532164  0.12525952  0.47459180  1
  O  O200  1  0.00295119  0.12272772  0.80892720  1
  O  O201  1  0.00168687  0.62019484  0.14333538  1
  O  O202  1  -0.00303463  0.62444670  0.47495482  1
  O  O203  1  -0.00417492  0.62764187  0.82673183  1
  O  O204  1  0.32996429  0.12490744  0.13693304  1
  O  O205  1  0.33100426  0.12820053  0.47356262  1
  O  O206  1  0.32844085  0.12436692  0.82150270  1
  O  O207  1  0.33826899  0.62807386  0.14576144  1
  O  O208  1  0.32613872  0.62510784  0.48977766  1
  O  O209  1  0.33533033  0.62871654  0.80717665  1
  O  O210  1  0.66321936  0.12769690  0.14411581  1
  O  O211  1  0.66336076  0.12712854  0.47189935  1
  O  O212  1  0.67152423  0.12208410  0.81077986  1
  O  O213  1  0.66291997  0.62231734  0.14401383  1
  O  O214  1  0.66223808  0.62211440  0.47167315  1
  O  O215  1  0.67356696  0.62799338  0.81208802  1
  O  O216  1  0.08417775  0.03141530  0.25588227  1
  O  O217  1  0.07724198  0.02349111  0.58415893  1
  O  O218  1  0.08067445  0.02422470  0.92632831  1
  O  O219  1  0.08168108  0.51150371  0.25519663  1
  O  O220  1  0.09807314  0.51158080  0.57235430  1
  O  O221  1  0.08320347  0.50612533  0.91743557  1
  O  O222  1  0.41344279  0.02120493  0.25062474  1
  O  O223  1  0.42152932  0.01227876  0.57782644  1
  O  O224  1  0.40720249  0.00750051  0.92275302  1
  O  O225  1  0.42633074  0.50787205  0.24456082  1
  O  O226  1  0.42848876  0.51611567  0.57065902  1
  O  O227  1  0.41503911  0.50848613  0.91898417  1
  O  O228  1  0.74522478  0.01327724  0.25857577  1
  O  O229  1  0.74658341  0.02756316  0.58568500  1
  O  O230  1  0.75299160  0.01964975  0.91035513  1
  O  O231  1  0.75096799  0.51346128  0.24950122  1
  O  O232  1  0.75426460  0.52495403  0.57461761  1
  O  O233  1  0.75737456  0.51958607  0.90953819  1
  O  O234  1  0.25197311  0.22757459  0.24692369  1
  O  O235  1  0.24122984  0.23456031  0.57267811  1
  O  O236  1  0.24057471  0.22924385  0.91008300  1
  O  O237  1  0.24871164  0.74630585  0.25052431  1
  O  O238  1  0.26322925  0.73937912  0.59238460  1
  O  O239  1  0.26001948  0.73486487  0.92352010  1
  O  O240  1  0.58538679  0.23175721  0.25647607  1
  O  O241  1  0.58707259  0.22988884  0.58339058  1
  O  O242  1  0.58870513  0.23376613  0.93025821  1
  O  O243  1  0.59010972  0.73075288  0.26102796  1
  O  O244  1  0.59314967  0.72906515  0.59107732  1
  O  O245  1  0.59572451  0.73249776  0.92965470  1
  O  O246  1  0.92233237  0.23414298  0.25870100  1
  O  O247  1  0.91203988  0.22486927  0.58152522  1
  O  O248  1  0.91867721  0.22850884  0.91659460  1
  O  O249  1  0.92338860  0.73873896  0.25838695  1
  O  O250  1  0.91546206  0.73646651  0.57723274  1
  O  O251  1  0.91980164  0.73194030  0.92005189  1
  O  O252  1  0.07432356  0.48241115  0.07554034  1
  O  O253  1  0.07798563  0.47753209  0.41280319  1
  O  O254  1  0.08581062  0.48561094  0.75102325  1
  O  O255  1  0.09814901  0.98945862  0.09567342  1
  O  O256  1  0.08281784  0.98693787  0.41821618  1
  O  O257  1  0.09099809  0.98550673  0.76019325  1
  O  O258  1  0.41400567  0.47818232  0.07943045  1
  O  O259  1  0.41102409  0.47645302  0.41101956  1
  O  O260  1  0.40732436  0.48578702  0.73418553  1
  O  O261  1  0.41928368  0.97639893  0.08502941  1
  O  O262  1  0.42153513  0.99024005  0.41852407  1
  O  O263  1  0.41523024  0.97566319  0.74991287  1
  O  O264  1  0.74269058  0.48202816  0.07506205  1
  O  O265  1  0.74894933  0.47974602  0.41527942  1
  O  O266  1  0.74122246  0.48500187  0.73659202  1
  O  O267  1  0.74381916  0.99349510  0.07753257  1
  O  O268  1  0.75549387  0.98714439  0.42668059  1
  O  O269  1  0.74556374  0.97565975  0.74838090  1
  O  O270  1  0.25662659  0.26572823  0.07107425  1
  O  O271  1  0.25211761  0.27461836  0.41462040  1
  O  O272  1  0.24915090  0.27042914  0.74629100  1
  O  O273  1  0.25266638  0.76736660  0.08127049  1
  O  O274  1  0.24043520  0.76474881  0.42897733  1
  O  O275  1  0.24768108  0.77545405  0.75326744  1
  O  O276  1  0.57957202  0.26957675  0.09050672  1
  O  O277  1  0.57956852  0.27141534  0.42376516  1
  O  O278  1  0.58470308  0.26196844  0.74623965  1
  O  O279  1  0.57329297  0.76514144  0.09258638  1
  O  O280  1  0.58109044  0.77053158  0.42938460  1
  O  O281  1  0.57738663  0.77157084  0.75846941  1
  O  O282  1  0.91185186  0.26820249  0.08296101  1
  O  O283  1  0.91396620  0.27196223  0.41743337  1
  O  O284  1  0.91641548  0.25002703  0.74790385  1
  O  O285  1  0.91893694  0.75686463  0.08208132  1
  O  O286  1  0.91733794  0.76596589  0.41767694  1
  O  O287  1  0.90374876  0.76378287  0.75742467  1
  O  O288  1  0.25286652  0.48804268  0.07846183  1
  O  O289  1  0.24230752  0.48045728  0.42973614  1
  O  O290  1  0.24497978  0.47680385  0.75174435  1
  O  O291  1  0.25700389  0.98282737  0.07459435  1
  O  O292  1  0.24421952  0.98250430  0.41812193  1
  O  O293  1  0.25175092  0.97724071  0.74808271  1
  O  O294  1  0.57729508  0.48025749  0.09287570  1
  O  O295  1  0.57606998  0.47638119  0.42773188  1
  O  O296  1  0.58296422  0.48837824  0.74764341  1
  O  O297  1  0.57672905  0.98729947  0.08993406  1
  O  O298  1  0.58328462  0.98067715  0.42421049  1
  O  O299  1  0.58043928  0.97819188  0.75382362  1
  O  O300  1  0.90936190  0.47702206  0.08804493  1
  O  O301  1  0.91149928  0.47774125  0.41720841  1
  O  O302  1  0.91270719  0.49573114  0.75495830  1
  O  O303  1  0.92189220  0.99733725  0.08273323  1
  O  O304  1  0.91722286  0.98279633  0.41858123  1
  O  O305  1  0.90582557  0.98954519  0.75344284  1
  O  O306  1  0.07725616  0.26562479  0.07518650  1
  O  O307  1  0.08387204  0.25931916  0.42098334  1
  O  O308  1  0.08967282  0.26288022  0.75864111  1
  O  O309  1  0.09206679  0.76604863  0.08966220  1
  O  O310  1  0.07917430  0.77395313  0.41309034  1
  O  O311  1  0.08542273  0.76465663  0.75321968  1
  O  O312  1  0.41733681  0.27328237  0.08506409  1
  O  O313  1  0.41357366  0.27131599  0.41195833  1
  O  O314  1  0.41070687  0.26643222  0.74085728  1
  O  O315  1  0.41468232  0.77168538  0.07663662  1
  O  O316  1  0.42087955  0.76254905  0.41947001  1
  O  O317  1  0.41126134  0.77519910  0.74369027  1
  O  O318  1  0.74434164  0.26834525  0.07905398  1
  O  O319  1  0.75209239  0.27040602  0.41926980  1
  O  O320  1  0.74244271  0.26302611  0.73796418  1
  O  O321  1  0.74443305  0.75714949  0.07367665  1
  O  O322  1  0.75287734  0.76194894  0.42107481  1
  O  O323  1  0.74104139  0.77425386  0.74515906  1
  O  O324  1  0.24849219  0.02254367  0.24515791  1
  O  O325  1  0.24202493  0.01416325  0.57632374  1
  O  O326  1  0.24173594  0.02116645  0.91127266  1
  O  O327  1  0.25474504  0.50233012  0.25936442  1
  O  O328  1  0.26525979  0.51141339  0.59354584  1
  O  O329  1  0.25558439  0.51310251  0.92252407  1
  O  O330  1  0.58483616  0.02382122  0.25547777  1
  O  O331  1  0.58733613  0.01968523  0.58437308  1
  O  O332  1  0.58866646  0.01844962  0.92573689  1
  O  O333  1  0.59151530  0.51476697  0.26060194  1
  O  O334  1  0.59204263  0.52170063  0.58832050  1
  O  O335  1  0.59470960  0.51406624  0.93212663  1
  O  O336  1  0.92439811  0.01351689  0.25837566  1
  O  O337  1  0.91193607  0.02323841  0.58354438  1
  O  O338  1  0.91652650  0.02376161  0.91571259  1
  O  O339  1  0.92449087  0.51608517  0.25908398  1
  O  O340  1  0.91474105  0.51392601  0.57847659  1
  O  O341  1  0.92410278  0.51340557  0.92628643  1
  O  O342  1  0.08643416  0.22767494  0.25387399  1
  O  O343  1  0.07728408  0.22516861  0.58600900  1
  O  O344  1  0.08096600  0.22257973  0.91899924  1
  O  O345  1  0.08047995  0.73338151  0.25637689  1
  O  O346  1  0.09520326  0.73752714  0.57109900  1
  O  O347  1  0.08422219  0.74374071  0.92138321  1
  O  O348  1  0.41482821  0.22731429  0.25215464  1
  O  O349  1  0.42385452  0.23379931  0.57090722  1
  O  O350  1  0.40516985  0.24340650  0.92346264  1
  O  O351  1  0.42500030  0.74513241  0.24114250  1
  O  O352  1  0.42301490  0.73253189  0.57799531  1
  O  O353  1  0.42101336  0.74516908  0.91296801  1
  O  O354  1  0.74688495  0.23626411  0.25397158  1
  O  O355  1  0.74925313  0.22318324  0.57881801  1
  O  O356  1  0.75197635  0.22812928  0.91317129  1
  O  O357  1  0.74890413  0.73729770  0.25473003  1
  O  O358  1  0.75293910  0.72302957  0.57995454  1
  O  O359  1  0.75993282  0.73535882  0.90569477  1
