# generated using pymatgen
data_Ba17Sr5La8Pr42Mn72O216
_symmetry_space_group_name_H-M   'P 1'
_cell_length_a   16.67369273
_cell_length_b   15.70485145
_cell_length_c   16.81818226
_cell_angle_alpha   89.99320378
_cell_angle_beta   90.01091255
_cell_angle_gamma   90.00240951
_symmetry_Int_Tables_number   1
_chemical_formula_structural   Ba17Sr5La8Pr42Mn72O216
_chemical_formula_sum   'Ba17 Sr5 La8 Pr42 Mn72 O216'
_cell_volume   4403.97322776
_cell_formula_units_Z   1
loop_
 _symmetry_equiv_pos_site_id
 _symmetry_equiv_pos_as_xyz
  1  'x, y, z'
loop_
 _atom_site_type_symbol
 _atom_site_label
 _atom_site_symmetry_multiplicity
 _atom_site_fract_x
 _atom_site_fract_y
 _atom_site_fract_z
 _atom_site_occupancy
  Ba  Ba0  1  0.50052026  0.87476061  0.49581115  1
  Ba  Ba1  1  0.66734736  0.12342616  0.66575521  1
  Ba  Ba2  1  0.33097305  0.62545070  0.99728026  1
  Ba  Ba3  1  0.66559438  0.87372060  0.66858780  1
  Ba  Ba4  1  0.16530674  0.12240765  0.16895332  1
  Ba  Ba5  1  0.83072847  0.12290358  0.83458688  1
  Ba  Ba6  1  0.16662246  0.12621285  0.83720327  1
  Ba  Ba7  1  0.66794394  0.37454773  0.00275921  1
  Ba  Ba8  1  0.83154743  0.62782809  0.16874298  1
  Ba  Ba9  1  0.66454421  0.87608208  -0.00007259  1
  Ba  Ba10  1  0.00336043  0.37416082  0.33743549  1
  Ba  Ba11  1  0.83387753  0.12598480  0.50404324  1
  Ba  Ba12  1  0.33186695  0.62303828  0.66310109  1
  Ba  Ba13  1  0.33600628  0.37602951  0.66083152  1
  Ba  Ba14  1  0.50055308  0.37449598  0.16546161  1
  Ba  Ba15  1  0.16670313  0.62538569  0.49941312  1
  Ba  Ba16  1  0.83655435  0.37406869  0.50085817  1
  Sr  Sr17  1  0.33558054  0.37441472  0.33588482  1
  Sr  Sr18  1  0.66542898  0.62716186  0.66481511  1
  Sr  Sr19  1  0.17279837  0.37810614  0.49634940  1
  Sr  Sr20  1  0.83360051  0.87360998  0.83219221  1
  Sr  Sr21  1  0.33584870  0.62504487  0.32868317  1
  La  La22  1  0.16496190  0.87412351  0.83371147  1
  La  La23  1  0.33424275  0.37328544  0.00053304  1
  La  La24  1  0.66981952  0.37727391  0.33439015  1
  La  La25  1  0.82462037  0.62919364  0.83684363  1
  La  La26  1  0.16786973  0.62474178  0.17274925  1
  La  La27  1  0.16362438  0.87199699  0.16540610  1
  La  La28  1  0.33018753  0.87248080  0.66461502  1
  La  La29  1  0.33257703  0.12452875  0.66267640  1
  Pr  Pr30  1  0.16383320  0.62080704  0.83563367  1
  Pr  Pr31  1  0.50415599  0.37882201  0.82831025  1
  Pr  Pr32  1  0.83677641  0.87416820  0.16382948  1
  Pr  Pr33  1  0.33629864  0.12568349  0.33071368  1
  Pr  Pr34  1  0.67350004  0.37412045  0.66975455  1
  Pr  Pr35  1  0.83895265  0.37552776  0.16519446  1
  Pr  Pr36  1  -0.00596508  0.62503103  0.99888993  1
  Pr  Pr37  1  -0.00315355  0.62635974  0.66499669  1
  Pr  Pr38  1  0.00476335  0.37155042  0.00621671  1
  Pr  Pr39  1  0.50550249  0.62271186  0.16443388  1
  Pr  Pr40  1  0.50268863  0.62474581  0.83023802  1
  Pr  Pr41  1  -0.00256579  0.12296667  0.66728237  1
  Pr  Pr42  1  0.00061790  0.61834922  0.33284224  1
  Pr  Pr43  1  -0.00630832  0.12448699  0.99821648  1
  Pr  Pr44  1  -0.00087902  0.87574375  0.67233518  1
  Pr  Pr45  1  -0.00074475  0.87462127  0.33732018  1
  Pr  Pr46  1  0.66481279  0.62586670  0.33264319  1
  Pr  Pr47  1  0.66125723  0.62295989  0.99749085  1
  Pr  Pr48  1  0.32550684  0.87562979  0.33380836  1
  Pr  Pr49  1  0.83240437  0.62325936  0.50194494  1
  Pr  Pr50  1  0.82774299  0.12304372  0.16966699  1
  Pr  Pr51  1  0.49450227  0.87469693  0.16082836  1
  Pr  Pr52  1  0.17439871  0.37557448  0.16970585  1
  Pr  Pr53  1  0.66010888  0.12733161  0.99503781  1
  Pr  Pr54  1  0.50212782  0.12762110  0.16360129  1
  Pr  Pr55  1  0.49474214  0.87222727  0.82369318  1
  Pr  Pr56  1  0.83004376  0.87748535  0.50382795  1
  Pr  Pr57  1  0.49897005  0.12685688  0.50197790  1
  Pr  Pr58  1  0.33515385  0.12520610  0.99527913  1
  Pr  Pr59  1  0.32689860  0.87640542  -0.00096072  1
  Pr  Pr60  1  0.50144576  0.37815223  0.49260229  1
  Pr  Pr61  1  0.84125575  0.37705779  0.83059887  1
  Pr  Pr62  1  0.00695012  0.37336120  0.66638068  1
  Pr  Pr63  1  0.17588555  0.37535443  0.83092830  1
  Pr  Pr64  1  0.50144939  0.12562602  0.83012706  1
  Pr  Pr65  1  -0.00536681  0.12708798  0.33446360  1
  Pr  Pr66  1  0.66922527  0.87335503  0.33647525  1
  Pr  Pr67  1  -0.00221239  0.87905367  0.00166459  1
  Pr  Pr68  1  0.16590468  0.87162887  0.50184017  1
  Pr  Pr69  1  0.49578538  0.62412285  0.49913291  1
  Pr  Pr70  1  0.66541156  0.12473538  0.33644836  1
  Pr  Pr71  1  0.16540316  0.12867361  0.50373742  1
  Mn  Mn72  1  -0.00185798  0.00006968  0.16984068  1
  Mn  Mn73  1  0.00186730  -0.00245987  0.50255437  1
  Mn  Mn74  1  -0.00098831  -0.00038992  0.83601364  1
  Mn  Mn75  1  0.00152638  0.49931799  0.16632302  1
  Mn  Mn76  1  0.00115654  0.50188814  0.50116584  1
  Mn  Mn77  1  0.00046478  0.49995926  0.83486625  1
  Mn  Mn78  1  0.33394087  0.00008756  0.16569195  1
  Mn  Mn79  1  0.33239330  -0.00105851  0.49721715  1
  Mn  Mn80  1  0.33318314  -0.00031211  0.83150796  1
  Mn  Mn81  1  0.33390544  0.50011303  0.16517926  1
  Mn  Mn82  1  0.33422061  0.50007354  0.49512426  1
  Mn  Mn83  1  0.33434028  0.50102509  0.83180625  1
  Mn  Mn84  1  0.66434384  0.00025175  0.16810475  1
  Mn  Mn85  1  0.66616501  -0.00158401  0.49892143  1
  Mn  Mn86  1  0.66414991  -0.00029683  0.83474556  1
  Mn  Mn87  1  0.66899191  0.50044058  0.16705310  1
  Mn  Mn88  1  0.66717712  0.50204558  0.50090870  1
  Mn  Mn89  1  0.66753135  0.50006656  0.83279963  1
  Mn  Mn90  1  -0.00017758  0.24895741  0.16823970  1
  Mn  Mn91  1  0.00430475  0.24895001  0.50207101  1
  Mn  Mn92  1  0.00039263  0.25217029  0.83702814  1
  Mn  Mn93  1  0.00019506  0.75002155  0.16833194  1
  Mn  Mn94  1  -0.00233547  0.75203425  0.50170305  1
  Mn  Mn95  1  0.00020127  0.74744067  0.83427907  1
  Mn  Mn96  1  0.33324481  0.24895132  0.16613933  1
  Mn  Mn97  1  0.33432071  0.24885675  0.49651137  1
  Mn  Mn98  1  0.33620656  0.25041740  0.83170611  1
  Mn  Mn99  1  0.33382675  0.75052264  0.16503149  1
  Mn  Mn100  1  0.33379257  0.75074735  0.49620679  1
  Mn  Mn101  1  0.33113977  0.74948059  0.83140133  1
  Mn  Mn102  1  0.66866680  0.24707837  0.16739097  1
  Mn  Mn103  1  0.66558069  0.25215054  0.50057683  1
  Mn  Mn104  1  0.66684527  0.25146739  0.83430414  1
  Mn  Mn105  1  0.66434884  0.75264379  0.16782237  1
  Mn  Mn106  1  0.66781209  0.74935117  0.49895188  1
  Mn  Mn107  1  0.66391861  0.75001635  0.83384429  1
  Mn  Mn108  1  0.16664001  0.25035947  0.00240982  1
  Mn  Mn109  1  0.16898036  0.24737985  0.33586671  1
  Mn  Mn110  1  0.16734712  0.24992434  0.66804847  1
  Mn  Mn111  1  0.16299435  0.74925690  0.00075271  1
  Mn  Mn112  1  0.16601901  0.75097545  0.33269596  1
  Mn  Mn113  1  0.16430025  0.75116189  0.66838875  1
  Mn  Mn114  1  0.49779410  0.24906935  -0.00286500  1
  Mn  Mn115  1  0.50208091  0.24861424  0.33302577  1
  Mn  Mn116  1  0.50131320  0.25213897  0.66410641  1
  Mn  Mn117  1  0.49703773  0.75144647  -0.00346281  1
  Mn  Mn118  1  0.50061713  0.75028301  0.32749147  1
  Mn  Mn119  1  0.49858855  0.74817171  0.66337046  1
  Mn  Mn120  1  0.83425815  0.25019173  0.00203507  1
  Mn  Mn121  1  0.83238479  0.24760391  0.33291964  1
  Mn  Mn122  1  0.83600521  0.25233164  0.66915235  1
  Mn  Mn123  1  0.83169887  0.75113063  0.00094401  1
  Mn  Mn124  1  0.83455120  0.75235667  0.33652674  1
  Mn  Mn125  1  0.83390764  0.74808050  0.66825247  1
  Mn  Mn126  1  0.16589531  0.00025864  0.00202270  1
  Mn  Mn127  1  0.16488256  -0.00078734  0.33678113  1
  Mn  Mn128  1  0.16629009  0.00120063  0.66777206  1
  Mn  Mn129  1  0.16388374  0.49864013  0.00156948  1
  Mn  Mn130  1  0.16948439  0.49989840  0.33350217  1
  Mn  Mn131  1  0.16571437  0.49824367  0.66750929  1
  Mn  Mn132  1  0.49697922  -0.00127051  -0.00370815  1
  Mn  Mn133  1  0.50146590  0.00068813  0.32792645  1
  Mn  Mn134  1  0.49665595  0.00038195  0.66460362  1
  Mn  Mn135  1  0.49824549  0.50122127  -0.00262271  1
  Mn  Mn136  1  0.50055446  0.50145501  0.33107862  1
  Mn  Mn137  1  0.50415833  0.50040705  0.66227477  1
  Mn  Mn138  1  0.83193838  -0.00143778  0.00335079  1
  Mn  Mn139  1  0.83283125  -0.00093988  0.33362845  1
  Mn  Mn140  1  0.83455275  -0.00216341  0.66919718  1
  Mn  Mn141  1  0.83396572  0.50090447  -0.00101563  1
  Mn  Mn142  1  0.83308224  0.50117533  0.33438231  1
  Mn  Mn143  1  0.83525185  0.50155923  0.66847941  1
  O  O144  1  0.17423997  0.12458095  0.01329313  1
  O  O145  1  0.16688409  0.11846493  0.35899788  1
  O  O146  1  0.17276806  0.12428755  0.68218153  1
  O  O147  1  0.16004980  0.62257132  0.02784603  1
  O  O148  1  0.16261294  0.62882752  0.34009701  1
  O  O149  1  0.15956880  0.62490370  0.69160896  1
  O  O150  1  0.49447065  0.12267704  0.01956937  1
  O  O151  1  0.49895213  0.12340766  0.35814733  1
  O  O152  1  0.49206894  0.12568397  0.68563541  1
  O  O153  1  0.50228688  0.62913562  0.01988612  1
  O  O154  1  0.50369044  0.62641671  0.35483093  1
  O  O155  1  0.50108342  0.62319128  0.68550644  1
  O  O156  1  0.84104602  0.12274094  0.02600515  1
  O  O157  1  0.83378175  0.12143669  0.34833352  1
  O  O158  1  0.84399161  0.12544975  0.67756239  1
  O  O159  1  0.83318241  0.62630568  0.01238740  1
  O  O160  1  0.83157993  0.63248905  0.35756371  1
  O  O161  1  0.84233770  0.62341820  0.69301086  1
  O  O162  1  0.17005942  0.37358019  0.31447799  1
  O  O163  1  0.15670897  0.37287271  0.64860841  1
  O  O164  1  0.15864332  0.37511156  0.97484707  1
  O  O165  1  0.16447864  0.87639452  0.30936277  1
  O  O166  1  0.15842621  0.87908112  0.64551431  1
  O  O167  1  0.16281564  0.87569385  0.97839002  1
  O  O168  1  0.50514209  0.37397413  0.32148102  1
  O  O169  1  0.51002297  0.37723019  0.63916067  1
  O  O170  1  0.49281647  0.37211067  0.97483447  1
  O  O171  1  0.51017605  0.87681081  0.30309152  1
  O  O172  1  0.49309629  0.87516589  0.65633122  1
  O  O173  1  0.49294412  0.87587275  0.96968247  1
  O  O174  1  0.82745539  0.36971558  0.30929038  1
  O  O175  1  0.83087764  0.37948837  0.65799615  1
  O  O176  1  0.83958327  0.37756056  0.97608104  1
  O  O177  1  0.83647978  0.87668767  0.30646033  1
  O  O178  1  0.84319719  0.87051209  0.64866618  1
  O  O179  1  0.84093120  0.87350951  0.98303172  1
  O  O180  1  -0.00943048  0.37525644  0.18103065  1
  O  O181  1  0.00608099  0.37407238  0.52009869  1
  O  O182  1  -0.00805278  0.37821899  0.86389366  1
  O  O183  1  -0.00598513  0.87675118  0.19342087  1
  O  O184  1  0.00183633  0.87432323  0.52908356  1
  O  O185  1  0.00482687  0.86979107  0.85842794  1
  O  O186  1  0.32956064  0.37468500  0.18421156  1
  O  O187  1  0.34068526  0.37292583  0.50326722  1
  O  O188  1  0.33597244  0.37463443  0.85419662  1
  O  O189  1  0.34221680  0.87736321  0.19064456  1
  O  O190  1  0.33134439  0.87701742  0.51960321  1
  O  O191  1  0.33931624  0.87406958  0.85514642  1
  O  O192  1  0.67134099  0.36940954  0.18934144  1
  O  O193  1  0.65618770  0.38012021  0.52400967  1
  O  O194  1  0.66107114  0.37614233  0.84664745  1
  O  O195  1  0.65456815  0.87796582  0.19261234  1
  O  O196  1  0.66960264  0.87219221  0.51069597  1
  O  O197  1  0.65466523  0.87329151  0.84311657  1
  O  O198  1  -0.00552881  0.12305100  0.14157921  1
  O  O199  1  0.00763904  0.11958854  0.47871642  1
  O  O200  1  0.00011176  0.12906963  0.81220155  1
  O  O201  1  0.00913941  0.62356989  0.14297822  1
  O  O202  1  -0.00568326  0.63240916  0.47612054  1
  O  O203  1  0.00914416  0.62299173  0.80697037  1
  O  O204  1  0.33706043  0.12202361  0.13930110  1
  O  O205  1  0.33175113  0.12048825  0.47484415  1
  O  O206  1  0.33727757  0.12588719  0.80748538  1
  O  O207  1  0.32534587  0.62617365  0.15332001  1
  O  O208  1  0.34014576  0.62756686  0.48090553  1
  O  O209  1  0.32291858  0.62684457  0.82016140  1
  O  O210  1  0.67315997  0.12203663  0.13880046  1
  O  O211  1  0.66140543  0.12417786  0.48104238  1
  O  O212  1  0.65991891  0.12781090  0.82332451  1
  O  O213  1  0.66366601  0.63092228  0.14122165  1
  O  O214  1  0.67665107  0.62633077  0.47500251  1
  O  O215  1  0.66486144  0.62384159  0.81625049  1
  O  O216  1  0.07357978  0.01377584  0.26064307  1
  O  O217  1  0.08771886  0.02317738  0.58367647  1
  O  O218  1  0.07740983  0.01326942  0.92419196  1
  O  O219  1  0.08216556  0.51682829  0.25086694  1
  O  O220  1  0.07291080  0.51423946  0.59814018  1
  O  O221  1  0.07380252  0.52313516  0.92581560  1
  O  O222  1  0.42343064  0.02269395  0.23958704  1
  O  O223  1  0.41619865  0.02206494  0.57790676  1
  O  O224  1  0.42051393  0.02320045  0.90779389  1
  O  O225  1  0.42014324  0.51935795  0.24496753  1
  O  O226  1  0.42340574  0.51074756  0.57454851  1
  O  O227  1  0.41936968  0.51506378  0.90972823  1
  O  O228  1  0.74447073  0.01816820  0.25532466  1
  O  O229  1  0.75605544  0.00047850  0.58290812  1
  O  O230  1  0.74467116  0.01451990  0.93078378  1
  O  O231  1  0.74358499  0.51507968  0.25912850  1
  O  O232  1  0.74951175  0.51823434  0.58666867  1
  O  O233  1  0.74412230  0.51966020  0.92200884  1
  O  O234  1  0.25286989  0.23183648  0.25169201  1
  O  O235  1  0.24943330  0.23228638  0.57636437  1
  O  O236  1  0.25611155  0.24187144  0.92342046  1
  O  O237  1  0.25358625  0.74426044  0.24891348  1
  O  O238  1  0.24503597  0.74952023  0.58636780  1
  O  O239  1  0.24171995  0.74192051  0.91151430  1
  O  O240  1  0.58407214  0.22448744  0.24919037  1
  O  O241  1  0.57333058  0.23424388  0.57354530  1
  O  O242  1  0.57691185  0.23217003  0.91270137  1
  O  O243  1  0.58388056  0.72257880  0.24790568  1
  O  O244  1  0.58326407  0.73067747  0.57606094  1
  O  O245  1  0.58383281  0.72706281  0.92005047  1
  O  O246  1  0.91164462  0.22800568  0.24432109  1
  O  O247  1  0.92547784  0.24162071  0.59126360  1
  O  O248  1  0.91673575  0.23366651  0.92003648  1
  O  O249  1  0.92513584  0.73389951  0.26159877  1
  O  O250  1  0.91308210  0.72689462  0.58128523  1
  O  O251  1  0.91719765  0.72746747  0.91179870  1
  O  O252  1  0.08895233  0.47305737  0.08984490  1
  O  O253  1  0.08712011  0.49502505  0.41943227  1
  O  O254  1  0.08944514  0.47665192  0.76450853  1
  O  O255  1  0.08028553  0.97807301  0.08978889  1
  O  O256  1  0.08251289  0.97208038  0.42126817  1
  O  O257  1  0.08035865  0.98304630  0.74908588  1
  O  O258  1  0.41261228  0.48786677  0.07828544  1
  O  O259  1  0.42438100  0.48866122  0.41602680  1
  O  O260  1  0.42906480  0.48673508  0.75173439  1
  O  O261  1  0.40969542  0.97767229  0.07160198  1
  O  O262  1  0.40917366  0.98475320  0.39971934  1
  O  O263  1  0.40677558  0.98213896  0.74240476  1
  O  O264  1  0.76009418  0.48322740  0.09299322  1
  O  O265  1  0.74728737  0.48440066  0.41764041  1
  O  O266  1  0.75865059  0.48493121  0.75959181  1
  O  O267  1  0.75730114  0.98198466  0.09688773  1
  O  O268  1  0.75332660  0.97790792  0.41529613  1
  O  O269  1  0.75138304  0.98883930  0.75423849  1
  O  O270  1  0.24773900  0.27340932  0.08319303  1
  O  O271  1  0.25923112  0.25550284  0.40976721  1
  O  O272  1  0.25103323  0.26612782  0.75219698  1
  O  O273  1  0.24687215  0.77279691  0.08514094  1
  O  O274  1  0.24623265  0.77287060  0.41699237  1
  O  O275  1  0.24744417  0.77470194  0.75043597  1
  O  O276  1  0.58434063  0.25029999  0.08083706  1
  O  O277  1  0.58809688  0.26825353  0.41253696  1
  O  O278  1  0.58867515  0.27075646  0.74319594  1
  O  O279  1  0.57112027  0.76672540  0.08866365  1
  O  O280  1  0.59149689  0.76080945  0.40551864  1
  O  O281  1  0.57255402  0.75667832  0.75772023  1
  O  O282  1  0.92156309  0.26959930  0.07884977  1
  O  O283  1  0.92349089  0.25122691  0.41379712  1
  O  O284  1  0.92190547  0.27418293  0.75302914  1
  O  O285  1  0.91866614  0.76803808  0.08510794  1
  O  O286  1  0.91576665  0.77963264  0.42119317  1
  O  O287  1  0.92525412  0.76431352  0.74628773  1
  O  O288  1  0.24990516  0.47563058  0.07862033  1
  O  O289  1  0.25572998  0.49128356  0.40837864  1
  O  O290  1  0.24893425  0.48401757  0.75153110  1
  O  O291  1  0.24705755  0.97474338  0.08912393  1
  O  O292  1  0.24416047  0.97402871  0.42177987  1
  O  O293  1  0.24585816  0.97613790  0.75325604  1
  O  O294  1  0.58514597  0.49706392  0.08020072  1
  O  O295  1  0.58644695  0.48564201  0.41441926  1
  O  O296  1  0.59076156  0.48137728  0.74353322  1
  O  O297  1  0.57222626  0.98893067  0.08925806  1
  O  O298  1  0.58952639  0.98749229  0.40438168  1
  O  O299  1  0.56850381  0.99232768  0.75653569  1
  O  O300  1  0.92544806  0.48652799  0.07427736  1
  O  O301  1  0.91746364  0.49871549  0.41453200  1
  O  O302  1  0.92762622  0.47834459  0.74589946  1
  O  O303  1  0.91805234  0.97697325  0.08539395  1
  O  O304  1  0.91867429  0.97794326  0.41740705  1
  O  O305  1  0.91910865  0.98100156  0.75185700  1
  O  O306  1  0.08696873  0.27011364  0.09212682  1
  O  O307  1  0.09559695  0.25522596  0.42946430  1
  O  O308  1  0.08403981  0.27446393  0.75972340  1
  O  O309  1  0.07984835  0.77468037  0.08295725  1
  O  O310  1  0.08019710  0.77293468  0.41894166  1
  O  O311  1  0.08648248  0.77170898  0.75564784  1
  O  O312  1  0.41102603  0.26142408  0.07508367  1
  O  O313  1  0.42700681  0.25860684  0.42269944  1
  O  O314  1  0.42916004  0.26794128  0.75573730  1
  O  O315  1  0.40940400  0.77344949  0.07373555  1
  O  O316  1  0.41207965  0.76805609  0.39835024  1
  O  O317  1  0.40911752  0.76656882  0.74475085  1
  O  O318  1  0.76332792  0.26358227  0.09593589  1
  O  O319  1  0.74568450  0.26270226  0.41251163  1
  O  O320  1  0.75535077  0.27006207  0.75737612  1
  O  O321  1  0.75152461  0.77155622  0.09439858  1
  O  O322  1  0.75600441  0.77472798  0.41988869  1
  O  O323  1  0.75493179  0.75658827  0.75497945  1
  O  O324  1  0.25903856  0.01255094  0.26144559  1
  O  O325  1  0.25178681  0.01534643  0.58776160  1
  O  O326  1  0.26117111  0.00915494  0.92288730  1
  O  O327  1  0.24327394  0.51123428  0.24074670  1
  O  O328  1  0.24745282  0.50386140  0.57843141  1
  O  O329  1  0.23652189  0.50988141  0.91183895  1
  O  O330  1  0.58351581  0.03242304  0.24752731  1
  O  O331  1  0.57667842  0.01365052  0.57854040  1
  O  O332  1  0.58167895  0.02208374  0.92097570  1
  O  O333  1  0.58390627  0.52142635  0.24934252  1
  O  O334  1  0.58173324  0.52662850  0.57593666  1
  O  O335  1  0.57974509  0.51949544  0.91061209  1
  O  O336  1  0.91254311  0.02192186  0.24836764  1
  O  O337  1  0.92724085  0.00985924  0.59120044  1
  O  O338  1  0.92016968  0.01190172  0.92508429  1
  O  O339  1  0.91916239  0.51580702  0.25007168  1
  O  O340  1  0.91387432  0.52213760  0.58199727  1
  O  O341  1  0.91087812  0.52464676  0.90630389  1
  O  O342  1  0.07606672  0.23114251  0.26121725  1
  O  O343  1  0.08085054  0.22536111  0.59129328  1
  O  O344  1  0.07473064  0.23556789  0.93009082  1
  O  O345  1  0.08645992  0.73601019  0.24631524  1
  O  O346  1  0.07415775  0.73626011  0.59232085  1
  O  O347  1  0.07958474  0.72341001  0.91850099  1
  O  O348  1  0.41874308  0.22694457  0.24993387  1
  O  O349  1  0.41172984  0.22826105  0.58372563  1
  O  O350  1  0.41568383  0.22536493  0.91496981  1
  O  O351  1  0.42666846  0.73426196  0.23457553  1
  O  O352  1  0.42113782  0.73595901  0.57341995  1
  O  O353  1  0.42422451  0.73370189  0.90283413  1
  O  O354  1  0.74578040  0.22323538  0.25254247  1
  O  O355  1  0.74419501  0.24930907  0.58791489  1
  O  O356  1  0.74362697  0.23400614  0.93038025  1
  O  O357  1  0.74322909  0.74152412  0.26160350  1
  O  O358  1  0.75425497  0.73358818  0.58179459  1
  O  O359  1  0.74495325  0.73304370  0.91931570  1
