# generated using pymatgen
data_Ba17Sr5La8Pr42Mn72O216
_symmetry_space_group_name_H-M   'P 1'
_cell_length_a   16.68144925
_cell_length_b   15.70210417
_cell_length_c   16.82323543
_cell_angle_alpha   89.98509200
_cell_angle_beta   90.02646573
_cell_angle_gamma   89.96784042
_symmetry_Int_Tables_number   1
_chemical_formula_structural   Ba17Sr5La8Pr42Mn72O216
_chemical_formula_sum   'Ba17 Sr5 La8 Pr42 Mn72 O216'
_cell_volume   4406.57357798
_cell_formula_units_Z   1
loop_
 _symmetry_equiv_pos_site_id
 _symmetry_equiv_pos_as_xyz
  1  'x, y, z'
loop_
 _atom_site_type_symbol
 _atom_site_label
 _atom_site_symmetry_multiplicity
 _atom_site_fract_x
 _atom_site_fract_y
 _atom_site_fract_z
 _atom_site_occupancy
  Ba  Ba0  1  0.67015093  0.37488744  0.33322080  1
  Ba  Ba1  1  0.66844981  0.37561836  -0.00193332  1
  Ba  Ba2  1  0.16591118  0.12520007  0.50235910  1
  Ba  Ba3  1  0.16626391  0.37495963  0.16607257  1
  Ba  Ba4  1  0.16350033  0.62490741  0.83053206  1
  Ba  Ba5  1  0.33260537  0.12450600  0.99673473  1
  Ba  Ba6  1  0.50097674  0.87484357  0.50054188  1
  Ba  Ba7  1  0.33074517  0.62538055  0.99794723  1
  Ba  Ba8  1  0.49890720  0.12522542  0.16472379  1
  Ba  Ba9  1  0.66776889  0.12495051  0.33232921  1
  Ba  Ba10  1  0.33392299  0.87417128  -0.00214616  1
  Ba  Ba11  1  0.66624680  0.62566008  0.33392668  1
  Ba  Ba12  1  0.33036425  0.62513329  0.33318567  1
  Ba  Ba13  1  0.66696717  0.12690029  0.66804399  1
  Ba  Ba14  1  0.66841238  0.87557843  0.33468521  1
  Ba  Ba15  1  0.49802817  0.62518882  0.50054760  1
  Ba  Ba16  1  0.66734137  0.12584315  0.99805701  1
  Sr  Sr17  1  0.66753039  0.37700584  0.67116975  1
  Sr  Sr18  1  0.50292929  0.12634440  0.83758536  1
  Sr  Sr19  1  0.33359143  0.12472916  0.66522503  1
  Sr  Sr20  1  -0.01000668  0.62420383  0.66576536  1
  Sr  Sr21  1  0.83462953  0.37415048  0.83121953  1
  La  La22  1  0.50139964  0.37628139  0.16563443  1
  La  La23  1  0.33726889  0.87772835  0.66637826  1
  La  La24  1  0.49581153  0.62473507  0.17216878  1
  La  La25  1  0.83205333  0.13019761  0.83590148  1
  La  La26  1  0.66253584  0.87303286  0.66796699  1
  La  La27  1  0.00051989  0.12720814  1.00078272  1
  La  La28  1  0.83331071  0.62053376  0.83184623  1
  La  La29  1  -0.00332293  0.62432518  0.33738597  1
  Pr  Pr30  1  0.34186527  0.37304345  0.33417004  1
  Pr  Pr31  1  0.50609773  0.37205575  0.49837587  1
  Pr  Pr32  1  0.50425799  0.87432664  0.16749086  1
  Pr  Pr33  1  -0.00016340  0.12531020  0.33064310  1
  Pr  Pr34  1  0.34096501  0.87604783  0.33329266  1
  Pr  Pr35  1  0.00635291  0.37495135  0.33808424  1
  Pr  Pr36  1  0.66301071  0.87755828  0.00180435  1
  Pr  Pr37  1  0.49521058  0.88149878  0.83114632  1
  Pr  Pr38  1  0.16574484  0.12376016  0.83463754  1
  Pr  Pr39  1  0.50218938  0.36963292  0.83249042  1
  Pr  Pr40  1  0.17696287  0.87455357  0.83233940  1
  Pr  Pr41  1  0.82361550  0.62420733  0.50314657  1
  Pr  Pr42  1  0.17080707  0.87307678  0.16542357  1
  Pr  Pr43  1  0.33787558  0.37482074  0.00069458  1
  Pr  Pr44  1  0.82894936  0.62299088  0.16834193  1
  Pr  Pr45  1  0.66287474  0.62166936  0.66178722  1
  Pr  Pr46  1  0.00089220  0.87048696  0.00449309  1
  Pr  Pr47  1  0.17714376  0.37325393  0.49508929  1
  Pr  Pr48  1  0.66608852  0.62418824  0.99946508  1
  Pr  Pr49  1  0.83155019  0.37613728  0.16378631  1
  Pr  Pr50  1  0.83766489  0.37305981  0.50057781  1
  Pr  Pr51  1  -0.00206098  0.62162886  0.99806477  1
  Pr  Pr52  1  0.17520685  0.87681733  0.49937077  1
  Pr  Pr53  1  -0.00014550  0.37890339  0.00251681  1
  Pr  Pr54  1  -0.00527345  0.12613991  0.66592618  1
  Pr  Pr55  1  0.32533783  0.62679181  0.65959365  1
  Pr  Pr56  1  0.82903866  0.87387728  0.16447700  1
  Pr  Pr57  1  0.83386490  0.87717027  0.82889470  1
  Pr  Pr58  1  0.82921084  0.12516278  0.50003680  1
  Pr  Pr59  1  0.83038427  0.12791230  0.16844305  1
  Pr  Pr60  1  0.50252366  0.12376624  0.50107147  1
  Pr  Pr61  1  0.33257565  0.12217939  0.32832884  1
  Pr  Pr62  1  0.16708709  0.12110660  0.17122156  1
  Pr  Pr63  1  0.15885181  0.62746493  0.16874400  1
  Pr  Pr64  1  0.83638918  0.87576654  0.49746972  1
  Pr  Pr65  1  0.17393583  0.37589670  0.83336213  1
  Pr  Pr66  1  0.33815545  0.37290172  0.66509141  1
  Pr  Pr67  1  0.00473116  0.87463689  0.33935415  1
  Pr  Pr68  1  0.50241064  0.62476777  0.83514868  1
  Pr  Pr69  1  0.00531273  0.87553615  0.67185638  1
  Pr  Pr70  1  0.00424495  0.37406687  0.67169371  1
  Pr  Pr71  1  0.15746533  0.62382220  0.50921910  1
  Mn  Mn72  1  -0.00216136  -0.00271788  0.16782716  1
  Mn  Mn73  1  -0.00060188  0.00015130  0.50239372  1
  Mn  Mn74  1  0.00075200  -0.00067072  0.83559900  1
  Mn  Mn75  1  -0.00169931  0.50150612  0.16907907  1
  Mn  Mn76  1  -0.00075125  0.49870124  0.50344173  1
  Mn  Mn77  1  0.00003216  0.49904099  0.83342950  1
  Mn  Mn78  1  0.33225850  -0.00116720  0.16645686  1
  Mn  Mn79  1  0.33415926  0.00198039  0.49897929  1
  Mn  Mn80  1  0.33287731  0.00258908  0.82994248  1
  Mn  Mn81  1  0.33107344  0.49995576  0.16523665  1
  Mn  Mn82  1  0.33189243  0.49901143  0.49963055  1
  Mn  Mn83  1  0.33484587  0.49871836  0.83020533  1
  Mn  Mn84  1  0.66821124  -0.00090706  0.16545586  1
  Mn  Mn85  1  0.66898488  0.00063523  0.50135610  1
  Mn  Mn86  1  0.66941324  -0.00250345  0.83390115  1
  Mn  Mn87  1  0.66655573  0.49999972  0.16580892  1
  Mn  Mn88  1  0.66685016  0.49701137  0.50300586  1
  Mn  Mn89  1  0.66696626  0.50152956  0.83151767  1
  Mn  Mn90  1  -0.00045461  0.25026301  0.16657459  1
  Mn  Mn91  1  -0.00001176  0.24936275  0.50206671  1
  Mn  Mn92  1  0.00247420  0.25016278  0.83416678  1
  Mn  Mn93  1  -0.00340703  0.75098417  0.17040690  1
  Mn  Mn94  1  -0.00082812  0.75162369  0.50364277  1
  Mn  Mn95  1  -0.00130472  0.75056445  0.83536007  1
  Mn  Mn96  1  0.33133604  0.25054851  0.16618543  1
  Mn  Mn97  1  0.33585347  0.24881396  0.49956414  1
  Mn  Mn98  1  0.33274217  0.25048528  0.83122754  1
  Mn  Mn99  1  0.33168618  0.74984084  0.16661712  1
  Mn  Mn100  1  0.32953419  0.75062576  0.49850885  1
  Mn  Mn101  1  0.33483070  0.74885779  0.82959347  1
  Mn  Mn102  1  0.66732933  0.25118161  0.16615754  1
  Mn  Mn103  1  0.66874158  0.25072366  0.50139415  1
  Mn  Mn104  1  0.66809606  0.25230435  0.83173657  1
  Mn  Mn105  1  0.66676162  0.75062426  0.16363307  1
  Mn  Mn106  1  0.66770227  0.75008974  0.50201777  1
  Mn  Mn107  1  0.66853500  0.74947920  0.83438624  1
  Mn  Mn108  1  0.16487981  0.24981857  -0.00105580  1
  Mn  Mn109  1  0.16711679  0.24978542  0.33351964  1
  Mn  Mn110  1  0.16633029  0.25119174  0.66698670  1
  Mn  Mn111  1  0.16361079  0.75011993  0.00051703  1
  Mn  Mn112  1  0.16481583  0.75014539  0.33577155  1
  Mn  Mn113  1  0.16344141  0.75201164  0.66512139  1
  Mn  Mn114  1  0.49995385  0.25120364  -0.00187968  1
  Mn  Mn115  1  0.49960424  0.25007849  0.33365730  1
  Mn  Mn116  1  0.49942549  0.24874023  0.66560012  1
  Mn  Mn117  1  0.50181770  0.74899668  -0.00007484  1
  Mn  Mn118  1  0.49911768  0.74970766  0.33287670  1
  Mn  Mn119  1  0.49833504  0.75045546  0.67099828  1
  Mn  Mn120  1  0.83619321  0.25132262  0.00028059  1
  Mn  Mn121  1  0.83833114  0.25141700  0.33285856  1
  Mn  Mn122  1  0.83476932  0.25070681  0.66665533  1
  Mn  Mn123  1  0.83392150  0.74909059  -0.00259713  1
  Mn  Mn124  1  0.83697311  0.74934710  0.33330593  1
  Mn  Mn125  1  0.83339323  0.75174071  0.66592708  1
  Mn  Mn126  1  0.16339967  -0.00049767  0.00117721  1
  Mn  Mn127  1  0.16567698  -0.00160515  0.33379158  1
  Mn  Mn128  1  0.16542114  0.00080392  0.66758180  1
  Mn  Mn129  1  0.16521060  0.49914291  -0.00066586  1
  Mn  Mn130  1  0.16667509  0.50072906  0.33517372  1
  Mn  Mn131  1  0.16426837  0.49629319  0.66439550  1
  Mn  Mn132  1  0.50041587  -0.00147647  -0.00224891  1
  Mn  Mn133  1  0.49971580  0.00121580  0.33365867  1
  Mn  Mn134  1  0.50019065  0.00321782  0.66683881  1
  Mn  Mn135  1  0.50026342  0.50218812  -0.00016816  1
  Mn  Mn136  1  0.49988164  0.49941537  0.33301699  1
  Mn  Mn137  1  0.49703212  0.49823209  0.66882536  1
  Mn  Mn138  1  0.83644867  -0.00192640  -0.00206001  1
  Mn  Mn139  1  0.83817305  -0.00080442  0.33198539  1
  Mn  Mn140  1  0.83452284  -0.00141284  0.66533961  1
  Mn  Mn141  1  0.83403796  0.50113703  -0.00002028  1
  Mn  Mn142  1  0.83765567  0.49949402  0.33416817  1
  Mn  Mn143  1  0.83391814  0.49895815  0.66685591  1
  O  O144  1  0.16032229  0.12451899  0.02666096  1
  O  O145  1  0.16627008  0.12394674  0.34654532  1
  O  O146  1  0.16343102  0.12606698  0.69145232  1
  O  O147  1  0.15836502  0.62694590  0.02339976  1
  O  O148  1  0.16048747  0.62719286  0.36415437  1
  O  O149  1  0.17651142  0.62406388  0.67238896  1
  O  O150  1  0.49970109  0.12491777  0.00500933  1
  O  O151  1  0.48931478  0.12659827  0.35369250  1
  O  O152  1  0.49835597  0.12602880  0.68652548  1
  O  O153  1  0.50748230  0.62655094  0.02634076  1
  O  O154  1  0.49870370  0.62324322  0.33695133  1
  O  O155  1  0.49951385  0.62498554  0.69079387  1
  O  O156  1  0.84297574  0.12436840  0.02462884  1
  O  O157  1  0.84420277  0.12432961  0.35648651  1
  O  O158  1  0.84091612  0.12188097  0.69187716  1
  O  O159  1  0.84150656  0.62731867  0.02598781  1
  O  O160  1  0.84082501  0.62230627  0.36009179  1
  O  O161  1  0.83125707  0.62860689  0.68822081  1
  O  O162  1  0.15989606  0.37455064  0.32178937  1
  O  O163  1  0.15548879  0.37339073  0.63906970  1
  O  O164  1  0.15602740  0.37206271  0.97695487  1
  O  O165  1  0.15581777  0.87429119  0.30820486  1
  O  O166  1  0.15753902  0.87671407  0.64356017  1
  O  O167  1  0.15597863  0.87518290  0.97675479  1
  O  O168  1  0.49284035  0.37460822  0.31422414  1
  O  O169  1  0.49161224  0.37324159  0.64076784  1
  O  O170  1  0.49281958  0.37924709  0.97839356  1
  O  O171  1  0.49359687  0.87615262  0.31593137  1
  O  O172  1  0.49674483  0.87705076  0.65716355  1
  O  O173  1  0.50766147  0.86989820  0.97549922  1
  O  O174  1  0.84690040  0.37735138  0.30774944  1
  O  O175  1  0.84292780  0.37410344  0.64453197  1
  O  O176  1  0.84216928  0.37780914  0.98231107  1
  O  O177  1  0.84535692  0.87602623  0.30913676  1
  O  O178  1  0.83985773  0.87516155  0.64066816  1
  O  O179  1  0.84039012  0.87053701  0.97149026  1
  O  O180  1  -0.00857919  0.37958857  0.19483731  1
  O  O181  1  -0.01022274  0.37530406  0.52799798  1
  O  O182  1  0.00135657  0.37218781  0.85834451  1
  O  O183  1  -0.01045004  0.87430137  0.19794345  1
  O  O184  1  -0.00883313  0.87808606  0.52878708  1
  O  O185  1  -0.00874357  0.87642555  0.86114491  1
  O  O186  1  0.33455792  0.37435004  0.18870571  1
  O  O187  1  0.33547594  0.37392663  0.52120560  1
  O  O188  1  0.33103641  0.37532174  0.85514587  1
  O  O189  1  0.32282870  0.87513578  0.18824282  1
  O  O190  1  0.32826597  0.87544340  0.52035433  1
  O  O191  1  0.33268058  0.87660114  0.83864955  1
  O  O192  1  0.67359772  0.37718172  0.17435704  1
  O  O193  1  0.66627709  0.37458831  0.51837256  1
  O  O194  1  0.66451809  0.38011675  0.84162761  1
  O  O195  1  0.67140274  0.87437773  0.17681291  1
  O  O196  1  0.67583475  0.87428555  0.52061817  1
  O  O197  1  0.67980359  0.86896771  0.86039443  1
  O  O198  1  0.00265860  0.11943873  0.14261852  1
  O  O199  1  -0.00382288  0.12265633  0.47410829  1
  O  O200  1  0.00398939  0.12339461  0.80792443  1
  O  O201  1  0.00379939  0.62809447  0.14209889  1
  O  O202  1  0.00728294  0.62386258  0.48035450  1
  O  O203  1  -0.00481433  0.62666072  0.81435998  1
  O  O204  1  0.32579044  0.12435189  0.15487856  1
  O  O205  1  0.33775364  0.12679209  0.47261530  1
  O  O206  1  0.32381889  0.12708202  0.81463398  1
  O  O207  1  0.34117107  0.62576406  0.15480743  1
  O  O208  1  0.32025008  0.62460448  0.49273125  1
  O  O209  1  0.34086220  0.62165304  0.80397047  1
  O  O210  1  0.67641778  0.12198481  0.15685047  1
  O  O211  1  0.67279390  0.12710079  0.49086087  1
  O  O212  1  0.67257051  0.12308326  0.82427192  1
  O  O213  1  0.66790744  0.62715880  0.14490790  1
  O  O214  1  0.67319189  0.62278565  0.49348766  1
  O  O215  1  0.66274761  0.62806527  0.80458081  1
  O  O216  1  0.08071395  0.01899277  0.25186804  1
  O  O217  1  0.07331954  0.01566834  0.59549409  1
  O  O218  1  0.08088308  0.02311867  0.91937009  1
  O  O219  1  0.07750296  0.52224977  0.25612131  1
  O  O220  1  0.07331660  0.51689699  0.59193030  1
  O  O221  1  0.07431706  0.51388502  0.92454379  1
  O  O222  1  0.40771966  0.01012248  0.25576002  1
  O  O223  1  0.41819779  0.01926179  0.57759083  1
  O  O224  1  0.42018552  0.00521305  0.90830873  1
  O  O225  1  0.41633046  0.50633026  0.24615071  1
  O  O226  1  0.40215945  0.51462159  0.59422910  1
  O  O227  1  0.42466891  0.51755933  0.91129429  1
  O  O228  1  0.76147099  0.00872111  0.24089441  1
  O  O229  1  0.75800772  0.01212765  0.58017097  1
  O  O230  1  0.76289385  0.01108343  0.90630957  1
  O  O231  1  0.75594638  0.51293532  0.24700840  1
  O  O232  1  0.74699167  0.51573108  0.59018595  1
  O  O233  1  0.74957087  0.52474112  0.91895799  1
  O  O234  1  0.24462175  0.23073861  0.24593308  1
  O  O235  1  0.24884415  0.24407789  0.58211687  1
  O  O236  1  0.23927309  0.23895765  0.90558578  1
  O  O237  1  0.23517415  0.73520525  0.24261348  1
  O  O238  1  0.23419215  0.74146070  0.56929101  1
  O  O239  1  0.24777787  0.74552713  0.90475016  1
  O  O240  1  0.57860545  0.24738762  0.24872109  1
  O  O241  1  0.57483133  0.23781763  0.57743169  1
  O  O242  1  0.57933203  0.24775015  0.91129914  1
  O  O243  1  0.57611822  0.74230775  0.23832258  1
  O  O244  1  0.58471984  0.73907190  0.59628942  1
  O  O245  1  0.58822149  0.72498977  0.91958314  1
  O  O246  1  0.91851968  0.22491599  0.24898427  1
  O  O247  1  0.91332466  0.22530176  0.57871693  1
  O  O248  1  0.92001088  0.22947032  0.91686888  1
  O  O249  1  0.91393596  0.72292778  0.24740255  1
  O  O250  1  0.90559509  0.73188817  0.57273374  1
  O  O251  1  0.91293029  0.72584687  0.91429518  1
  O  O252  1  0.07675322  0.48696971  0.08484345  1
  O  O253  1  0.08842853  0.47819926  0.43007600  1
  O  O254  1  0.08898475  0.47643434  0.75477013  1
  O  O255  1  0.07794401  0.97247286  0.08841832  1
  O  O256  1  0.08528286  0.97709850  0.42288447  1
  O  O257  1  0.08572475  0.97576703  0.75935200  1
  O  O258  1  0.41489032  0.48014199  0.08295374  1
  O  O259  1  0.41883040  0.48041041  0.42135533  1
  O  O260  1  0.41770965  0.47105284  0.75148786  1
  O  O261  1  0.41909092  0.98155089  0.09080674  1
  O  O262  1  0.41110987  0.98607733  0.41222528  1
  O  O263  1  0.41409962  0.98638073  0.74628945  1
  O  O264  1  0.75623810  0.49361884  0.08620807  1
  O  O265  1  0.76518205  0.48410905  0.42530899  1
  O  O266  1  0.75461937  0.49163520  0.75289283  1
  O  O267  1  0.75143892  0.97759451  0.07511908  1
  O  O268  1  0.76125930  0.98794289  0.41908550  1
  O  O269  1  0.75042241  0.97473514  0.74569603  1
  O  O270  1  0.25375500  0.26742992  0.07178529  1
  O  O271  1  0.25745585  0.26978460  0.41174324  1
  O  O272  1  0.25153249  0.27609366  0.74489968  1
  O  O273  1  0.24535265  0.76251778  0.08482949  1
  O  O274  1  0.25206770  0.77772246  0.40846126  1
  O  O275  1  0.25401026  0.76795828  0.73436364  1
  O  O276  1  0.57898142  0.26361988  0.08420544  1
  O  O277  1  0.58106530  0.25983550  0.41992514  1
  O  O278  1  0.57990802  0.26836611  0.74708904  1
  O  O279  1  0.58695041  0.77228409  0.07922943  1
  O  O280  1  0.58667577  0.75611029  0.41760546  1
  O  O281  1  0.58400967  0.77472478  0.75887877  1
  O  O282  1  0.91747270  0.27253873  0.08493149  1
  O  O283  1  0.92401762  0.27283925  0.41280218  1
  O  O284  1  0.92599274  0.26398743  0.74449106  1
  O  O285  1  0.91603309  0.77202465  0.08324917  1
  O  O286  1  0.92988692  0.76872328  0.41248734  1
  O  O287  1  0.91926866  0.77224756  0.74601020  1
  O  O288  1  0.25441150  0.48322855  0.07335728  1
  O  O289  1  0.25728798  0.47531351  0.41078709  1
  O  O290  1  0.25347515  0.47686777  0.73721302  1
  O  O291  1  0.24116518  0.98590124  0.08859768  1
  O  O292  1  0.25097807  0.97838038  0.41226208  1
  O  O293  1  0.24849326  0.98028333  0.74568620  1
  O  O294  1  0.57821533  0.48758167  0.08603508  1
  O  O295  1  0.58209377  0.48490830  0.42266174  1
  O  O296  1  0.57648231  0.48590025  0.75463405  1
  O  O297  1  0.58350320  0.97980200  0.08358609  1
  O  O298  1  0.58148998  0.99958093  0.41992937  1
  O  O299  1  0.58534171  0.97751646  0.75410833  1
  O  O300  1  0.91729436  0.48200102  0.08459561  1
  O  O301  1  0.92897946  0.48030621  0.41016697  1
  O  O302  1  0.92289263  0.48373046  0.74389297  1
  O  O303  1  0.91493752  0.97407797  0.08514940  1
  O  O304  1  0.92250666  0.97684382  0.41497440  1
  O  O305  1  0.91937002  0.97844002  0.74818825  1
  O  O306  1  0.07556258  0.26526506  0.07740468  1
  O  O307  1  0.08678020  0.26962986  0.42366698  1
  O  O308  1  0.08956819  0.27208646  0.75681540  1
  O  O309  1  0.08181339  0.77436576  0.09654932  1
  O  O310  1  0.08964628  0.77403561  0.42901007  1
  O  O311  1  0.08759376  0.77453392  0.75912786  1
  O  O312  1  0.41672558  0.27138499  0.08507717  1
  O  O313  1  0.42144721  0.27370467  0.42113275  1
  O  O314  1  0.41634763  0.27142674  0.74873629  1
  O  O315  1  0.42586682  0.76569861  0.08880901  1
  O  O316  1  0.41171447  0.76195518  0.41657188  1
  O  O317  1  0.42007620  0.76930202  0.75343268  1
  O  O318  1  0.75926641  0.26055086  0.08707729  1
  O  O319  1  0.76317443  0.26353784  0.42107207  1
  O  O320  1  0.75685177  0.26204430  0.75007163  1
  O  O321  1  0.75051301  0.76889143  0.07593428  1
  O  O322  1  0.76532089  0.76287731  0.42360516  1
  O  O323  1  0.75323638  0.77329852  0.75060637  1
  O  O324  1  0.24642027  0.01581546  0.24946571  1
  O  O325  1  0.25065300  0.00792945  0.58251715  1
  O  O326  1  0.24272366  0.00995242  0.90636238  1
  O  O327  1  0.24064219  0.51880753  0.23840835  1
  O  O328  1  0.23609310  0.50658741  0.57045069  1
  O  O329  1  0.24745349  0.50458374  0.90770220  1
  O  O330  1  0.57946768  0.00295527  0.24886148  1
  O  O331  1  0.58218123  0.01103348  0.58494867  1
  O  O332  1  0.58945429  0.00000315  0.91522043  1
  O  O333  1  0.57999704  0.50800642  0.24394933  1
  O  O334  1  0.58161240  0.51153559  0.59179390  1
  O  O335  1  0.58654529  0.52443482  0.91787688  1
  O  O336  1  0.91936579  0.02684937  0.24983525  1
  O  O337  1  0.91466136  0.02459634  0.58060171  1
  O  O338  1  0.91991182  0.02406408  0.91660543  1
  O  O339  1  0.91516030  0.52825817  0.24736414  1
  O  O340  1  0.90635255  0.51906911  0.57187701  1
  O  O341  1  0.91421853  0.51943512  0.91619875  1
  O  O342  1  0.07992328  0.23026381  0.25135349  1
  O  O343  1  0.07240957  0.23386895  0.59570133  1
  O  O344  1  0.08232254  0.22380118  0.91658001  1
  O  O345  1  0.07570983  0.72920614  0.26016239  1
  O  O346  1  0.07171252  0.73561128  0.59403742  1
  O  O347  1  0.07033537  0.73623596  0.93039485  1
  O  O348  1  0.40583782  0.23806190  0.26092430  1
  O  O349  1  0.41623660  0.22885396  0.58132908  1
  O  O350  1  0.41478126  0.24580694  0.91390259  1
  O  O351  1  0.41289540  0.74719254  0.24927162  1
  O  O352  1  0.40145674  0.73865070  0.59350237  1
  O  O353  1  0.42623315  0.73418923  0.91283251  1
  O  O354  1  0.75972466  0.24094100  0.24766212  1
  O  O355  1  0.75687647  0.24085240  0.58066535  1
  O  O356  1  0.75902116  0.24015189  0.91427435  1
  O  O357  1  0.75441100  0.73763317  0.24007631  1
  O  O358  1  0.74585824  0.73125790  0.59143449  1
  O  O359  1  0.75107387  0.71961393  0.91478531  1
