# generated using pymatgen
data_Ba17Sr5La8Pr42Mn72O216
_symmetry_space_group_name_H-M   'P 1'
_cell_length_a   16.67635564
_cell_length_b   15.70342864
_cell_length_c   16.81995666
_cell_angle_alpha   90.00680955
_cell_angle_beta   90.06613109
_cell_angle_gamma   90.00751237
_symmetry_Int_Tables_number   1
_chemical_formula_structural   Ba17Sr5La8Pr42Mn72O216
_chemical_formula_sum   'Ba17 Sr5 La8 Pr42 Mn72 O216'
_cell_volume   4404.73930561
_cell_formula_units_Z   1
loop_
 _symmetry_equiv_pos_site_id
 _symmetry_equiv_pos_as_xyz
  1  'x, y, z'
loop_
 _atom_site_type_symbol
 _atom_site_label
 _atom_site_symmetry_multiplicity
 _atom_site_fract_x
 _atom_site_fract_y
 _atom_site_fract_z
 _atom_site_occupancy
  Ba  Ba0  1  0.66968384  0.12472154  0.99994694  1
  Ba  Ba1  1  0.66882362  0.37390930  0.00067684  1
  Ba  Ba2  1  0.49960786  0.87599069  0.83183557  1
  Ba  Ba3  1  0.50076451  0.12590397  0.49840504  1
  Ba  Ba4  1  0.66690198  0.62569155  0.66554936  1
  Ba  Ba5  1  -0.00161306  0.62508055  0.33343294  1
  Ba  Ba6  1  0.33498500  0.87324999  0.33319737  1
  Ba  Ba7  1  0.83074920  0.12570950  0.50178375  1
  Ba  Ba8  1  0.16792501  0.12615733  0.50123708  1
  Ba  Ba9  1  0.33065904  0.62394464  0.99961760  1
  Ba  Ba10  1  0.00306400  0.87382684  0.66813835  1
  Ba  Ba11  1  -0.00331982  0.12498390  0.33532549  1
  Ba  Ba12  1  0.49905263  0.37405305  0.83414302  1
  Ba  Ba13  1  0.16401941  0.37651115  0.16653921  1
  Ba  Ba14  1  0.66646593  0.37698032  0.32972715  1
  Ba  Ba15  1  0.33081839  0.12621358  1.00100387  1
  Ba  Ba16  1  0.16533307  0.87362411  0.16750035  1
  Sr  Sr17  1  0.33315154  0.37475627  0.00354641  1
  Sr  Sr18  1  0.66248015  0.12503936  0.66551213  1
  Sr  Sr19  1  0.83562109  0.12413413  0.83323246  1
  Sr  Sr20  1  0.16679120  0.62364143  0.16810317  1
  Sr  Sr21  1  0.83358552  0.37617358  0.16671905  1
  La  La22  1  0.16836039  0.87547093  0.49584881  1
  La  La23  1  -0.00213035  0.12242771  0.66106390  1
  La  La24  1  0.00283665  0.62384552  1.00389446  1
  La  La25  1  0.17030044  0.87433004  0.83389999  1
  La  La26  1  0.83404091  0.88010948  0.83113754  1
  La  La27  1  0.50047064  0.62518412  0.83668332  1
  La  La28  1  0.50072714  0.62496285  0.49776199  1
  La  La29  1  0.16510954  0.62506704  0.83724017  1
  Pr  Pr30  1  0.16464938  0.37576517  0.49517062  1
  Pr  Pr31  1  0.50295249  0.87711539  0.15913899  1
  Pr  Pr32  1  0.16416164  0.12515728  0.83389068  1
  Pr  Pr33  1  0.83018686  0.37083163  0.83355709  1
  Pr  Pr34  1  0.83659844  0.62791679  0.83789927  1
  Pr  Pr35  1  0.33005078  0.12543822  0.32824089  1
  Pr  Pr36  1  0.66757155  0.62351804  0.99254563  1
  Pr  Pr37  1  0.00109821  0.12599628  1.00239765  1
  Pr  Pr38  1  -0.00249838  0.37481440  0.00589556  1
  Pr  Pr39  1  0.50003791  0.37481661  0.15560984  1
  Pr  Pr40  1  0.66271959  0.62521115  0.32976065  1
  Pr  Pr41  1  0.33375378  0.37603968  0.33233780  1
  Pr  Pr42  1  0.00339487  0.87214550  0.34087450  1
  Pr  Pr43  1  0.66897338  0.36898815  0.66884148  1
  Pr  Pr44  1  0.67657478  0.87730180  0.00042681  1
  Pr  Pr45  1  0.82925887  0.37560468  0.49935482  1
  Pr  Pr46  1  0.33804110  0.62252193  0.66859133  1
  Pr  Pr47  1  0.49958203  0.12887318  0.16822059  1
  Pr  Pr48  1  0.00198015  0.87472683  0.00026546  1
  Pr  Pr49  1  -0.00220338  0.37726087  0.33770006  1
  Pr  Pr50  1  0.82790365  0.12957809  0.17291401  1
  Pr  Pr51  1  0.49689915  0.62300278  0.16404340  1
  Pr  Pr52  1  0.83597329  0.62173204  0.50410345  1
  Pr  Pr53  1  0.33692812  0.87461089  0.00627321  1
  Pr  Pr54  1  0.16903658  0.37570505  0.83678375  1
  Pr  Pr55  1  0.00307988  0.62532862  0.66354873  1
  Pr  Pr56  1  0.83474650  0.87356631  0.50044149  1
  Pr  Pr57  1  -0.00008864  0.37126135  0.67016276  1
  Pr  Pr58  1  0.50399402  0.12495970  0.83346239  1
  Pr  Pr59  1  0.17466442  0.62626093  0.50056431  1
  Pr  Pr60  1  0.33076911  0.62445514  0.32520528  1
  Pr  Pr61  1  0.50211422  0.37616601  0.49928154  1
  Pr  Pr62  1  0.16773016  0.12696270  0.17360786  1
  Pr  Pr63  1  0.67047853  0.87620560  0.33404335  1
  Pr  Pr64  1  0.66188066  0.12663139  0.32779406  1
  Pr  Pr65  1  0.82940781  0.62170546  0.17003991  1
  Pr  Pr66  1  0.67007519  0.88047442  0.66652519  1
  Pr  Pr67  1  0.33602263  0.12628801  0.66486720  1
  Pr  Pr68  1  0.83891919  0.87457847  0.16690081  1
  Pr  Pr69  1  0.50659639  0.87464022  0.49671289  1
  Pr  Pr70  1  0.33379760  0.37062416  0.66935944  1
  Pr  Pr71  1  0.33447184  0.87881680  0.66578578  1
  Mn  Mn72  1  -0.00278362  -0.00031292  0.16676878  1
  Mn  Mn73  1  -0.00004274  -0.00112632  0.50127175  1
  Mn  Mn74  1  0.00162906  0.00249169  0.83456035  1
  Mn  Mn75  1  -0.00264131  0.50054991  0.16831245  1
  Mn  Mn76  1  0.00207631  0.50068706  0.50408312  1
  Mn  Mn77  1  -0.00108006  0.49818700  0.83363978  1
  Mn  Mn78  1  0.33352179  -0.00003710  0.16668444  1
  Mn  Mn79  1  0.33521699  0.00042091  0.50027028  1
  Mn  Mn80  1  0.33180466  0.00122311  0.83324810  1
  Mn  Mn81  1  0.33312966  0.50008349  0.16621709  1
  Mn  Mn82  1  0.33504383  0.49986058  0.49949456  1
  Mn  Mn83  1  0.33158771  0.49795181  0.83181106  1
  Mn  Mn84  1  0.66651032  -0.00294581  0.16692649  1
  Mn  Mn85  1  0.66744727  -0.00097796  0.49909071  1
  Mn  Mn86  1  0.66811772  0.00036343  0.83275256  1
  Mn  Mn87  1  0.66541652  0.50309054  0.16382939  1
  Mn  Mn88  1  0.66744541  0.50116519  0.49970636  1
  Mn  Mn89  1  0.66862101  0.49975411  0.83076448  1
  Mn  Mn90  1  -0.00371155  0.25009834  0.16732749  1
  Mn  Mn91  1  0.00005741  0.25208437  0.50378693  1
  Mn  Mn92  1  0.00045528  0.25055580  0.83534766  1
  Mn  Mn93  1  -0.00188183  0.75005380  0.16792177  1
  Mn  Mn94  1  0.00106028  0.74735090  0.50180443  1
  Mn  Mn95  1  0.00041519  0.74904416  0.83455622  1
  Mn  Mn96  1  0.33259762  0.25124611  0.16713928  1
  Mn  Mn97  1  0.33437408  0.25283901  0.49998667  1
  Mn  Mn98  1  0.33127356  0.24943067  0.83309573  1
  Mn  Mn99  1  0.33441411  0.74934057  0.16634100  1
  Mn  Mn100  1  0.33632770  0.74754131  0.50090333  1
  Mn  Mn101  1  0.33275164  0.75107265  0.83187604  1
  Mn  Mn102  1  0.66602213  0.25079348  0.16608765  1
  Mn  Mn103  1  0.66616020  0.25162201  0.50008714  1
  Mn  Mn104  1  0.66814067  0.24857522  0.83228778  1
  Mn  Mn105  1  0.66643152  0.75036154  0.16439548  1
  Mn  Mn106  1  0.66850752  0.74930454  0.49739993  1
  Mn  Mn107  1  0.66801296  0.75150303  0.83160825  1
  Mn  Mn108  1  0.16432310  0.24941620  0.00130674  1
  Mn  Mn109  1  0.16574869  0.25230629  0.33422820  1
  Mn  Mn110  1  0.16701311  0.25275061  0.66871166  1
  Mn  Mn111  1  0.16531229  0.74983987  -0.00114454  1
  Mn  Mn112  1  0.16656697  0.74816007  0.33419415  1
  Mn  Mn113  1  0.17100688  0.74706284  0.66717859  1
  Mn  Mn114  1  0.49906693  0.24747785  -0.00097008  1
  Mn  Mn115  1  0.49896898  0.25242961  0.33220561  1
  Mn  Mn116  1  0.49970798  0.25070034  0.66525277  1
  Mn  Mn117  1  0.50245432  0.75138214  -0.00111093  1
  Mn  Mn118  1  0.50137947  0.74940312  0.33070065  1
  Mn  Mn119  1  0.49911923  0.74975146  0.66396886  1
  Mn  Mn120  1  0.83579959  0.24871943  0.00095228  1
  Mn  Mn121  1  0.83172820  0.25228195  0.33448501  1
  Mn  Mn122  1  0.83319702  0.25018896  0.66738157  1
  Mn  Mn123  1  0.83599578  0.74996616  0.00182313  1
  Mn  Mn124  1  0.83066971  0.74965414  0.33323691  1
  Mn  Mn125  1  0.83444542  0.74899362  0.66863093  1
  Mn  Mn126  1  0.16496192  0.00116484  0.00007479  1
  Mn  Mn127  1  0.16594083  0.00017300  0.33378135  1
  Mn  Mn128  1  0.16898116  -0.00092408  0.66840596  1
  Mn  Mn129  1  0.16468741  0.49978535  -0.00002233  1
  Mn  Mn130  1  0.16600497  0.49910418  0.33408422  1
  Mn  Mn131  1  0.16797196  0.49951922  0.66660042  1
  Mn  Mn132  1  0.50085654  0.00126164  -0.00156067  1
  Mn  Mn133  1  0.50003355  -0.00127645  0.33093367  1
  Mn  Mn134  1  0.49945753  -0.00076388  0.66411790  1
  Mn  Mn135  1  0.49992987  0.50118301  -0.00110198  1
  Mn  Mn136  1  0.49904092  0.49952963  0.33100761  1
  Mn  Mn137  1  0.50005169  0.50049251  0.66514765  1
  Mn  Mn138  1  0.83750726  -0.00013930  0.00108443  1
  Mn  Mn139  1  0.83080411  -0.00175363  0.33316482  1
  Mn  Mn140  1  0.83325037  -0.00003656  0.66686944  1
  Mn  Mn141  1  0.83517500  0.50182615  0.00084641  1
  Mn  Mn142  1  0.83184108  0.50079109  0.33492332  1
  Mn  Mn143  1  0.83585715  0.49889498  0.66953381  1
  O  O144  1  0.16021668  0.12411188  0.02847062  1
  O  O145  1  0.17758537  0.12755819  0.34139827  1
  O  O146  1  0.17183999  0.13071149  0.69086316  1
  O  O147  1  0.16126967  0.62608509  0.01558775  1
  O  O148  1  0.17776178  0.62192545  0.35434365  1
  O  O149  1  0.17207093  0.62129156  0.69547059  1
  O  O150  1  0.50369866  0.12158245  0.02141338  1
  O  O151  1  0.50655353  0.12460280  0.34353552  1
  O  O152  1  0.49955001  0.12459180  0.68675056  1
  O  O153  1  0.51194828  0.62907627  0.01754130  1
  O  O154  1  0.50318513  0.62479887  0.35612588  1
  O  O155  1  0.49651078  0.62499683  0.69187915  1
  O  O156  1  0.84408607  0.12008664  0.02855872  1
  O  O157  1  0.82461351  0.12427170  0.34420224  1
  O  O158  1  0.84385457  0.12725311  0.68129177  1
  O  O159  1  0.83610794  0.63073261  0.02768501  1
  O  O160  1  0.82584381  0.62776649  0.36081704  1
  O  O161  1  0.84374929  0.62272794  0.69306874  1
  O  O162  1  0.15560282  0.37609795  0.32434442  1
  O  O163  1  0.16426053  0.37876673  0.63844552  1
  O  O164  1  0.15526624  0.37361260  0.98073394  1
  O  O165  1  0.15624172  0.87399337  0.32750452  1
  O  O166  1  0.17452790  0.86687689  0.63905838  1
  O  O167  1  0.15684126  0.87597388  0.97744034  1
  O  O168  1  0.49084909  0.37736947  0.30189731  1
  O  O169  1  0.49043851  0.37811497  0.64442503  1
  O  O170  1  0.49501702  0.37460842  0.99511746  1
  O  O171  1  0.50611868  0.87192548  0.30400145  1
  O  O172  1  0.48869972  0.87198044  0.64025353  1
  O  O173  1  0.48616805  0.87594058  0.98994486  1
  O  O174  1  0.83984646  0.37629349  0.31700807  1
  O  O175  1  0.82993538  0.37698280  0.64486588  1
  O  O176  1  0.84184322  0.37847892  0.97653584  1
  O  O177  1  0.82545540  0.87228489  0.30815255  1
  O  O178  1  0.82600219  0.87214489  0.64647905  1
  O  O179  1  0.83520210  0.87093555  0.97447957  1
  O  O180  1  -0.00460646  0.37579118  0.19177960  1
  O  O181  1  0.01241863  0.37936353  0.52604556  1
  O  O182  1  0.00017378  0.37495643  0.86363196  1
  O  O183  1  -0.00702268  0.87543188  0.19537654  1
  O  O184  1  0.00595430  0.87119537  0.50919560  1
  O  O185  1  0.00341949  0.87773587  0.85688179  1
  O  O186  1  0.34670910  0.37603818  0.18651039  1
  O  O187  1  0.34056975  0.37797809  0.52720804  1
  O  O188  1  0.32973327  0.37378213  0.85282539  1
  O  O189  1  0.34669586  0.87448887  0.17371444  1
  O  O190  1  0.33604847  0.86822195  0.52330951  1
  O  O191  1  0.32922025  0.87876743  0.86112187  1
  O  O192  1  0.65908428  0.37742516  0.17412397  1
  O  O193  1  0.67034998  0.37981370  0.52265676  1
  O  O194  1  0.67504006  0.37515369  0.84330057  1
  O  O195  1  0.66704764  0.87160635  0.19206091  1
  O  O196  1  0.66651874  0.87105013  0.52190839  1
  O  O197  1  0.67485681  0.87403638  0.85546532  1
  O  O198  1  -0.01150166  0.12308736  0.14604784  1
  O  O199  1  -0.00294704  0.12548142  0.49626115  1
  O  O200  1  0.00548544  0.12894050  0.80494128  1
  O  O201  1  -0.01149981  0.62623037  0.14754215  1
  O  O202  1  -0.01281927  0.62330007  0.48958569  1
  O  O203  1  -0.00403253  0.61913240  0.80570423  1
  O  O204  1  0.32044207  0.12536086  0.16027296  1
  O  O205  1  0.33383670  0.13235297  0.47244035  1
  O  O206  1  0.31976344  0.12522434  0.80763097  1
  O  O207  1  0.33050994  0.62471304  0.15840708  1
  O  O208  1  0.33307427  0.62279712  0.46971036  1
  O  O209  1  0.32644064  0.62235632  0.81236688  1
  O  O210  1  0.66791966  0.12151023  0.15883865  1
  O  O211  1  0.66608038  0.12186120  0.47423667  1
  O  O212  1  0.66264960  0.12356121  0.81540186  1
  O  O213  1  0.66679085  0.63092095  0.13650928  1
  O  O214  1  0.66661991  0.62638405  0.47485102  1
  O  O215  1  0.66971345  0.62665128  0.82179628  1
  O  O216  1  0.08294750  0.01765143  0.24285479  1
  O  O217  1  0.08294873  0.01216140  0.59298300  1
  O  O218  1  0.08169552  0.02674657  0.91867750  1
  O  O219  1  0.08215025  0.51288827  0.24829048  1
  O  O220  1  0.08869413  0.52796879  0.58256530  1
  O  O221  1  0.08062124  0.52088244  0.91236237  1
  O  O222  1  0.41319136  0.02178739  0.25449037  1
  O  O223  1  0.41153535  0.01714278  0.58793588  1
  O  O224  1  0.41730001  0.02091976  0.90848903  1
  O  O225  1  0.41734443  0.52478870  0.25095808  1
  O  O226  1  0.41898078  0.52579218  0.57912676  1
  O  O227  1  0.42189589  0.51697461  0.90940254  1
  O  O228  1  0.73728048  0.01321526  0.26043504  1
  O  O229  1  0.74280594  0.00804564  0.58831202  1
  O  O230  1  0.75577495  0.00705344  0.91884845  1
  O  O231  1  0.74295599  0.52437561  0.24998152  1
  O  O232  1  0.76190599  0.51698878  0.58010322  1
  O  O233  1  0.75545125  0.52204277  0.91760762  1
  O  O234  1  0.25455865  0.24450754  0.25506181  1
  O  O235  1  0.25519144  0.24031991  0.59007437  1
  O  O236  1  0.24124193  0.23861144  0.91038815  1
  O  O237  1  0.25052940  0.73683760  0.25454382  1
  O  O238  1  0.25421053  0.72057203  0.58642026  1
  O  O239  1  0.24078461  0.73990009  0.90780144  1
  O  O240  1  0.58075552  0.23325162  0.24904115  1
  O  O241  1  0.58204058  0.24928476  0.58272343  1
  O  O242  1  0.58103975  0.23587329  0.90936811  1
  O  O243  1  0.57925134  0.72424695  0.24399584  1
  O  O244  1  0.57613347  0.73733750  0.57099014  1
  O  O245  1  0.58596548  0.73472192  0.91571423  1
  O  O246  1  0.90857172  0.23558640  0.24596511  1
  O  O247  1  0.91978399  0.24802723  0.58952211  1
  O  O248  1  0.92281992  0.22919071  0.91999592  1
  O  O249  1  0.90391112  0.73606537  0.24354749  1
  O  O250  1  0.91960307  0.73249811  0.58884661  1
  O  O251  1  0.91681718  0.72712689  0.92290839  1
  O  O252  1  0.07461824  0.49037329  0.07721030  1
  O  O253  1  0.08318615  0.48642040  0.42042114  1
  O  O254  1  0.08022609  0.47704041  0.75009652  1
  O  O255  1  0.07628090  0.98591161  0.07761393  1
  O  O256  1  0.08222967  0.98690686  0.41643940  1
  O  O257  1  0.09206008  0.98742779  0.75974756  1
  O  O258  1  0.42013473  0.49297687  0.08787487  1
  O  O259  1  0.41531875  0.47730034  0.41402677  1
  O  O260  1  0.40764572  0.48864998  0.74027905  1
  O  O261  1  0.42390344  0.99177923  0.08949359  1
  O  O262  1  0.42658406  0.98155414  0.42112798  1
  O  O263  1  0.41137770  0.99044147  0.74481276  1
  O  O264  1  0.75313580  0.49558837  0.08535930  1
  O  O265  1  0.75582062  0.48613751  0.42206660  1
  O  O266  1  0.75303502  0.48010917  0.74838303  1
  O  O267  1  0.75527114  0.97776147  0.08899616  1
  O  O268  1  0.75455546  0.97351561  0.42185153  1
  O  O269  1  0.75166185  0.98143114  0.75128158  1
  O  O270  1  0.24808822  0.26185453  0.08309883  1
  O  O271  1  0.25206366  0.27757336  0.42050288  1
  O  O272  1  0.24692991  0.27674047  0.75044309  1
  O  O273  1  0.25480707  0.76719900  0.07285186  1
  O  O274  1  0.24621048  0.76212330  0.42773785  1
  O  O275  1  0.25335500  0.77406441  0.74696680  1
  O  O276  1  0.57821147  0.25656672  0.08985501  1
  O  O277  1  0.57848553  0.26983538  0.41766897  1
  O  O278  1  0.58680116  0.26330010  0.74259526  1
  O  O279  1  0.58947212  0.77810959  0.07858256  1
  O  O280  1  0.58882152  0.77004062  0.40777744  1
  O  O281  1  0.58570641  0.76875033  0.73728304  1
  O  O282  1  0.91731633  0.27099721  0.08232207  1
  O  O283  1  0.91899769  0.27379347  0.41881837  1
  O  O284  1  0.91724471  0.27395037  0.75377710  1
  O  O285  1  0.91748120  0.77541481  0.08124702  1
  O  O286  1  0.91341511  0.77170892  0.41416196  1
  O  O287  1  0.91160863  0.76525208  0.76151953  1
  O  O288  1  0.25202602  0.48803197  0.08328523  1
  O  O289  1  0.24981419  0.47614485  0.42111202  1
  O  O290  1  0.24725851  0.47327426  0.74788837  1
  O  O291  1  0.25531735  0.98184266  0.07410620  1
  O  O292  1  0.24950881  0.98489693  0.42313140  1
  O  O293  1  0.25128639  0.97395392  0.74929409  1
  O  O294  1  0.57870633  0.49254320  0.08728294  1
  O  O295  1  0.57652007  0.48468984  0.41675248  1
  O  O296  1  0.58532950  0.48416645  0.74101877  1
  O  O297  1  0.59155015  0.97432806  0.07883248  1
  O  O298  1  0.59004605  0.97762105  0.40805424  1
  O  O299  1  0.58764286  0.98399923  0.73952316  1
  O  O300  1  0.91781156  0.48337481  0.08087580  1
  O  O301  1  0.91891482  0.47785008  0.42519627  1
  O  O302  1  0.91545036  0.47030091  0.75463398  1
  O  O303  1  0.91900352  0.97043898  0.08123141  1
  O  O304  1  0.91642649  0.97605917  0.41020932  1
  O  O305  1  0.91568938  0.98736188  0.75604961  1
  O  O306  1  0.07357491  0.26083108  0.07702627  1
  O  O307  1  0.08199396  0.26779654  0.41992714  1
  O  O308  1  0.08451506  0.27691924  0.75491387  1
  O  O309  1  0.07673424  0.76198366  0.07659035  1
  O  O310  1  0.08427139  0.75765861  0.41809005  1
  O  O311  1  0.09198867  0.75884924  0.75347362  1
  O  O312  1  0.41779152  0.25787259  0.08967865  1
  O  O313  1  0.41645464  0.27665440  0.41456670  1
  O  O314  1  0.40937775  0.25829436  0.74331114  1
  O  O315  1  0.42528262  0.75832200  0.08694169  1
  O  O316  1  0.42740411  0.76324592  0.42394732  1
  O  O317  1  0.41083453  0.76180172  0.74260753  1
  O  O318  1  0.75491735  0.25548064  0.08944757  1
  O  O319  1  0.75517537  0.26806893  0.42226065  1
  O  O320  1  0.75275795  0.26732524  0.74983282  1
  O  O321  1  0.75556081  0.77515421  0.08290677  1
  O  O322  1  0.75068212  0.77477694  0.41571199  1
  O  O323  1  0.75063734  0.76982023  0.74917206  1
  O  O324  1  0.24798716  0.01129342  0.24976422  1
  O  O325  1  0.25589084  0.01345132  0.59066229  1
  O  O326  1  0.24004465  0.01471505  0.90879039  1
  O  O327  1  0.25667089  0.50621050  0.25808885  1
  O  O328  1  0.25386155  0.52325409  0.58331029  1
  O  O329  1  0.24224840  0.50810751  0.90919966  1
  O  O330  1  0.57411185  0.01447404  0.23979521  1
  O  O331  1  0.58023985  0.00106027  0.57729255  1
  O  O332  1  0.58054367  0.01183515  0.90983509  1
  O  O333  1  0.58103832  0.52494787  0.24772760  1
  O  O334  1  0.57861070  0.51246282  0.57647704  1
  O  O335  1  0.58575001  0.51761710  0.91567993  1
  O  O336  1  0.90110132  0.01161985  0.24031047  1
  O  O337  1  0.91518540  0.00280841  0.58355573  1
  O  O338  1  0.92280176  0.01738040  0.92032197  1
  O  O339  1  0.90752993  0.51662788  0.24747043  1
  O  O340  1  0.92469706  0.51404998  0.59367418  1
  O  O341  1  0.91738738  0.52597491  0.91674515  1
  O  O342  1  0.08385886  0.23278322  0.24233016  1
  O  O343  1  0.07895980  0.23689070  0.59516445  1
  O  O344  1  0.08318007  0.22529448  0.91593391  1
  O  O345  1  0.08039249  0.73809505  0.24751282  1
  O  O346  1  0.09045819  0.72331993  0.58539319  1
  O  O347  1  0.07978076  0.72868378  0.91665575  1
  O  O348  1  0.41538910  0.22671027  0.25222720  1
  O  O349  1  0.41312876  0.23520329  0.58567192  1
  O  O350  1  0.41877705  0.22974812  0.90737514  1
  O  O351  1  0.41735651  0.72706312  0.25429288  1
  O  O352  1  0.41577326  0.72095460  0.58302419  1
  O  O353  1  0.41997906  0.73356255  0.91071244  1
  O  O354  1  0.74396880  0.23446366  0.25373460  1
  O  O355  1  0.74555256  0.24253988  0.58953430  1
  O  O356  1  0.75879965  0.24005272  0.91357755  1
  O  O357  1  0.74387309  0.72536135  0.25221017  1
  O  O358  1  0.75863322  0.73325790  0.57399836  1
  O  O359  1  0.75509517  0.72929612  0.92293887  1
