# generated using pymatgen
data_Ba17Sr5La8Pr42Mn72O216
_symmetry_space_group_name_H-M   'P 1'
_cell_length_a   16.66885693
_cell_length_b   15.70762130
_cell_length_c   16.81487832
_cell_angle_alpha   89.99165313
_cell_angle_beta   89.99745606
_cell_angle_gamma   89.98458505
_symmetry_Int_Tables_number   1
_chemical_formula_structural   Ba17Sr5La8Pr42Mn72O216
_chemical_formula_sum   'Ba17 Sr5 La8 Pr42 Mn72 O216'
_cell_volume   4402.60730043
_cell_formula_units_Z   1
loop_
 _symmetry_equiv_pos_site_id
 _symmetry_equiv_pos_as_xyz
  1  'x, y, z'
loop_
 _atom_site_type_symbol
 _atom_site_label
 _atom_site_symmetry_multiplicity
 _atom_site_fract_x
 _atom_site_fract_y
 _atom_site_fract_z
 _atom_site_occupancy
  Ba  Ba0  1  0.66528384  0.62778635  1.00193640  1
  Ba  Ba1  1  0.66472061  0.37671029  0.33737661  1
  Ba  Ba2  1  0.66594185  0.37363517  0.66976676  1
  Ba  Ba3  1  0.50091477  0.12370567  0.50254398  1
  Ba  Ba4  1  0.16789156  0.87245106  0.49435311  1
  Ba  Ba5  1  0.33357144  0.12487671  0.66275685  1
  Ba  Ba6  1  0.33158933  0.37509785  0.66528344  1
  Ba  Ba7  1  0.83383671  0.87565572  0.16875069  1
  Ba  Ba8  1  -0.00154052  0.62461893  0.66623116  1
  Ba  Ba9  1  0.83522052  0.12575908  0.50460121  1
  Ba  Ba10  1  0.00230088  0.87563957  0.33322322  1
  Ba  Ba11  1  0.83460143  0.62496775  0.16716640  1
  Ba  Ba12  1  0.00134131  0.87638150  0.00115487  1
  Ba  Ba13  1  0.16443858  0.37364546  0.82919582  1
  Ba  Ba14  1  -0.00196248  0.62511939  0.99864845  1
  Ba  Ba15  1  0.49816628  0.37499018  0.50004171  1
  Ba  Ba16  1  0.33210261  0.62491170  0.99832917  1
  Sr  Sr17  1  0.66956978  0.87354341  0.33709759  1
  Sr  Sr18  1  0.66718899  0.87510591  0.00740885  1
  Sr  Sr19  1  0.33629188  0.87429161  0.33301115  1
  Sr  Sr20  1  0.66750499  0.12538006  0.66425398  1
  Sr  Sr21  1  0.16251850  0.37350861  0.16094412  1
  La  La22  1  0.66979580  0.88117529  0.66758592  1
  La  La23  1  0.49735177  0.37812503  0.82787396  1
  La  La24  1  0.50351959  0.87149820  0.83571524  1
  La  La25  1  0.66573185  0.62477649  0.33032740  1
  La  La26  1  0.33599900  0.12302418  0.33300302  1
  La  La27  1  0.16624291  0.62376003  0.16390602  1
  La  La28  1  0.16552832  0.87072881  0.82700550  1
  La  La29  1  0.16963803  0.87536067  0.16264603  1
  Pr  Pr30  1  0.83693127  0.87466449  0.49629800  1
  Pr  Pr31  1  0.67181261  0.11975664  1.00075938  1
  Pr  Pr32  1  -0.00696686  0.37414457  0.00291198  1
  Pr  Pr33  1  0.49264557  0.37570571  0.16650957  1
  Pr  Pr34  1  0.00413645  0.62663660  0.32768847  1
  Pr  Pr35  1  0.00626606  0.12322903  0.33283790  1
  Pr  Pr36  1  0.50205803  0.87812173  0.49767379  1
  Pr  Pr37  1  0.66086703  0.37643663  0.00477080  1
  Pr  Pr38  1  0.49995671  0.62561352  0.49931057  1
  Pr  Pr39  1  0.50256505  0.12806059  0.83377300  1
  Pr  Pr40  1  0.16339289  0.62001173  0.83523262  1
  Pr  Pr41  1  -0.00432824  0.37315358  0.66967009  1
  Pr  Pr42  1  0.82709994  0.37430456  0.16485887  1
  Pr  Pr43  1  0.32768257  0.37633352  0.33698630  1
  Pr  Pr44  1  0.17166308  0.12707911  0.83072393  1
  Pr  Pr45  1  0.50418150  0.12139213  0.17317499  1
  Pr  Pr46  1  0.83936272  0.12186795  0.17469441  1
  Pr  Pr47  1  0.00430039  0.12673151  0.66274801  1
  Pr  Pr48  1  0.66976849  0.12712146  0.33577133  1
  Pr  Pr49  1  0.00219352  0.12461847  0.99884616  1
  Pr  Pr50  1  0.33521903  0.12614868  0.99488632  1
  Pr  Pr51  1  0.33910848  0.87759000  0.66528054  1
  Pr  Pr52  1  0.16978815  0.62697816  0.49505367  1
  Pr  Pr53  1  0.16841661  0.12612397  0.16693693  1
  Pr  Pr54  1  0.83264016  0.12552396  0.83356131  1
  Pr  Pr55  1  0.16840746  0.12167235  0.49889469  1
  Pr  Pr56  1  0.82760971  0.37465381  0.50278383  1
  Pr  Pr57  1  0.83037803  0.62537070  0.50163213  1
  Pr  Pr58  1  0.83141900  0.37838020  0.83351447  1
  Pr  Pr59  1  -0.00171838  0.87850328  0.66860229  1
  Pr  Pr60  1  0.33510402  0.62803462  0.32710101  1
  Pr  Pr61  1  0.50147443  0.62908444  0.16847145  1
  Pr  Pr62  1  0.33642344  0.87526710  0.00255133  1
  Pr  Pr63  1  0.66458773  0.62556126  0.67030867  1
  Pr  Pr64  1  0.83056028  0.62434686  0.84400089  1
  Pr  Pr65  1  0.32542001  0.37568457  0.00005014  1
  Pr  Pr66  1  0.33060755  0.62414970  0.66592797  1
  Pr  Pr67  1  0.49592202  0.62165223  0.83825575  1
  Pr  Pr68  1  0.83243380  0.87288025  0.83749244  1
  Pr  Pr69  1  0.50290759  0.87381055  0.16522581  1
  Pr  Pr70  1  0.16307592  0.37532810  0.49808625  1
  Pr  Pr71  1  -0.00628523  0.37382382  0.33333629  1
  Mn  Mn72  1  0.00370007  0.00191246  0.16590282  1
  Mn  Mn73  1  0.00142194  0.00074892  0.50107292  1
  Mn  Mn74  1  -0.00058238  0.00195954  0.83242823  1
  Mn  Mn75  1  0.00083683  0.49713425  0.16721720  1
  Mn  Mn76  1  -0.00100285  0.49883390  0.49755638  1
  Mn  Mn77  1  -0.00220820  0.49856367  0.83231897  1
  Mn  Mn78  1  0.33480374  0.00056564  0.16383221  1
  Mn  Mn79  1  0.33415712  -0.00271904  0.49766215  1
  Mn  Mn80  1  0.33456895  -0.00110961  0.83346616  1
  Mn  Mn81  1  0.33298627  0.49860119  0.16644588  1
  Mn  Mn82  1  0.33142241  0.50276835  0.49697369  1
  Mn  Mn83  1  0.33174647  0.50066483  0.83228693  1
  Mn  Mn84  1  0.66662986  0.00123404  0.16884977  1
  Mn  Mn85  1  0.66861134  -0.00151567  0.50219608  1
  Mn  Mn86  1  0.66672969  0.00026064  0.83564399  1
  Mn  Mn87  1  0.66441352  0.49924769  0.16945430  1
  Mn  Mn88  1  0.66619007  0.50360185  0.50178223  1
  Mn  Mn89  1  0.66581553  0.50029468  0.83611361  1
  Mn  Mn90  1  -0.00052483  0.25018916  0.16636339  1
  Mn  Mn91  1  0.00138549  0.25287269  0.50013595  1
  Mn  Mn92  1  -0.00241205  0.24715207  0.83302509  1
  Mn  Mn93  1  0.00288033  0.74950135  0.16587409  1
  Mn  Mn94  1  -0.00066597  0.74640792  0.49922569  1
  Mn  Mn95  1  -0.00134884  0.75178624  0.83146619  1
  Mn  Mn96  1  0.33459349  0.24977594  0.16458042  1
  Mn  Mn97  1  0.33096653  0.25171101  0.49740839  1
  Mn  Mn98  1  0.33510047  0.24737496  0.83275077  1
  Mn  Mn99  1  0.33342893  0.75155497  0.16502784  1
  Mn  Mn100  1  0.33566027  0.74810646  0.49822409  1
  Mn  Mn101  1  0.33337384  0.75338140  0.83073944  1
  Mn  Mn102  1  0.66494931  0.24994741  0.16651961  1
  Mn  Mn103  1  0.66653939  0.24954539  0.50177245  1
  Mn  Mn104  1  0.66619059  0.24624325  0.83809543  1
  Mn  Mn105  1  0.66624489  0.75077073  0.16981703  1
  Mn  Mn106  1  0.66711550  0.74853229  0.50258029  1
  Mn  Mn107  1  0.66739633  0.75395315  0.83335232  1
  Mn  Mn108  1  0.16581721  0.24928575  -0.00105783  1
  Mn  Mn109  1  0.16753125  0.25224454  0.33074001  1
  Mn  Mn110  1  0.16482383  0.24911275  0.66301339  1
  Mn  Mn111  1  0.16775376  0.75066716  -0.00459229  1
  Mn  Mn112  1  0.16907487  0.74864071  0.32932044  1
  Mn  Mn113  1  0.16629678  0.74997166  0.66378526  1
  Mn  Mn114  1  0.49962437  0.24925228  0.00161009  1
  Mn  Mn115  1  0.49901696  0.24814472  0.33165704  1
  Mn  Mn116  1  0.50070020  0.24976655  0.66799218  1
  Mn  Mn117  1  0.49983011  0.75083274  -0.00025901  1
  Mn  Mn118  1  0.50057872  0.75265535  0.33504690  1
  Mn  Mn119  1  0.50080876  0.74942948  0.66673611  1
  Mn  Mn120  1  0.83083791  0.24791346  0.00217059  1
  Mn  Mn121  1  0.83425956  0.24931181  0.33459314  1
  Mn  Mn122  1  0.83342747  0.25050853  0.67034216  1
  Mn  Mn123  1  0.83230648  0.75204163  0.00148039  1
  Mn  Mn124  1  0.83519606  0.74966851  0.33734910  1
  Mn  Mn125  1  0.83217336  0.75036275  0.66823639  1
  Mn  Mn126  1  0.16930877  0.00285985  -0.00339209  1
  Mn  Mn127  1  0.17014060  0.00216540  0.33048818  1
  Mn  Mn128  1  0.16625894  -0.00219992  0.66405481  1
  Mn  Mn129  1  0.16374224  0.49740323  -0.00099755  1
  Mn  Mn130  1  0.16686250  0.49718940  0.33021343  1
  Mn  Mn131  1  0.16499346  0.50293637  0.66294668  1
  Mn  Mn132  1  0.50008991  0.00235264  0.00282705  1
  Mn  Mn133  1  0.50182804  -0.00160433  0.33424876  1
  Mn  Mn134  1  0.50180697  -0.00302837  0.66829257  1
  Mn  Mn135  1  0.49787752  0.49712502  -0.00039160  1
  Mn  Mn136  1  0.49691611  0.50193711  0.33216170  1
  Mn  Mn137  1  0.49954170  0.50417377  0.66805640  1
  Mn  Mn138  1  0.83354395  0.00313718  0.00272400  1
  Mn  Mn139  1  0.83373296  0.00033564  0.33688797  1
  Mn  Mn140  1  0.83452737  -0.00171784  0.66906348  1
  Mn  Mn141  1  0.83052913  0.49703828  0.00008454  1
  Mn  Mn142  1  0.83595755  0.49900981  0.33682304  1
  Mn  Mn143  1  0.83215249  0.50260653  0.66940087  1
  O  O144  1  0.16902130  0.12720349  0.02347823  1
  O  O145  1  0.16607415  0.13129734  0.35498829  1
  O  O146  1  0.16063518  0.12183660  0.68619117  1
  O  O147  1  0.16572743  0.61947216  0.01832321  1
  O  O148  1  0.16593080  0.61707672  0.35035051  1
  O  O149  1  0.17247312  0.63045713  0.69120443  1
  O  O150  1  0.49000404  0.12706501  0.03155041  1
  O  O151  1  0.49282343  0.12138495  0.34435028  1
  O  O152  1  0.50258354  0.11911261  0.68855007  1
  O  O153  1  0.49646078  0.62124459  0.02380777  1
  O  O154  1  0.49081807  0.62976315  0.35331361  1
  O  O155  1  0.49983291  0.63030346  0.69605460  1
  O  O156  1  0.82954589  0.12891561  0.03056537  1
  O  O157  1  0.83188002  0.12619728  0.34704405  1
  O  O158  1  0.84033758  0.12394898  0.68984296  1
  O  O159  1  0.83260437  0.62174808  0.00423618  1
  O  O160  1  0.84286624  0.62325090  0.35699866  1
  O  O161  1  0.82828867  0.62856361  0.69876521  1
  O  O162  1  0.17486864  0.37489758  0.30793556  1
  O  O163  1  0.15817941  0.37526644  0.64365139  1
  O  O164  1  0.16889072  0.37205165  0.98553684  1
  O  O165  1  0.17117046  0.87677482  0.30774955  1
  O  O166  1  0.15673676  0.87343619  0.65088243  1
  O  O167  1  0.17346391  0.88178922  0.97241757  1
  O  O168  1  0.49323388  0.37471777  0.31149248  1
  O  O169  1  0.50084018  0.38182092  0.66167504  1
  O  O170  1  0.50875495  0.36982294  0.97163617  1
  O  O171  1  0.50263384  0.87550136  0.30919076  1
  O  O172  1  0.50027561  0.86867648  0.64136678  1
  O  O173  1  0.49989986  0.88000517  0.97943123  1
  O  O174  1  0.83866804  0.37158464  0.30797101  1
  O  O175  1  0.83805230  0.37757138  0.64746961  1
  O  O176  1  0.83310877  0.36845986  0.97679099  1
  O  O177  1  0.83083973  0.87660387  0.32652594  1
  O  O178  1  0.83368123  0.87168998  0.64080593  1
  O  O179  1  0.83048726  0.88185886  0.98326827  1
  O  O180  1  -0.00269813  0.37124517  0.18936248  1
  O  O181  1  0.01078803  0.37598467  0.52695832  1
  O  O182  1  -0.00456697  0.36884320  0.85882292  1
  O  O183  1  0.01191330  0.87755674  0.17568573  1
  O  O184  1  -0.00323444  0.87211256  0.52294177  1
  O  O185  1  0.00704005  0.87952582  0.84583610  1
  O  O186  1  0.33946276  0.37303028  0.19351886  1
  O  O187  1  0.32668278  0.37998269  0.50711940  1
  O  O188  1  0.33954624  0.36975048  0.85414128  1
  O  O189  1  0.32747137  0.87656759  0.18463572  1
  O  O190  1  0.33734902  0.86765686  0.52139558  1
  O  O191  1  0.32938517  0.87767731  0.85954479  1
  O  O192  1  0.66810523  0.37359906  0.18225006  1
  O  O193  1  0.67183158  0.38095063  0.51166016  1
  O  O194  1  0.66552953  0.36737930  0.86042921  1
  O  O195  1  0.65784290  0.87598347  0.18613777  1
  O  O196  1  0.66661572  0.86965991  0.52386047  1
  O  O197  1  0.66419393  0.87894906  0.85789548  1
  O  O198  1  0.00080559  0.12874998  0.14398058  1
  O  O199  1  0.00326558  0.13182447  0.47623142  1
  O  O200  1  -0.01127367  0.12440157  0.80515773  1
  O  O201  1  0.00732383  0.62179020  0.15749170  1
  O  O202  1  -0.01122460  0.61870819  0.47224012  1
  O  O203  1  -0.00770754  0.62591711  0.82311970  1
  O  O204  1  0.33774909  0.12495797  0.13762980  1
  O  O205  1  0.32528547  0.12755744  0.47889705  1
  O  O206  1  0.33821834  0.12152772  0.81878206  1
  O  O207  1  0.33583498  0.62529415  0.15349751  1
  O  O208  1  0.33568683  0.62550867  0.47165582  1
  O  O209  1  0.34058836  0.63266952  0.81114793  1
  O  O210  1  0.65842826  0.12889891  0.14219701  1
  O  O211  1  0.66782487  0.12188446  0.48213659  1
  O  O212  1  0.66601148  0.12138176  0.81317399  1
  O  O213  1  0.65947187  0.62333496  0.15947180  1
  O  O214  1  0.66994679  0.62709203  0.47641825  1
  O  O215  1  0.67551898  0.63214809  0.81384491  1
  O  O216  1  0.08661139  0.02620854  0.24891341  1
  O  O217  1  0.08421021  0.02245747  0.58108823  1
  O  O218  1  0.08392004  0.02798214  0.91468700  1
  O  O219  1  0.09519479  0.51496316  0.24336557  1
  O  O220  1  0.09177520  0.51967968  0.56584980  1
  O  O221  1  0.08496555  0.51215377  0.90838774  1
  O  O222  1  0.41717311  0.01632049  0.24549643  1
  O  O223  1  0.41688956  -0.00016641  0.58546277  1
  O  O224  1  0.41815243  0.01974143  0.92176769  1
  O  O225  1  0.42390321  0.51942148  0.24027159  1
  O  O226  1  0.41799974  0.52515559  0.58066453  1
  O  O227  1  0.41955702  0.51005658  0.91258097  1
  O  O228  1  0.75030954  0.02330516  0.24845384  1
  O  O229  1  0.75087027  0.00668282  0.58885517  1
  O  O230  1  0.75391328  0.02323832  0.91630903  1
  O  O231  1  0.75089970  0.51318368  0.25968902  1
  O  O232  1  0.74775142  0.52575875  0.59151424  1
  O  O233  1  0.74888860  0.50644364  0.91706923  1
  O  O234  1  0.25680453  0.22486663  0.25012065  1
  O  O235  1  0.24235568  0.24007745  0.57453150  1
  O  O236  1  0.25405523  0.22951273  0.91716942  1
  O  O237  1  0.24747648  0.72914499  0.24153614  1
  O  O238  1  0.25131293  0.72621169  0.57839558  1
  O  O239  1  0.24248864  0.73388431  0.90189381  1
  O  O240  1  0.58656892  0.22712366  0.25260273  1
  O  O241  1  0.58546968  0.24045736  0.59021579  1
  O  O242  1  0.58628873  0.22030110  0.92669033  1
  O  O243  1  0.57912729  0.72998509  0.25210190  1
  O  O244  1  0.58034864  0.72350008  0.58191730  1
  O  O245  1  0.57660578  0.73618233  0.90593035  1
  O  O246  1  0.92326647  0.22754711  0.25482347  1
  O  O247  1  0.92846935  0.24124526  0.59496089  1
  O  O248  1  0.91788887  0.22497104  0.92411945  1
  O  O249  1  0.92305328  0.73716287  0.25694756  1
  O  O250  1  0.90659600  0.73273333  0.57948948  1
  O  O251  1  0.90942699  0.74646632  0.90617248  1
  O  O252  1  0.07563513  0.47790596  0.07571613  1
  O  O253  1  0.07801424  0.47797108  0.40153952  1
  O  O254  1  0.07574966  0.48795575  0.74260851  1
  O  O255  1  0.09536767  0.99314748  0.08676279  1
  O  O256  1  0.08557367  0.99885393  0.41540588  1
  O  O257  1  0.08132076  0.98599222  0.74633721  1
  O  O258  1  0.41267670  0.47097655  0.07681053  1
  O  O259  1  0.40304684  0.48964877  0.40212564  1
  O  O260  1  0.41895878  0.49335436  0.75208834  1
  O  O261  1  0.41752745  0.97441292  0.08441913  1
  O  O262  1  0.42091063  0.98040070  0.41734875  1
  O  O263  1  0.41884074  0.97366022  0.75215186  1
  O  O264  1  0.74783443  0.47838186  0.08319969  1
  O  O265  1  0.75933752  0.49112312  0.42668861  1
  O  O266  1  0.75582776  0.48555622  0.75850317  1
  O  O267  1  0.74357251  0.99419667  0.08230827  1
  O  O268  1  0.74966898  0.98345798  0.42095428  1
  O  O269  1  0.75304158  0.97910883  0.75217926  1
  O  O270  1  0.25177699  0.26693539  0.08553722  1
  O  O271  1  0.24475435  0.27177817  0.41522636  1
  O  O272  1  0.24383897  0.25157526  0.75082450  1
  O  O273  1  0.25490626  0.77107332  0.07595244  1
  O  O274  1  0.25753877  0.75422809  0.40517870  1
  O  O275  1  0.25676724  0.77413920  0.74328897  1
  O  O276  1  0.57683803  0.27350995  0.08842824  1
  O  O277  1  0.58094872  0.25213700  0.41368114  1
  O  O278  1  0.57777459  0.25881865  0.76658969  1
  O  O279  1  0.57801136  0.76426361  0.08882548  1
  O  O280  1  0.58542761  0.76465383  0.41954469  1
  O  O281  1  0.58922039  0.77115580  0.74481056  1
  O  O282  1  0.90817246  0.27189352  0.08878896  1
  O  O283  1  0.91655791  0.27617151  0.42457525  1
  O  O284  1  0.91170994  0.27374065  0.75739974  1
  O  O285  1  0.92016827  0.75648097  0.08496561  1
  O  O286  1  0.91488454  0.76594691  0.42221877  1
  O  O287  1  0.91755579  0.77628051  0.74641088  1
  O  O288  1  0.24809730  0.48245057  0.08697172  1
  O  O289  1  0.23644305  0.48343104  0.42065242  1
  O  O290  1  0.24941543  0.49867889  0.74993179  1
  O  O291  1  0.25629723  0.98230453  0.07548041  1
  O  O292  1  0.25716884  0.99329284  0.40495508  1
  O  O293  1  0.24898816  0.97845962  0.74555513  1
  O  O294  1  0.57613206  0.47758720  0.08433160  1
  O  O295  1  0.57553949  0.50206978  0.41781752  1
  O  O296  1  0.58269578  0.49649905  0.75617870  1
  O  O297  1  0.57664918  0.98684221  0.09177875  1
  O  O298  1  0.58376734  0.98095565  0.42156399  1
  O  O299  1  0.58097943  0.97674254  0.75417617  1
  O  O300  1  0.91076950  0.47526299  0.08489998  1
  O  O301  1  0.91551449  0.46760842  0.42025438  1
  O  O302  1  0.91632891  0.47696807  0.74988503  1
  O  O303  1  0.91819994  0.99946282  0.08462571  1
  O  O304  1  0.91523067  0.98756603  0.42642651  1
  O  O305  1  0.91305201  0.97459525  0.75478577  1
  O  O306  1  0.07111532  0.26399367  0.07349161  1
  O  O307  1  0.07976018  0.27452723  0.41152205  1
  O  O308  1  0.07220038  0.25980773  0.73722475  1
  O  O309  1  0.09512927  0.76067513  0.08831125  1
  O  O310  1  0.08522448  0.74782362  0.41236641  1
  O  O311  1  0.08200209  0.76582789  0.74873458  1
  O  O312  1  0.41265802  0.27931323  0.07639268  1
  O  O313  1  0.40491677  0.26011209  0.40166601  1
  O  O314  1  0.42067926  0.26029743  0.75587684  1
  O  O315  1  0.41747334  0.77272647  0.08662725  1
  O  O316  1  0.42536775  0.76953225  0.42341448  1
  O  O317  1  0.41874263  0.77701682  0.75044573  1
  O  O318  1  0.74328898  0.27213118  0.07891267  1
  O  O319  1  0.75285483  0.26268313  0.41881329  1
  O  O320  1  0.75432588  0.26064424  0.76158920  1
  O  O321  1  0.74684417  0.76015987  0.08654680  1
  O  O322  1  0.75719968  0.76160847  0.43013965  1
  O  O323  1  0.75213331  0.77896620  0.75239088  1
  O  O324  1  0.24947509  0.02513350  0.24053248  1
  O  O325  1  0.24527224  0.00966041  0.57653107  1
  O  O326  1  0.24865771  0.02685124  0.91373024  1
  O  O327  1  0.25813323  0.51655103  0.26020748  1
  O  O328  1  0.25286846  0.52554621  0.58193313  1
  O  O329  1  0.24686102  0.51158060  0.91357054  1
  O  O330  1  0.58810009  0.02347132  0.25540123  1
  O  O331  1  0.58801476  0.00380659  0.59008794  1
  O  O332  1  0.58163139  0.02622642  0.92338398  1
  O  O333  1  0.58057475  0.52025484  0.25330908  1
  O  O334  1  0.58201465  0.52738774  0.58662719  1
  O  O335  1  0.57766365  0.51531518  0.91498285  1
  O  O336  1  0.92153223  0.02027830  0.25351696  1
  O  O337  1  0.92699873  0.01088458  0.59622527  1
  O  O338  1  0.91667508  0.02451113  0.91813861  1
  O  O339  1  0.92765534  0.51022473  0.26109908  1
  O  O340  1  0.90799060  0.51279998  0.57974553  1
  O  O341  1  0.90959525  0.50407338  0.91158161  1
  O  O342  1  0.08822826  0.22899253  0.24625487  1
  O  O343  1  0.08749174  0.22584988  0.57562773  1
  O  O344  1  0.08401596  0.22184170  0.90749403  1
  O  O345  1  0.08699836  0.73005567  0.24818406  1
  O  O346  1  0.08588014  0.72822247  0.57393585  1
  O  O347  1  0.08605239  0.73773570  0.90883894  1
  O  O348  1  0.42421277  0.23103538  0.23825945  1
  O  O349  1  0.41340725  0.24532861  0.57819900  1
  O  O350  1  0.42113020  0.22680594  0.91744631  1
  O  O351  1  0.41528087  0.73518237  0.25017901  1
  O  O352  1  0.41502176  0.72528364  0.58775718  1
  O  O353  1  0.41732932  0.74199967  0.91260797  1
  O  O354  1  0.75245359  0.22915755  0.24264499  1
  O  O355  1  0.75481193  0.24355134  0.58816241  1
  O  O356  1  0.75124808  0.22155412  0.91925679  1
  O  O357  1  0.74533396  0.73563698  0.26334027  1
  O  O358  1  0.74393006  0.72640784  0.59220453  1
  O  O359  1  0.75185221  0.74269072  0.91099208  1
