# generated using pymatgen
data_Ba17Sr5La8Pr42Mn72O216
_symmetry_space_group_name_H-M   'P 1'
_cell_length_a   16.69179153
_cell_length_b   15.72033015
_cell_length_c   16.82860310
_cell_angle_alpha   89.99990428
_cell_angle_beta   90.00377956
_cell_angle_gamma   89.98580224
_symmetry_Int_Tables_number   1
_chemical_formula_structural   Ba17Sr5La8Pr42Mn72O216
_chemical_formula_sum   'Ba17 Sr5 La8 Pr42 Mn72 O216'
_cell_volume   4415.83327695
_cell_formula_units_Z   1
loop_
 _symmetry_equiv_pos_site_id
 _symmetry_equiv_pos_as_xyz
  1  'x, y, z'
loop_
 _atom_site_type_symbol
 _atom_site_label
 _atom_site_symmetry_multiplicity
 _atom_site_fract_x
 _atom_site_fract_y
 _atom_site_fract_z
 _atom_site_occupancy
  Ba  Ba0  1  0.83842560  0.87444940  0.49997926  1
  Ba  Ba1  1  0.16524097  0.62322569  0.83450777  1
  Ba  Ba2  1  0.66241775  0.12567499  0.33376346  1
  Ba  Ba3  1  0.16482222  0.87653769  0.16830715  1
  Ba  Ba4  1  0.32992797  0.62340258  0.33480248  1
  Ba  Ba5  1  0.33082069  0.62654502  0.99856836  1
  Ba  Ba6  1  0.49886559  0.12500085  0.50037733  1
  Ba  Ba7  1  -0.00302771  0.62529548  0.99812934  1
  Ba  Ba8  1  0.66524521  0.12552710  0.66548284  1
  Ba  Ba9  1  0.83035033  0.12604804  0.83356052  1
  Ba  Ba10  1  0.32971395  0.12589658  1.00041858  1
  Ba  Ba11  1  0.66460958  0.62428473  0.33436946  1
  Ba  Ba12  1  0.49824657  0.62346618  0.83017525  1
  Ba  Ba13  1  0.16332983  0.62582592  0.16741134  1
  Ba  Ba14  1  0.50383206  0.37519910  0.83328287  1
  Ba  Ba15  1  0.66976057  0.87492487  0.00011967  1
  Ba  Ba16  1  0.33265173  0.87608875  0.00234607  1
  Sr  Sr17  1  0.65774491  0.62441668  0.66370511  1
  Sr  Sr18  1  0.32604669  0.62278931  0.66661923  1
  Sr  Sr19  1  0.84032043  0.37444271  0.49974340  1
  Sr  Sr20  1  -0.00868470  0.12390229  0.33361473  1
  Sr  Sr21  1  0.17384963  0.37550479  0.83283982  1
  La  La22  1  0.50292225  0.87273962  0.16471333  1
  La  La23  1  0.32997285  0.12864111  0.66367428  1
  La  La24  1  0.17526522  0.37285892  0.49967076  1
  La  La25  1  0.34006834  0.87210206  0.33316494  1
  La  La26  1  0.49724524  0.12566717  0.83399767  1
  La  La27  1  0.67206453  0.87557585  0.67062907  1
  La  La28  1  0.82762044  0.62483406  0.16662853  1
  La  La29  1  0.50167313  0.87345594  0.83670626  1
  Pr  Pr30  1  0.16012489  0.12725913  0.83546214  1
  Pr  Pr31  1  0.33817277  0.38235409  -0.00431829  1
  Pr  Pr32  1  0.01209268  0.87797264  0.66836810  1
  Pr  Pr33  1  0.67682613  0.37469427  0.66959464  1
  Pr  Pr34  1  0.34570738  0.37752123  0.33495964  1
  Pr  Pr35  1  0.17612381  0.87688566  0.49601192  1
  Pr  Pr36  1  0.17600378  0.37396620  0.16380668  1
  Pr  Pr37  1  0.32592520  0.12733294  0.32860403  1
  Pr  Pr38  1  0.00873876  0.37284490  -0.00059670  1
  Pr  Pr39  1  0.51099899  0.87328616  0.49695682  1
  Pr  Pr40  1  0.49040967  0.62709000  0.16702401  1
  Pr  Pr41  1  0.48460978  0.62446760  0.50797029  1
  Pr  Pr42  1  0.00997412  0.37294021  0.33817719  1
  Pr  Pr43  1  0.00957236  0.87584804  0.33816461  1
  Pr  Pr44  1  0.15663056  0.62521129  0.50546970  1
  Pr  Pr45  1  0.49061394  0.12243703  0.17030430  1
  Pr  Pr46  1  -0.00898643  0.12660693  0.66340544  1
  Pr  Pr47  1  0.00146873  0.87622617  -0.00107895  1
  Pr  Pr48  1  0.15472216  0.12206509  0.16897473  1
  Pr  Pr49  1  0.17697604  0.87377839  0.83453784  1
  Pr  Pr50  1  0.67676670  0.87549690  0.33356426  1
  Pr  Pr51  1  0.67761078  0.37640071  -0.00098459  1
  Pr  Pr52  1  0.65929211  0.62486319  0.99787717  1
  Pr  Pr53  1  0.34295808  0.37660399  0.66997521  1
  Pr  Pr54  1  0.34333097  0.87396354  0.66905511  1
  Pr  Pr55  1  0.84204591  0.87424866  0.82632053  1
  Pr  Pr56  1  -0.00420856  0.12421383  0.99978597  1
  Pr  Pr57  1  0.83765727  0.87525100  0.16767880  1
  Pr  Pr58  1  0.50872029  0.37678298  0.16343690  1
  Pr  Pr59  1  0.82185148  0.62392456  0.50341520  1
  Pr  Pr60  1  0.51126306  0.37599112  0.49927686  1
  Pr  Pr61  1  0.67939488  0.37447580  0.33664385  1
  Pr  Pr62  1  0.01152518  0.37269135  0.67012348  1
  Pr  Pr63  1  0.82696211  0.12684212  0.50435015  1
  Pr  Pr64  1  -0.00703919  0.62319028  0.66583632  1
  Pr  Pr65  1  -0.00589655  0.62502727  0.33015445  1
  Pr  Pr66  1  0.82537566  0.62476995  0.83647310  1
  Pr  Pr67  1  0.84128675  0.37449495  0.16828345  1
  Pr  Pr68  1  0.82188138  0.12476926  0.16926387  1
  Pr  Pr69  1  0.15713776  0.12519658  0.50130324  1
  Pr  Pr70  1  0.84198386  0.37570955  0.82835527  1
  Pr  Pr71  1  0.65698056  0.12600801  0.99707306  1
  Mn  Mn72  1  -0.00535700  0.00110344  0.16730384  1
  Mn  Mn73  1  0.00163129  0.00164473  0.50077107  1
  Mn  Mn74  1  0.00170066  0.00151932  0.83274324  1
  Mn  Mn75  1  -0.00088968  0.49765396  0.16895607  1
  Mn  Mn76  1  0.00005501  0.49846659  0.49951364  1
  Mn  Mn77  1  0.00034033  0.49842637  0.83175085  1
  Mn  Mn78  1  0.33096146  0.00162979  0.16896366  1
  Mn  Mn79  1  0.33380538  0.00068286  0.49966171  1
  Mn  Mn80  1  0.33355905  0.00048802  0.83020196  1
  Mn  Mn81  1  0.33349904  0.49769987  0.16901263  1
  Mn  Mn82  1  0.33091961  0.49759505  0.50122341  1
  Mn  Mn83  1  0.33365863  0.49899512  0.83177137  1
  Mn  Mn84  1  0.66462905  0.00008023  0.16622684  1
  Mn  Mn85  1  0.66830773  -0.00174776  0.49976948  1
  Mn  Mn86  1  0.66720598  0.00020008  0.83426412  1
  Mn  Mn87  1  0.66727392  0.49823152  0.16680229  1
  Mn  Mn88  1  0.66701667  0.49989356  0.50125320  1
  Mn  Mn89  1  0.66962785  0.49969645  0.83308451  1
  Mn  Mn90  1  -0.00189086  0.25013756  0.16896641  1
  Mn  Mn91  1  0.00091966  0.25061318  0.50012891  1
  Mn  Mn92  1  0.00121251  0.24944661  0.83375483  1
  Mn  Mn93  1  -0.00324618  0.75046303  0.16708171  1
  Mn  Mn94  1  0.00073062  0.74889916  0.50041830  1
  Mn  Mn95  1  0.00046109  0.75187872  0.83073893  1
  Mn  Mn96  1  0.33306529  0.25120553  0.16734833  1
  Mn  Mn97  1  0.33368928  0.25015056  0.49783338  1
  Mn  Mn98  1  0.33300129  0.24928157  0.83116095  1
  Mn  Mn99  1  0.33125166  0.75010296  0.16880610  1
  Mn  Mn100  1  0.33119461  0.75136197  0.50259688  1
  Mn  Mn101  1  0.33417949  0.75071194  0.83203931  1
  Mn  Mn102  1  0.66569394  0.25249986  0.16525380  1
  Mn  Mn103  1  0.66934057  0.25298624  0.50023238  1
  Mn  Mn104  1  0.66769569  0.25055951  0.83450098  1
  Mn  Mn105  1  0.66633014  0.74873558  0.16708839  1
  Mn  Mn106  1  0.66581776  0.74865366  0.50084661  1
  Mn  Mn107  1  0.66874777  0.74919601  0.83306088  1
  Mn  Mn108  1  0.16688412  0.25033186  0.00058695  1
  Mn  Mn109  1  0.16645143  0.24914371  0.33162943  1
  Mn  Mn110  1  0.16806743  0.24880979  0.66660645  1
  Mn  Mn111  1  0.16372359  0.75125329  -0.00048582  1
  Mn  Mn112  1  0.16631738  0.75009337  0.33754798  1
  Mn  Mn113  1  0.16587644  0.75112597  0.66520807  1
  Mn  Mn114  1  0.49962156  0.25083619  0.00175228  1
  Mn  Mn115  1  0.49958408  0.25167416  0.33187140  1
  Mn  Mn116  1  0.50119376  0.25075540  0.66581771  1
  Mn  Mn117  1  0.50055730  0.75017256  0.00023521  1
  Mn  Mn118  1  0.50114796  0.74922739  0.33365712  1
  Mn  Mn119  1  0.49939833  0.75045395  0.66408508  1
  Mn  Mn120  1  0.83422844  0.25105293  0.00187013  1
  Mn  Mn121  1  0.83531415  0.24953789  0.33383906  1
  Mn  Mn122  1  0.83545836  0.25240533  0.66444165  1
  Mn  Mn123  1  0.83255015  0.75133068  -0.00092211  1
  Mn  Mn124  1  0.83532109  0.74972730  0.33352418  1
  Mn  Mn125  1  0.83485578  0.74823297  0.66683547  1
  Mn  Mn126  1  0.16328395  0.00334310  0.00005246  1
  Mn  Mn127  1  0.16673973  0.00274429  0.33550700  1
  Mn  Mn128  1  0.16838386  0.00094496  0.66614297  1
  Mn  Mn129  1  0.16610521  0.49683549  -0.00074990  1
  Mn  Mn130  1  0.16601252  0.49723536  0.33490043  1
  Mn  Mn131  1  0.16589994  0.49972424  0.66577640  1
  Mn  Mn132  1  0.49949244  0.00118927  0.00144758  1
  Mn  Mn133  1  0.49825265  -0.00105826  0.33328171  1
  Mn  Mn134  1  0.50025786  -0.00181462  0.66632724  1
  Mn  Mn135  1  0.50166881  0.49724253  0.00062632  1
  Mn  Mn136  1  0.50285277  0.49958185  0.33326083  1
  Mn  Mn137  1  0.49942623  0.50007003  0.66385346  1
  Mn  Mn138  1  0.83278711  -0.00003792  0.00071318  1
  Mn  Mn139  1  0.83452716  0.00135288  0.33340678  1
  Mn  Mn140  1  0.83494202  -0.00051466  0.66492505  1
  Mn  Mn141  1  0.83442213  0.49789935  -0.00027174  1
  Mn  Mn142  1  0.83624979  0.49863326  0.33459250  1
  Mn  Mn143  1  0.83504424  0.50039206  0.66594330  1
  O  O144  1  0.15884901  0.12898236  0.02403188  1
  O  O145  1  0.17433796  0.12680909  0.35811494  1
  O  O146  1  0.17529637  0.12392473  0.69273692  1
  O  O147  1  0.16397005  0.61803653  0.00759415  1
  O  O148  1  0.16092851  0.62302611  0.35950126  1
  O  O149  1  0.16289832  0.62552360  0.67670783  1
  O  O150  1  0.50666197  0.12807551  0.02445459  1
  O  O151  1  0.49198559  0.12739373  0.34372171  1
  O  O152  1  0.49701736  0.12213186  0.68719575  1
  O  O153  1  0.50798839  0.61919389  0.02128506  1
  O  O154  1  0.50054174  0.62391963  0.36142925  1
  O  O155  1  0.50013708  0.62527694  0.67099801  1
  O  O156  1  0.84251834  0.12698375  0.02841280  1
  O  O157  1  0.83491410  0.12611530  0.35851040  1
  O  O158  1  0.84051856  0.12629283  0.67529851  1
  O  O159  1  0.83304764  0.61972957  0.02536564  1
  O  O160  1  0.84409447  0.62305340  0.35786000  1
  O  O161  1  0.84426103  0.62365129  0.69245635  1
  O  O162  1  0.15737067  0.36984807  0.30863496  1
  O  O163  1  0.15936268  0.37278722  0.64256740  1
  O  O164  1  0.16000178  0.37031586  0.98427962  1
  O  O165  1  0.15804196  0.87950345  0.32741269  1
  O  O166  1  0.15978156  0.87804919  0.63868609  1
  O  O167  1  0.15665292  0.88337731  0.98067372  1
  O  O168  1  0.49803347  0.37416108  0.30897258  1
  O  O169  1  0.49216045  0.37602226  0.64479487  1
  O  O170  1  0.49081201  0.37251562  0.99100588  1
  O  O171  1  0.49428949  0.87521233  0.30938793  1
  O  O172  1  0.49375842  0.87443050  0.64180459  1
  O  O173  1  0.50126300  0.87981113  0.98542074  1
  O  O174  1  0.83379261  0.37385783  0.31332951  1
  O  O175  1  0.83051872  0.37750209  0.64931197  1
  O  O176  1  0.82772435  0.37503924  0.97183078  1
  O  O177  1  0.83265112  0.87673517  0.31343451  1
  O  O178  1  0.83068627  0.87314910  0.65732522  1
  O  O179  1  0.83625138  0.87966606  0.97019644  1
  O  O180  1  -0.00794942  0.37253148  0.19647714  1
  O  O181  1  0.00090227  0.37455727  0.52688853  1
  O  O182  1  -0.00763553  0.37138701  0.85306825  1
  O  O183  1  -0.01155991  0.87828857  0.19537186  1
  O  O184  1  0.00712586  0.87851455  0.52389555  1
  O  O185  1  -0.00857272  0.88012919  0.85305865  1
  O  O186  1  0.32883137  0.37296774  0.19096804  1
  O  O187  1  0.32495415  0.37249679  0.52642802  1
  O  O188  1  0.33240942  0.37012524  0.84839747  1
  O  O189  1  0.33749463  0.87881563  0.18634729  1
  O  O190  1  0.32583658  0.87770736  0.52597228  1
  O  O191  1  0.33096963  0.87854084  0.84253603  1
  O  O192  1  0.65761148  0.37579641  0.19380310  1
  O  O193  1  0.66506615  0.37808219  0.52370071  1
  O  O194  1  0.67750272  0.37581022  0.85451924  1
  O  O195  1  0.65660391  0.87277516  0.18952092  1
  O  O196  1  0.66397028  0.86970195  0.52201366  1
  O  O197  1  0.67015717  0.87451206  0.84213062  1
  O  O198  1  0.00061738  0.12710233  0.14273871  1
  O  O199  1  0.00574500  0.12668056  0.48264137  1
  O  O200  1  0.00797862  0.12421704  0.80674772  1
  O  O201  1  -0.00539680  0.62208554  0.15686177  1
  O  O202  1  0.00979557  0.62063428  0.47387640  1
  O  O203  1  -0.00298141  0.62523226  0.80988002  1
  O  O204  1  0.34320893  0.12729946  0.15846496  1
  O  O205  1  0.33228812  0.12518447  0.47257544  1
  O  O206  1  0.33451999  0.12267462  0.80830494  1
  O  O207  1  0.34014820  0.62066682  0.15858235  1
  O  O208  1  0.33482729  0.62422656  0.49058375  1
  O  O209  1  0.33137073  0.62864950  0.81896689  1
  O  O210  1  0.67418938  0.13026529  0.14185115  1
  O  O211  1  0.67540817  0.12870734  0.49078473  1
  O  O212  1  0.65932485  0.12582345  0.82167643  1
  O  O213  1  0.67668709  0.62028428  0.14201947  1
  O  O214  1  0.67067780  0.62411551  0.49133643  1
  O  O215  1  0.67428983  0.62270807  0.81460533  1
  O  O216  1  0.07640220  0.01763534  0.25235456  1
  O  O217  1  0.07671228  0.02408506  0.59588732  1
  O  O218  1  0.07897594  0.02554466  0.91852380  1
  O  O219  1  0.07085776  0.51047340  0.26674899  1
  O  O220  1  0.07176318  0.51761482  0.59096943  1
  O  O221  1  0.07316108  0.49957567  0.92132376  1
  O  O222  1  0.40527229  0.01451634  0.26292833  1
  O  O223  1  0.40306960  0.01399148  0.59459822  1
  O  O224  1  0.41878302  0.01464199  0.91430104  1
  O  O225  1  0.41558149  0.50786284  0.25480146  1
  O  O226  1  0.40621894  0.51150523  0.58700252  1
  O  O227  1  0.41494591  0.50347589  0.92295091  1
  O  O228  1  0.74420966  0.00982547  0.25045529  1
  O  O229  1  0.75366781  0.00966538  0.58236135  1
  O  O230  1  0.74389331  0.02111912  0.92943375  1
  O  O231  1  0.74699181  0.50754151  0.25226000  1
  O  O232  1  0.74570996  0.51610873  0.59316987  1
  O  O233  1  0.74507797  0.52074025  0.92676866  1
  O  O234  1  0.23786756  0.22982393  0.23448038  1
  O  O235  1  0.24031221  0.22940096  0.56915434  1
  O  O236  1  0.24031405  0.23377820  0.90182583  1
  O  O237  1  0.24579570  0.74754490  0.25416703  1
  O  O238  1  0.23338057  0.73749219  0.57099329  1
  O  O239  1  0.24360113  0.75202671  0.90932878  1
  O  O240  1  0.56922606  0.23593112  0.23253101  1
  O  O241  1  0.57748100  0.24849675  0.57758713  1
  O  O242  1  0.57695440  0.23184671  0.91381426  1
  O  O243  1  0.57367279  0.73136224  0.23947630  1
  O  O244  1  0.56688509  0.73763322  0.56868077  1
  O  O245  1  0.58357732  0.73901194  0.91358880  1
  O  O246  1  0.90492486  0.23114034  0.23920769  1
  O  O247  1  0.91417039  0.23168886  0.57590170  1
  O  O248  1  0.91595948  0.23605560  0.91819289  1
  O  O249  1  0.90623424  0.73172257  0.24108422  1
  O  O250  1  0.91015305  0.72376260  0.57286032  1
  O  O251  1  0.90495325  0.73861548  0.89907654  1
  O  O252  1  0.08644974  0.47508452  0.09252773  1
  O  O253  1  0.09323828  0.47496282  0.42756829  1
  O  O254  1  0.08653230  0.47976536  0.75174434  1
  O  O255  1  0.07369843  0.98975746  0.08043276  1
  O  O256  1  0.09424548  0.98904155  0.43003076  1
  O  O257  1  0.09327040  0.97791413  0.75689908  1
  O  O258  1  0.42174381  0.48181514  0.09084047  1
  O  O259  1  0.42278598  0.47896501  0.42640596  1
  O  O260  1  0.41842455  0.48761776  0.74679927  1
  O  O261  1  0.42434648  0.99100660  0.09562954  1
  O  O262  1  0.42356277  0.97471346  0.42576587  1
  O  O263  1  0.42448442  0.97890171  0.75457929  1
  O  O264  1  0.75613327  0.47331382  0.09015719  1
  O  O265  1  0.75853261  0.48567346  0.42247465  1
  O  O266  1  0.76232576  0.48273018  0.75999565  1
  O  O267  1  0.75986166  0.98494865  0.09343968  1
  O  O268  1  0.75210827  0.98551966  0.41430565  1
  O  O269  1  0.75619082  0.98468281  0.75327963  1
  O  O270  1  0.26051860  0.27343580  0.07625921  1
  O  O271  1  0.26179918  0.27036404  0.40330468  1
  O  O272  1  0.25976849  0.26684088  0.73364014  1
  O  O273  1  0.24898624  0.75604558  0.08318494  1
  O  O274  1  0.25751670  0.77231329  0.41363319  1
  O  O275  1  0.25523115  0.77048236  0.73900044  1
  O  O276  1  0.59586897  0.27254186  0.07327474  1
  O  O277  1  0.59154482  0.27269251  0.41005302  1
  O  O278  1  0.59353220  0.26850699  0.74154029  1
  O  O279  1  0.58668999  0.75516357  0.08247167  1
  O  O280  1  0.58971772  0.77572235  0.40561155  1
  O  O281  1  0.59081375  0.76733905  0.73795277  1
  O  O282  1  0.92251080  0.27524688  0.07871231  1
  O  O283  1  0.92826624  0.26721868  0.41023330  1
  O  O284  1  0.92539039  0.26740679  0.74201599  1
  O  O285  1  0.91726038  0.77505039  0.07468473  1
  O  O286  1  0.93380701  0.76460944  0.40416549  1
  O  O287  1  0.92997947  0.77017541  0.73662961  1
  O  O288  1  0.25476533  0.47685276  0.08058532  1
  O  O289  1  0.25671597  0.47424020  0.41014679  1
  O  O290  1  0.25539594  0.48318358  0.73731273  1
  O  O291  1  0.24587940  0.99912271  0.08514720  1
  O  O292  1  0.26172035  0.97990339  0.41037230  1
  O  O293  1  0.25728531  0.97857226  0.73682832  1
  O  O294  1  0.59201040  0.47678743  0.07716400  1
  O  O295  1  0.59187191  0.47430923  0.40687139  1
  O  O296  1  0.59652443  0.48467968  0.73663145  1
  O  O297  1  0.58672479  0.99292742  0.08206924  1
  O  O298  1  0.58771687  0.97773716  0.40908619  1
  O  O299  1  0.58511456  0.97761252  0.74574925  1
  O  O300  1  0.92126198  0.47217114  0.07536652  1
  O  O301  1  0.93191539  0.48115370  0.40657389  1
  O  O302  1  0.92736872  0.47835178  0.73773252  1
  O  O303  1  0.91677835  0.97519477  0.08046320  1
  O  O304  1  0.92998663  0.98541524  0.40677534  1
  O  O305  1  0.92598421  0.98437100  0.74180577  1
  O  O306  1  0.08725212  0.26997391  0.09499642  1
  O  O307  1  0.09231742  0.26753278  0.42804460  1
  O  O308  1  0.09000129  0.26503665  0.75645325  1
  O  O309  1  0.07678514  0.76594185  0.08480810  1
  O  O310  1  0.09510702  0.76687001  0.43231068  1
  O  O311  1  0.09078850  0.77686894  0.75449786  1
  O  O312  1  0.42696740  0.26451816  0.09818899  1
  O  O313  1  0.42322436  0.27710284  0.42583914  1
  O  O314  1  0.41974565  0.25879275  0.75013664  1
  O  O315  1  0.42480376  0.75884451  0.09240940  1
  O  O316  1  0.42436622  0.76821900  0.42635501  1
  O  O317  1  0.42467906  0.77193548  0.75299368  1
  O  O318  1  0.75821709  0.27525577  0.09099003  1
  O  O319  1  0.75617567  0.26919835  0.41888464  1
  O  O320  1  0.75826552  0.26973946  0.75307895  1
  O  O321  1  0.75855413  0.76576761  0.09526308  1
  O  O322  1  0.75606660  0.75914213  0.41821220  1
  O  O323  1  0.76371670  0.76228740  0.76164607  1
  O  O324  1  0.24317780  0.02343749  0.24721367  1
  O  O325  1  0.24013068  0.02198065  0.57105575  1
  O  O326  1  0.23933774  0.01370723  0.90310121  1
  O  O327  1  0.24104727  0.50205808  0.24652170  1
  O  O328  1  0.23480914  0.51168441  0.57014801  1
  O  O329  1  0.24920880  0.49645613  0.91701931  1
  O  O330  1  0.56945493  0.01344668  0.24048180  1
  O  O331  1  0.57898467  0.00133263  0.58022859  1
  O  O332  1  0.57804567  0.01791311  0.91365274  1
  O  O333  1  0.57423724  0.51801745  0.23462385  1
  O  O334  1  0.56819546  0.51129783  0.56803261  1
  O  O335  1  0.58751361  0.50979342  0.91770377  1
  O  O336  1  0.90449141  0.02147059  0.24001929  1
  O  O337  1  0.91490929  0.02102401  0.57601624  1
  O  O338  1  0.91888786  0.01821058  0.92034476  1
  O  O339  1  0.90720176  0.51626738  0.24150389  1
  O  O340  1  0.90936136  0.52372663  0.57255545  1
  O  O341  1  0.90437272  0.51120004  0.90120045  1
  O  O342  1  0.07480810  0.22859024  0.25636734  1
  O  O343  1  0.07733663  0.22835516  0.59360589  1
  O  O344  1  0.07482161  0.23034517  0.92319974  1
  O  O345  1  0.07227585  0.74087884  0.26759736  1
  O  O346  1  0.07008880  0.73134952  0.59386600  1
  O  O347  1  0.07495915  0.75037419  0.91725980  1
  O  O348  1  0.40015924  0.24017193  0.26263538  1
  O  O349  1  0.40375270  0.23612531  0.59035265  1
  O  O350  1  0.41446665  0.23616495  0.91780306  1
  O  O351  1  0.41612250  0.73901110  0.25492173  1
  O  O352  1  0.40429034  0.73788388  0.59083078  1
  O  O353  1  0.41823419  0.74793536  0.91640669  1
  O  O354  1  0.74407788  0.24105951  0.25048567  1
  O  O355  1  0.75270320  0.24285612  0.58319463  1
  O  O356  1  0.74050593  0.23459643  0.93217915  1
  O  O357  1  0.74584282  0.74182934  0.25288162  1
  O  O358  1  0.74707114  0.73319467  0.59347928  1
  O  O359  1  0.74566456  0.72531378  0.92601032  1
