# generated using pymatgen
data_Ba17Sr5La8Pr42Mn72O216
_symmetry_space_group_name_H-M   'P 1'
_cell_length_a   16.67447735
_cell_length_b   15.70552177
_cell_length_c   16.81725733
_cell_angle_alpha   90.00261018
_cell_angle_beta   89.98013863
_cell_angle_gamma   89.98732305
_symmetry_Int_Tables_number   1
_chemical_formula_structural   Ba17Sr5La8Pr42Mn72O216
_chemical_formula_sum   'Ba17 Sr5 La8 Pr42 Mn72 O216'
_cell_volume   4404.12596406
_cell_formula_units_Z   1
loop_
 _symmetry_equiv_pos_site_id
 _symmetry_equiv_pos_as_xyz
  1  'x, y, z'
loop_
 _atom_site_type_symbol
 _atom_site_label
 _atom_site_symmetry_multiplicity
 _atom_site_fract_x
 _atom_site_fract_y
 _atom_site_fract_z
 _atom_site_occupancy
  Ba  Ba0  1  0.83384653  0.37381586  0.50003906  1
  Ba  Ba1  1  0.00188737  0.12688472  0.33085607  1
  Ba  Ba2  1  0.33372039  0.12558730  1.00020890  1
  Ba  Ba3  1  0.00225953  0.87470403  0.66446840  1
  Ba  Ba4  1  0.49984877  0.87578601  0.83246075  1
  Ba  Ba5  1  0.49973557  0.37700315  0.16384574  1
  Ba  Ba6  1  0.66586512  0.87265531  0.33594725  1
  Ba  Ba7  1  0.16362854  0.87522276  0.83193427  1
  Ba  Ba8  1  0.00090338  0.62450565  0.66697688  1
  Ba  Ba9  1  0.16634651  0.62497004  0.83441527  1
  Ba  Ba10  1  0.83352818  0.62471411  0.16570600  1
  Ba  Ba11  1  0.83177190  0.87367489  0.16895268  1
  Ba  Ba12  1  0.83250543  0.62425618  0.83546152  1
  Ba  Ba13  1  0.50055406  0.37363802  0.83097569  1
  Ba  Ba14  1  -0.00375867  0.12606797  0.99965458  1
  Ba  Ba15  1  0.83332357  0.87541260  0.50075134  1
  Ba  Ba16  1  0.16788773  0.12557373  0.16895420  1
  Sr  Sr17  1  0.16251649  0.87233847  0.50058403  1
  Sr  Sr18  1  0.67003838  0.62494763  0.33595895  1
  Sr  Sr19  1  0.33809293  0.62678419  0.66433672  1
  Sr  Sr20  1  -0.00425787  0.62584480  0.99480656  1
  Sr  Sr21  1  0.33755801  0.62576109  0.33381386  1
  La  La22  1  0.16756642  0.12176675  0.83857199  1
  La  La23  1  0.33361240  0.37854072  0.66661861  1
  La  La24  1  0.49992058  0.62548222  0.83129677  1
  La  La25  1  0.32247721  0.87336581  -0.00046481  1
  La  La26  1  0.66533740  0.62479484  1.00145640  1
  La  La27  1  0.15988906  0.87703547  0.16713520  1
  La  La28  1  0.16447873  0.37251833  0.16739232  1
  La  La29  1  0.17181727  0.62621381  0.50862259  1
  Pr  Pr30  1  0.33854671  0.12502740  0.32403803  1
  Pr  Pr31  1  0.49574991  0.37650258  0.49451978  1
  Pr  Pr32  1  0.50739393  0.12469659  0.49697567  1
  Pr  Pr33  1  0.50655624  0.62407965  0.16985314  1
  Pr  Pr34  1  0.67151690  0.37423267  0.67267895  1
  Pr  Pr35  1  0.50180943  0.12404154  0.83655881  1
  Pr  Pr36  1  0.82613997  0.62854632  0.50590481  1
  Pr  Pr37  1  0.83766178  0.87543342  0.83208212  1
  Pr  Pr38  1  -0.00093809  0.87004869  -0.00127116  1
  Pr  Pr39  1  0.00705858  0.37571103  0.67027122  1
  Pr  Pr40  1  0.83910294  0.37440890  0.82991165  1
  Pr  Pr41  1  0.16904660  0.62419099  0.16976750  1
  Pr  Pr42  1  0.00132378  0.12265500  0.66367523  1
  Pr  Pr43  1  0.83050281  0.12585616  0.83634234  1
  Pr  Pr44  1  0.32787919  0.87229224  0.66821677  1
  Pr  Pr45  1  0.66451709  0.38172088  0.33665377  1
  Pr  Pr46  1  0.66373575  0.12438390  1.00273631  1
  Pr  Pr47  1  0.32741150  0.37625499  0.33434295  1
  Pr  Pr48  1  0.66821633  0.37675931  0.00427579  1
  Pr  Pr49  1  0.67450790  0.12615645  0.33255549  1
  Pr  Pr50  1  0.66483962  0.87008903  0.00701453  1
  Pr  Pr51  1  0.49347754  0.87218020  0.16085963  1
  Pr  Pr52  1  0.32491229  0.87382165  0.33524707  1
  Pr  Pr53  1  0.33709116  0.62354093  0.99508076  1
  Pr  Pr54  1  0.83506579  0.12450708  0.17102417  1
  Pr  Pr55  1  0.83644004  0.37507780  0.16657201  1
  Pr  Pr56  1  0.17065367  0.12510050  0.50120228  1
  Pr  Pr57  1  0.16672915  0.37190744  0.83364493  1
  Pr  Pr58  1  0.66618186  0.12569411  0.66789697  1
  Pr  Pr59  1  0.00061981  0.62497525  0.33291628  1
  Pr  Pr60  1  0.00199604  0.38016476  -0.00115345  1
  Pr  Pr61  1  0.50562791  0.12525506  0.16945230  1
  Pr  Pr62  1  0.16319444  0.37908976  0.49931838  1
  Pr  Pr63  1  -0.00352511  0.87671479  0.33933424  1
  Pr  Pr64  1  0.49386169  0.87450380  0.49530185  1
  Pr  Pr65  1  0.83442071  0.12032216  0.50260653  1
  Pr  Pr66  1  0.66932505  0.87529344  0.67135019  1
  Pr  Pr67  1  0.50366812  0.62683428  0.50042354  1
  Pr  Pr68  1  0.32566880  0.37658539  0.00239541  1
  Pr  Pr69  1  0.34031349  0.12316806  0.66430553  1
  Pr  Pr70  1  -0.00042738  0.37383413  0.33360255  1
  Pr  Pr71  1  0.66475255  0.62417072  0.66669344  1
  Mn  Mn72  1  -0.00182566  -0.00203644  0.16643187  1
  Mn  Mn73  1  0.00272344  0.00235697  0.49902933  1
  Mn  Mn74  1  -0.00231727  0.00281952  0.83206408  1
  Mn  Mn75  1  0.00090792  0.50152349  0.16634711  1
  Mn  Mn76  1  0.00069295  0.49951927  0.49839542  1
  Mn  Mn77  1  0.00059099  0.49848139  0.83474383  1
  Mn  Mn78  1  0.33460883  -0.00245571  0.16702970  1
  Mn  Mn79  1  0.33307446  0.00226096  0.49645351  1
  Mn  Mn80  1  0.33422072  0.00001738  0.83075624  1
  Mn  Mn81  1  0.33218403  0.50224584  0.16637451  1
  Mn  Mn82  1  0.33528597  0.49996390  0.49920833  1
  Mn  Mn83  1  0.33380799  0.49958998  0.83284854  1
  Mn  Mn84  1  0.66384852  0.00015256  0.16824711  1
  Mn  Mn85  1  0.66497616  0.00177990  0.50130538  1
  Mn  Mn86  1  0.66740919  0.00062062  0.83608360  1
  Mn  Mn87  1  0.66806280  0.49939182  0.16944560  1
  Mn  Mn88  1  0.66487096  0.49906002  0.50235825  1
  Mn  Mn89  1  0.66622660  0.49911511  0.83472563  1
  Mn  Mn90  1  -0.00139369  0.25287831  0.16520831  1
  Mn  Mn91  1  0.00184597  0.24935641  0.50100796  1
  Mn  Mn92  1  -0.00039107  0.24968959  0.83104385  1
  Mn  Mn93  1  0.00102435  0.74731995  0.16754009  1
  Mn  Mn94  1  0.00165723  0.74848145  0.49717530  1
  Mn  Mn95  1  -0.00109160  0.74988838  0.83416998  1
  Mn  Mn96  1  0.33527030  0.25195860  0.16646076  1
  Mn  Mn97  1  0.33432100  0.24825397  0.49768874  1
  Mn  Mn98  1  0.33385741  0.25103353  0.83044660  1
  Mn  Mn99  1  0.33172301  0.74772293  0.16654857  1
  Mn  Mn100  1  0.33368084  0.75089446  0.49866765  1
  Mn  Mn101  1  0.33377857  0.74884520  0.83197620  1
  Mn  Mn102  1  0.66814250  0.25064690  0.16826589  1
  Mn  Mn103  1  0.66463149  0.25076793  0.50098338  1
  Mn  Mn104  1  0.66756569  0.24897265  0.83564930  1
  Mn  Mn105  1  0.66478508  0.74880139  0.17018112  1
  Mn  Mn106  1  0.66430621  0.75018319  0.50273916  1
  Mn  Mn107  1  0.66615721  0.75086809  0.83529837  1
  Mn  Mn108  1  0.16534962  0.24971246  -0.00149148  1
  Mn  Mn109  1  0.16936603  0.25285956  0.33581491  1
  Mn  Mn110  1  0.17085358  0.24871706  0.66732750  1
  Mn  Mn111  1  0.16441344  0.74932140  0.00417094  1
  Mn  Mn112  1  0.16743539  0.74677805  0.33435604  1
  Mn  Mn113  1  0.16921729  0.74945700  0.66624937  1
  Mn  Mn114  1  0.49968028  0.25099583  -0.00114140  1
  Mn  Mn115  1  0.50000625  0.25125411  0.33306341  1
  Mn  Mn116  1  0.50113527  0.24882097  0.66337985  1
  Mn  Mn117  1  0.49744864  0.74929712  -0.00019462  1
  Mn  Mn118  1  0.49818954  0.74899909  0.33166919  1
  Mn  Mn119  1  0.50160765  0.75129969  0.66339447  1
  Mn  Mn120  1  0.83030906  0.25132203  -0.00010213  1
  Mn  Mn121  1  0.83217956  0.25255076  0.33306093  1
  Mn  Mn122  1  0.83464903  0.24887619  0.66737745  1
  Mn  Mn123  1  0.83074187  0.75066601  -0.00060804  1
  Mn  Mn124  1  0.83461718  0.74723520  0.33638006  1
  Mn  Mn125  1  0.83210594  0.75049216  0.66852914  1
  Mn  Mn126  1  0.16397486  0.00025069  0.00031224  1
  Mn  Mn127  1  0.16857763  -0.00155574  0.33533748  1
  Mn  Mn128  1  0.17015670  0.00393388  0.66676747  1
  Mn  Mn129  1  0.16571212  0.50053803  0.00251662  1
  Mn  Mn130  1  0.16775266  0.50273731  0.33488409  1
  Mn  Mn131  1  0.17005169  0.49850292  0.66631752  1
  Mn  Mn132  1  0.49871411  -0.00023138  0.00093645  1
  Mn  Mn133  1  0.49899853  -0.00158997  0.33144773  1
  Mn  Mn134  1  0.50202137  0.00080582  0.66345332  1
  Mn  Mn135  1  0.49928606  0.49958099  -0.00192930  1
  Mn  Mn136  1  0.49889863  0.50130997  0.33246442  1
  Mn  Mn137  1  0.50137305  0.49914660  0.66309771  1
  Mn  Mn138  1  0.82910188  0.00075726  -0.00023050  1
  Mn  Mn139  1  0.83364003  0.00103167  0.33487568  1
  Mn  Mn140  1  0.83331069  0.00178016  0.66967448  1
  Mn  Mn141  1  0.83135751  0.49695968  -0.00056085  1
  Mn  Mn142  1  0.83393780  0.50006631  0.33474222  1
  Mn  Mn143  1  0.83328653  0.49885156  0.66619041  1
  O  O144  1  0.16504793  0.12688993  0.01036256  1
  O  O145  1  0.17605200  0.12840364  0.35588751  1
  O  O146  1  0.18000126  0.13027260  0.69452021  1
  O  O147  1  0.16707448  0.62458588  0.02563529  1
  O  O148  1  0.15958365  0.62324671  0.36413348  1
  O  O149  1  0.17351714  0.61952866  0.67196577  1
  O  O150  1  0.50227541  0.12514478  0.02450811  1
  O  O151  1  0.48871673  0.12671596  0.35464381  1
  O  O152  1  0.49916731  0.12445106  0.69268631  1
  O  O153  1  0.49275043  0.62403505  0.02456866  1
  O  O154  1  0.49564829  0.62467985  0.35750643  1
  O  O155  1  0.50362432  0.62423045  0.68761073  1
  O  O156  1  0.82724839  0.12808865  0.02859928  1
  O  O157  1  0.82644731  0.13047312  0.35633764  1
  O  O158  1  0.83562862  0.12716238  0.69358825  1
  O  O159  1  0.83272201  0.62086867  0.00858732  1
  O  O160  1  0.83887960  0.62040393  0.35964726  1
  O  O161  1  0.82411073  0.62442401  0.67779956  1
  O  O162  1  0.17542216  0.38052303  0.31132999  1
  O  O163  1  0.16477668  0.37081761  0.64202327  1
  O  O164  1  0.17031921  0.37387855  0.97849916  1
  O  O165  1  0.17351994  0.86797005  0.31057588  1
  O  O166  1  0.17499403  0.88089215  0.65068883  1
  O  O167  1  0.16720479  0.87467380  0.99074437  1
  O  O168  1  0.50908864  0.37493911  0.31995469  1
  O  O169  1  0.50218866  0.37272446  0.63890996  1
  O  O170  1  0.50908181  0.37665722  0.98655497  1
  O  O171  1  0.49721798  0.87294832  0.30695231  1
  O  O172  1  0.50959724  0.87829892  0.63789224  1
  O  O173  1  0.51167711  0.87482138  0.98964510  1
  O  O174  1  0.83239403  0.37548448  0.31196707  1
  O  O175  1  0.82436270  0.37100069  0.65466115  1
  O  O176  1  0.81870789  0.37119853  0.97318960  1
  O  O177  1  0.84344019  0.87409011  0.32808124  1
  O  O178  1  0.82447643  0.87744196  0.65626867  1
  O  O179  1  0.81979570  0.87940284  0.97826391  1
  O  O180  1  -0.00304709  0.37785844  0.18978212  1
  O  O181  1  0.00639706  0.37125149  0.52704724  1
  O  O182  1  0.00315929  0.37181452  0.85224546  1
  O  O183  1  0.00441841  0.86927321  0.19345477  1
  O  O184  1  0.00099110  0.87816544  0.50660993  1
  O  O185  1  -0.00612364  0.87994337  0.85099378  1
  O  O186  1  0.32859016  0.37899020  0.19001108  1
  O  O187  1  0.34305934  0.37010942  0.52414972  1
  O  O188  1  0.33070947  0.37547474  0.85783696  1
  O  O189  1  0.33836494  0.87091343  0.19205034  1
  O  O190  1  0.34338023  0.88007542  0.52477398  1
  O  O191  1  0.33487015  0.87349633  0.85353310  1
  O  O192  1  0.67045458  0.37271115  0.19332708  1
  O  O193  1  0.65629267  0.37258262  0.52897038  1
  O  O194  1  0.67045316  0.37139782  0.85920643  1
  O  O195  1  0.65407431  0.87490274  0.17664050  1
  O  O196  1  0.65781005  0.87650212  0.52595357  1
  O  O197  1  0.67094604  0.87970122  0.86217744  1
  O  O198  1  -0.00771912  0.12884274  0.15597163  1
  O  O199  1  0.00565860  0.12762921  0.48685694  1
  O  O200  1  -0.00896622  0.12935558  0.80996222  1
  O  O201  1  0.00958492  0.62315758  0.14420679  1
  O  O202  1  0.01116666  0.62114187  0.47752217  1
  O  O203  1  -0.00241422  0.61966669  0.82932324  1
  O  O204  1  0.34002673  0.12423650  0.15843138  1
  O  O205  1  0.32528697  0.12646440  0.46667133  1
  O  O206  1  0.33250278  0.12709653  0.80922777  1
  O  O207  1  0.32559182  0.62483531  0.13763530  1
  O  O208  1  0.33179247  0.62447027  0.48321394  1
  O  O209  1  0.33814092  0.62339306  0.81610898  1
  O  O210  1  0.66767567  0.12663333  0.14662169  1
  O  O211  1  0.66519515  0.12920461  0.47558236  1
  O  O212  1  0.66601930  0.12523876  0.81013983  1
  O  O213  1  0.66206650  0.62405604  0.14782762  1
  O  O214  1  0.66709481  0.62243241  0.48534759  1
  O  O215  1  0.66198109  0.62361151  0.81061205  1
  O  O216  1  0.09059353  0.00225224  0.24968503  1
  O  O217  1  0.08987031  0.02408607  0.58236590  1
  O  O218  1  0.08092611  0.01446743  0.91056625  1
  O  O219  1  0.08776262  0.51922605  0.25061429  1
  O  O220  1  0.09149266  0.50845868  0.57577940  1
  O  O221  1  0.08197190  0.50386835  0.92215901  1
  O  O222  1  0.42873713  0.01526423  0.23886063  1
  O  O223  1  0.42157496  0.02631010  0.57001343  1
  O  O224  1  0.42275250  0.01630793  0.90633636  1
  O  O225  1  0.41849127  0.52063959  0.24091705  1
  O  O226  1  0.42504940  0.51540320  0.57236985  1
  O  O227  1  0.41997365  0.51957331  0.91190018  1
  O  O228  1  0.75124116  0.01941030  0.24748296  1
  O  O229  1  0.75234927  0.02497933  0.58843564  1
  O  O230  1  0.74772037  0.02950994  0.91712341  1
  O  O231  1  0.74797666  0.50864071  0.25594251  1
  O  O232  1  0.74458038  0.51531889  0.58684853  1
  O  O233  1  0.73702910  0.51247796  0.92795242  1
  O  O234  1  0.26038223  0.24079466  0.26127480  1
  O  O235  1  0.25497419  0.22763565  0.58435020  1
  O  O236  1  0.24568212  0.23906593  0.90956760  1
  O  O237  1  0.25221549  0.72683741  0.25373984  1
  O  O238  1  0.25696346  0.74056572  0.58312909  1
  O  O239  1  0.25475514  0.73727760  0.93175645  1
  O  O240  1  0.58704692  0.22701756  0.25546688  1
  O  O241  1  0.58541748  0.22261752  0.58466351  1
  O  O242  1  0.58233544  0.22601996  0.91411416  1
  O  O243  1  0.58291106  0.72791723  0.25299226  1
  O  O244  1  0.58482917  0.72509188  0.58561231  1
  O  O245  1  0.58132814  0.72783132  0.91851351  1
  O  O246  1  0.90763150  0.24222784  0.23979753  1
  O  O247  1  0.91468774  0.22646816  0.58251370  1
  O  O248  1  0.90387987  0.23971148  0.90601496  1
  O  O249  1  0.92583221  0.73140732  0.25498543  1
  O  O250  1  0.91112429  0.73377349  0.57665677  1
  O  O251  1  0.91273546  0.75300123  0.91691077  1
  O  O252  1  0.08311626  0.47465326  0.08443824  1
  O  O253  1  0.08285004  0.47273783  0.41322434  1
  O  O254  1  0.08533545  0.47821991  0.74949635  1
  O  O255  1  0.07735212  0.97934046  0.08217559  1
  O  O256  1  0.08271603  0.98472894  0.41203821  1
  O  O257  1  0.08229526  1.00540948  0.74553791  1
  O  O258  1  0.40620330  0.48532986  0.07067146  1
  O  O259  1  0.41221522  0.47784325  0.41102307  1
  O  O260  1  0.41440424  0.48449726  0.73836491  1
  O  O261  1  0.40917172  0.97458623  0.07754575  1
  O  O262  1  0.40753843  0.97954723  0.40476565  1
  O  O263  1  0.41185409  0.98509627  0.73368685  1
  O  O264  1  0.75269428  0.47723958  0.08775636  1
  O  O265  1  0.74333130  0.48423791  0.41770606  1
  O  O266  1  0.75239421  0.47793340  0.75810000  1
  O  O267  1  0.73494595  0.98741622  0.07548533  1
  O  O268  1  0.74538478  0.99718876  0.41823613  1
  O  O269  1  0.75021800  0.98300092  0.75554788  1
  O  O270  1  0.24720598  0.27015363  0.08523742  1
  O  O271  1  0.24775347  0.27756012  0.42354237  1
  O  O272  1  0.25025767  0.27813981  0.74899452  1
  O  O273  1  0.24377236  0.77000802  0.09329824  1
  O  O274  1  0.24832595  0.76640446  0.41875425  1
  O  O275  1  0.25481744  0.76245409  0.74792478  1
  O  O276  1  0.59245131  0.26126023  0.08120890  1
  O  O277  1  0.57453654  0.26568571  0.42376950  1
  O  O278  1  0.59534430  0.26390872  0.74388625  1
  O  O279  1  0.57381425  0.75902892  0.08729964  1
  O  O280  1  0.57305505  0.76249717  0.42770545  1
  O  O281  1  0.59040799  0.76528867  0.74464223  1
  O  O282  1  0.91580885  0.27759546  0.07487516  1
  O  O283  1  0.91994776  0.26628930  0.40771465  1
  O  O284  1  0.92338244  0.27387754  0.74272868  1
  O  O285  1  0.91905964  0.76466095  0.07764795  1
  O  O286  1  0.92234896  0.75478362  0.41363847  1
  O  O287  1  0.91236901  0.76327255  0.75167859  1
  O  O288  1  0.24400894  0.47809435  0.08996498  1
  O  O289  1  0.24836047  0.47913052  0.42165350  1
  O  O290  1  0.24794738  0.47591315  0.75388730  1
  O  O291  1  0.24763606  0.98110589  0.09245590  1
  O  O292  1  0.24673295  0.97729579  0.42242306  1
  O  O293  1  0.25532893  0.98669816  0.74506109  1
  O  O294  1  0.59004482  0.49139454  0.07671318  1
  O  O295  1  0.58057507  0.48164550  0.42290395  1
  O  O296  1  0.59212449  0.48376954  0.74127457  1
  O  O297  1  0.57215187  0.99076080  0.09559064  1
  O  O298  1  0.56786920  0.98845715  0.42406507  1
  O  O299  1  0.59135948  0.98702377  0.74704739  1
  O  O300  1  0.91593836  0.47601580  0.08035558  1
  O  O301  1  0.92455591  0.48235533  0.41015822  1
  O  O302  1  0.92108924  0.47733361  0.74582790  1
  O  O303  1  0.91462499  0.98163446  0.07486554  1
  O  O304  1  0.91673478  0.99791734  0.41756493  1
  O  O305  1  0.91254705  0.98656234  0.75218727  1
  O  O306  1  0.08091417  0.27294484  0.08109361  1
  O  O307  1  0.08704127  0.27387972  0.41766985  1
  O  O308  1  0.08727027  0.26890950  0.74834566  1
  O  O309  1  0.08154361  0.77259319  0.08547240  1
  O  O310  1  0.07917103  0.76865014  0.40550454  1
  O  O311  1  0.08289991  0.75383578  0.74972672  1
  O  O312  1  0.41014090  0.26848700  0.07455407  1
  O  O313  1  0.41059754  0.27268577  0.40892086  1
  O  O314  1  0.41026923  0.26380502  0.73611864  1
  O  O315  1  0.40791447  0.77119841  0.07468835  1
  O  O316  1  0.41070799  0.77209506  0.40897485  1
  O  O317  1  0.41610255  0.76612288  0.73615473  1
  O  O318  1  0.75339113  0.27408232  0.08843523  1
  O  O319  1  0.73732536  0.26925888  0.40927721  1
  O  O320  1  0.75711088  0.26427601  0.75905025  1
  O  O321  1  0.74071209  0.75966016  0.07984722  1
  O  O322  1  0.74994755  0.75195116  0.42478896  1
  O  O323  1  0.75003328  0.77220872  0.75588686  1
  O  O324  1  0.26403648  0.00922398  0.26179749  1
  O  O325  1  0.25555848  0.02654736  0.58332322  1
  O  O326  1  0.24802618  0.01113679  0.91406666  1
  O  O327  1  0.24989827  0.52280990  0.25374371  1
  O  O328  1  0.25686828  0.50510351  0.58431001  1
  O  O329  1  0.25639508  0.51308914  0.92976665  1
  O  O330  1  0.58844117  0.02643178  0.25785089  1
  O  O331  1  0.58689872  0.02853116  0.58594079  1
  O  O332  1  0.58542054  0.02355794  0.91937494  1
  O  O333  1  0.58216483  0.51762426  0.25084086  1
  O  O334  1  0.58333205  0.52421092  0.58312803  1
  O  O335  1  0.57938002  0.52289497  0.91287802  1
  O  O336  1  0.91266829  0.01277460  0.24578362  1
  O  O337  1  0.91868505  0.02263715  0.58540025  1
  O  O338  1  0.90591397  0.01395310  0.91012089  1
  O  O339  1  0.92364871  0.51443113  0.25235539  1
  O  O340  1  0.91342507  0.51502005  0.57336671  1
  O  O341  1  0.91329311  0.49415656  0.91601060  1
  O  O342  1  0.08771203  0.25180830  0.25213439  1
  O  O343  1  0.08897016  0.22454997  0.58906561  1
  O  O344  1  0.08467570  0.23866445  0.91008142  1
  O  O345  1  0.09014962  0.72471340  0.24804683  1
  O  O346  1  0.09027514  0.73839806  0.57304908  1
  O  O347  1  0.07832604  0.74476626  0.92522915  1
  O  O348  1  0.42411521  0.23405895  0.24565232  1
  O  O349  1  0.41952609  0.22209571  0.57164891  1
  O  O350  1  0.42078362  0.23386701  0.90425289  1
  O  O351  1  0.42309660  0.72870994  0.23614580  1
  O  O352  1  0.42643069  0.73632652  0.57070175  1
  O  O353  1  0.41966085  0.72949305  0.91372190  1
  O  O354  1  0.75072881  0.22696327  0.24865773  1
  O  O355  1  0.74977383  0.22668688  0.58554006  1
  O  O356  1  0.74334116  0.22403175  0.92365557  1
  O  O357  1  0.75159913  0.74037864  0.25612560  1
  O  O358  1  0.74371849  0.73485253  0.59003902  1
  O  O359  1  0.74038492  0.73622229  0.92375813  1
