# generated using pymatgen
data_Ba17Sr5La8Pr42Mn72O216
_symmetry_space_group_name_H-M   'P 1'
_cell_length_a   16.67502369
_cell_length_b   15.70420592
_cell_length_c   16.82019565
_cell_angle_alpha   89.99136928
_cell_angle_beta   90.01568701
_cell_angle_gamma   89.99840311
_symmetry_Int_Tables_number   1
_chemical_formula_structural   Ba17Sr5La8Pr42Mn72O216
_chemical_formula_sum   'Ba17 Sr5 La8 Pr42 Mn72 O216'
_cell_volume   4404.67087520
_cell_formula_units_Z   1
loop_
 _symmetry_equiv_pos_site_id
 _symmetry_equiv_pos_as_xyz
  1  'x, y, z'
loop_
 _atom_site_type_symbol
 _atom_site_label
 _atom_site_symmetry_multiplicity
 _atom_site_fract_x
 _atom_site_fract_y
 _atom_site_fract_z
 _atom_site_occupancy
  Ba  Ba0  1  0.50245726  0.12818569  0.50059299  1
  Ba  Ba1  1  0.33551595  0.62557994  0.66145753  1
  Ba  Ba2  1  -0.00208199  0.87571128  0.33616015  1
  Ba  Ba3  1  0.16315125  0.37502085  0.16603607  1
  Ba  Ba4  1  0.33553498  0.62362607  0.33096610  1
  Ba  Ba5  1  -0.00066879  0.37482212  0.67048656  1
  Ba  Ba6  1  0.66422519  0.37587318  0.00113899  1
  Ba  Ba7  1  0.83208717  0.37696306  0.83298766  1
  Ba  Ba8  1  0.33396902  0.12343016  0.66468546  1
  Ba  Ba9  1  0.49735671  0.87426410  0.16368249  1
  Ba  Ba10  1  -0.00046640  0.12219477  1.00102224  1
  Ba  Ba11  1  0.66412279  0.87255106  0.33390119  1
  Ba  Ba12  1  0.16710399  0.12435292  0.16468454  1
  Ba  Ba13  1  0.66588666  0.87571058  0.66650094  1
  Ba  Ba14  1  0.33176065  0.37567715  0.32776201  1
  Ba  Ba15  1  0.16799643  0.62630532  0.49974345  1
  Ba  Ba16  1  0.16556701  0.37548393  0.83306393  1
  Sr  Sr17  1  0.83493491  0.12498622  0.16956011  1
  Sr  Sr18  1  0.82821315  0.87594123  0.17063386  1
  Sr  Sr19  1  0.67104097  0.12402491  0.66474156  1
  Sr  Sr20  1  0.83797700  0.62661256  0.83508314  1
  Sr  Sr21  1  0.67134897  0.62668285  0.33529594  1
  La  La22  1  0.00402825  0.62549583  0.99975396  1
  La  La23  1  0.32745095  0.37344381  0.66373074  1
  La  La24  1  0.67202226  0.12182976  0.33284619  1
  La  La25  1  0.00003188  0.12780868  0.67167929  1
  La  La26  1  0.49534387  0.87498262  0.83087052  1
  La  La27  1  0.66317499  0.37309453  0.67450809  1
  La  La28  1  0.83586840  0.12012805  0.50258851  1
  La  La29  1  0.49201192  0.37735636  0.16180656  1
  Pr  Pr30  1  0.00356171  0.62449757  0.33140536  1
  Pr  Pr31  1  0.50658827  0.12710430  0.16853539  1
  Pr  Pr32  1  0.83529125  0.12433845  0.83738134  1
  Pr  Pr33  1  0.67272201  0.12207200  1.00135518  1
  Pr  Pr34  1  0.83086370  0.37497084  0.50210730  1
  Pr  Pr35  1  0.83848453  0.63114735  0.50321346  1
  Pr  Pr36  1  0.67501093  0.62479625  0.66569144  1
  Pr  Pr37  1  0.51231023  0.62707032  0.83234833  1
  Pr  Pr38  1  -0.00524146  0.37480550  0.00309582  1
  Pr  Pr39  1  0.17061376  0.62268605  0.83184945  1
  Pr  Pr40  1  0.66380660  0.87300648  0.00897394  1
  Pr  Pr41  1  0.50638690  0.62399112  0.50174462  1
  Pr  Pr42  1  0.34108962  0.12550480  0.32619718  1
  Pr  Pr43  1  0.00208835  0.61900122  0.66845181  1
  Pr  Pr44  1  0.33144779  0.87557471  0.66289468  1
  Pr  Pr45  1  0.49284354  0.37376062  0.50050011  1
  Pr  Pr46  1  0.49393603  0.37606126  0.82967412  1
  Pr  Pr47  1  0.16046557  0.87805997  0.83024454  1
  Pr  Pr48  1  -0.00841714  0.87395140  0.00860948  1
  Pr  Pr49  1  0.17181695  0.12992468  0.83846370  1
  Pr  Pr50  1  0.16636844  0.87435921  0.49747603  1
  Pr  Pr51  1  0.51075860  0.62480972  0.16941030  1
  Pr  Pr52  1  0.33959845  0.12503850  0.99199881  1
  Pr  Pr53  1  0.82919605  0.37416714  0.16342615  1
  Pr  Pr54  1  0.32435399  0.37382237  0.00160967  1
  Pr  Pr55  1  0.00189001  0.12408789  0.32705382  1
  Pr  Pr56  1  0.32910074  0.87601654  0.33079005  1
  Pr  Pr57  1  0.83102994  0.87456691  0.83579837  1
  Pr  Pr58  1  -0.00200095  0.87057093  0.66735891  1
  Pr  Pr59  1  0.67500887  0.62724150  1.00126161  1
  Pr  Pr60  1  0.16575595  0.37720006  0.49716794  1
  Pr  Pr61  1  0.49193499  0.87787943  0.49358153  1
  Pr  Pr62  1  0.00087404  0.36958888  0.33832464  1
  Pr  Pr63  1  0.34119560  0.62391629  0.99250785  1
  Pr  Pr64  1  0.51178716  0.12366824  0.83153846  1
  Pr  Pr65  1  0.82362700  0.87560999  0.49497301  1
  Pr  Pr66  1  0.17188064  0.62552781  0.17172680  1
  Pr  Pr67  1  0.16107693  0.87333750  0.16477291  1
  Pr  Pr68  1  0.83529477  0.62468840  0.17248563  1
  Pr  Pr69  1  0.32152977  0.87437720  0.00090178  1
  Pr  Pr70  1  0.66525598  0.37638779  0.33799481  1
  Pr  Pr71  1  0.16568850  0.12542279  0.49936674  1
  Mn  Mn72  1  -0.00218431  -0.00056709  0.16827753  1
  Mn  Mn73  1  0.00045385  0.00174791  0.50321425  1
  Mn  Mn74  1  -0.00047852  -0.00436228  0.83361047  1
  Mn  Mn75  1  -0.00268942  0.50067015  0.16746298  1
  Mn  Mn76  1  -0.00144387  0.49895390  0.49946750  1
  Mn  Mn77  1  0.00050627  0.50407112  0.83550934  1
  Mn  Mn78  1  0.33336976  -0.00006278  0.16268805  1
  Mn  Mn79  1  0.33120661  0.00039825  0.49594269  1
  Mn  Mn80  1  0.33426604  -0.00255275  0.83177795  1
  Mn  Mn81  1  0.33304376  0.50221932  0.15908907  1
  Mn  Mn82  1  0.33478890  0.49966655  0.49802021  1
  Mn  Mn83  1  0.33489215  0.50178378  0.83016355  1
  Mn  Mn84  1  0.66728431  0.00051653  0.16661014  1
  Mn  Mn85  1  0.66535394  0.00118985  0.50097370  1
  Mn  Mn86  1  0.66756205  -0.00117229  0.83615728  1
  Mn  Mn87  1  0.66732826  0.50003698  0.17069507  1
  Mn  Mn88  1  0.66885110  0.49909779  0.50338971  1
  Mn  Mn89  1  0.66653697  0.50220146  0.83491867  1
  Mn  Mn90  1  -0.00282603  0.25044525  0.16932462  1
  Mn  Mn91  1  -0.00075415  0.24837170  0.50076115  1
  Mn  Mn92  1  -0.00100241  0.24850165  0.83498566  1
  Mn  Mn93  1  -0.00257041  0.74986419  0.16664725  1
  Mn  Mn94  1  -0.00013441  0.75024795  0.50346041  1
  Mn  Mn95  1  0.00143506  0.75156963  0.83652962  1
  Mn  Mn96  1  0.33385500  0.24766121  0.16073979  1
  Mn  Mn97  1  0.33133973  0.24963377  0.49705349  1
  Mn  Mn98  1  0.33570657  0.25014588  0.83122704  1
  Mn  Mn99  1  0.33259288  0.75006693  0.16185670  1
  Mn  Mn100  1  0.33504751  0.75081572  0.49693853  1
  Mn  Mn101  1  0.33365903  0.75074820  0.83109572  1
  Mn  Mn102  1  0.66664622  0.25023683  0.16983698  1
  Mn  Mn103  1  0.66958002  0.25312372  0.50334955  1
  Mn  Mn104  1  0.66606864  0.24822894  0.83437413  1
  Mn  Mn105  1  0.66795356  0.74892869  0.16817413  1
  Mn  Mn106  1  0.66485078  0.74760465  0.50144555  1
  Mn  Mn107  1  0.66884743  0.75102520  0.83621445  1
  Mn  Mn108  1  0.16560852  0.24947861  -0.00077973  1
  Mn  Mn109  1  0.16703219  0.24933070  0.33456398  1
  Mn  Mn110  1  0.16602321  0.24623205  0.66601810  1
  Mn  Mn111  1  0.16619937  0.74869239  -0.00083629  1
  Mn  Mn112  1  0.16612140  0.75078187  0.33148824  1
  Mn  Mn113  1  0.16547239  0.75363436  0.66682837  1
  Mn  Mn114  1  0.49986900  0.24897600  -0.00191876  1
  Mn  Mn115  1  0.50230826  0.25194439  0.33220537  1
  Mn  Mn116  1  0.50099418  0.25048789  0.66701266  1
  Mn  Mn117  1  0.49999283  0.74828996  -0.00230883  1
  Mn  Mn118  1  0.49899581  0.74879311  0.33290629  1
  Mn  Mn119  1  0.50082205  0.75155310  0.66482391  1
  Mn  Mn120  1  0.83258262  0.24954899  0.00214570  1
  Mn  Mn121  1  0.83304790  0.25256375  0.33516531  1
  Mn  Mn122  1  0.83241215  0.24750992  0.66748807  1
  Mn  Mn123  1  0.83359891  0.74928086  0.00293718  1
  Mn  Mn124  1  0.83386000  0.74786073  0.33657547  1
  Mn  Mn125  1  0.83489778  0.75091341  0.66912194  1
  Mn  Mn126  1  0.16696152  -0.00169268  -0.00258242  1
  Mn  Mn127  1  0.16782084  0.00017985  0.33370033  1
  Mn  Mn128  1  0.16372412  -0.00028790  0.66544766  1
  Mn  Mn129  1  0.16553669  0.50276131  0.00021900  1
  Mn  Mn130  1  0.16525920  0.49992983  0.33182997  1
  Mn  Mn131  1  0.16700051  0.50028216  0.66586473  1
  Mn  Mn132  1  0.49993805  0.00071807  -0.00232998  1
  Mn  Mn133  1  0.49913053  0.00087371  0.33102614  1
  Mn  Mn134  1  0.50049714  -0.00105983  0.66465122  1
  Mn  Mn135  1  0.49950094  0.50159664  -0.00220009  1
  Mn  Mn136  1  0.50336795  0.50003573  0.33347445  1
  Mn  Mn137  1  0.50152232  0.50048863  0.66708007  1
  Mn  Mn138  1  0.83179574  -0.00120496  0.00169720  1
  Mn  Mn139  1  0.83308327  0.00053154  0.33558980  1
  Mn  Mn140  1  0.83537594  -0.00293642  0.66882517  1
  Mn  Mn141  1  0.83404845  0.50149205  0.00282140  1
  Mn  Mn142  1  0.83463624  0.49892960  0.33503664  1
  Mn  Mn143  1  0.83268800  0.50269625  0.66670975  1
  O  O144  1  0.17711368  0.12237165  0.00537810  1
  O  O145  1  0.16430191  0.12450907  0.35552109  1
  O  O146  1  0.16565356  0.11893808  0.69351146  1
  O  O147  1  0.16354099  0.62981928  0.02816802  1
  O  O148  1  0.16072846  0.62684803  0.34146389  1
  O  O149  1  0.16505270  0.63247777  0.68737733  1
  O  O150  1  0.49246163  0.12470221  0.02453709  1
  O  O151  1  0.49427609  0.12622351  0.34289905  1
  O  O152  1  0.50132680  0.12332488  0.68701492  1
  O  O153  1  0.49022602  0.62465510  0.02510759  1
  O  O154  1  0.50244818  0.62266369  0.35664487  1
  O  O155  1  0.50206117  0.62578532  0.68867325  1
  O  O156  1  0.82783078  0.12328044  0.01768599  1
  O  O157  1  0.83455306  0.13079799  0.35919559  1
  O  O158  1  0.83641614  0.11641908  0.69333848  1
  O  O159  1  0.83589921  0.62585599  0.02756378  1
  O  O160  1  0.84164931  0.62105476  0.36048566  1
  O  O161  1  0.83162819  0.62898742  0.68654647  1
  O  O162  1  0.15655979  0.37425994  0.32308799  1
  O  O163  1  0.16713028  0.36939056  0.64534126  1
  O  O164  1  0.16425834  0.37611863  0.98912899  1
  O  O165  1  0.17087184  0.87485035  0.30884719  1
  O  O166  1  0.15621606  0.87813125  0.64064278  1
  O  O167  1  0.16858905  0.86988286  0.97301066  1
  O  O168  1  0.51007017  0.37608452  0.30635085  1
  O  O169  1  0.51053625  0.37810752  0.64724435  1
  O  O170  1  0.49647714  0.37620723  0.97310767  1
  O  O171  1  0.49296081  0.87599883  0.32050445  1
  O  O172  1  0.49738083  0.87443152  0.64030370  1
  O  O173  1  0.51173850  0.87371670  0.97527288  1
  O  O174  1  0.83172175  0.37619662  0.30613477  1
  O  O175  1  0.82752637  0.37927307  0.64702482  1
  O  O176  1  0.83812336  0.37708044  0.99049346  1
  O  O177  1  0.83070317  0.87115397  0.32375572  1
  O  O178  1  0.84197787  0.87308855  0.63861518  1
  O  O179  1  0.82862508  0.87304067  0.97985361  1
  O  O180  1  -0.00810637  0.37812988  0.19306959  1
  O  O181  1  0.00648828  0.37343997  0.51533927  1
  O  O182  1  0.00078236  0.38095190  0.85634701  1
  O  O183  1  0.00747380  0.87403114  0.17774950  1
  O  O184  1  0.00898683  0.87940963  0.52504076  1
  O  O185  1  0.00874895  0.87321924  0.86441347  1
  O  O186  1  0.34090613  0.37490818  0.16887439  1
  O  O187  1  0.33485006  0.37451474  0.51647163  1
  O  O188  1  0.34311681  0.37771484  0.85768586  1
  O  O189  1  0.32930765  0.87582929  0.18612530  1
  O  O190  1  0.33913956  0.87558935  0.51647213  1
  O  O191  1  0.34157047  0.87307199  0.85874585  1
  O  O192  1  0.67139028  0.37542639  0.19210173  1
  O  O193  1  0.68106261  0.37753827  0.53185482  1
  O  O194  1  0.65981431  0.37475918  0.84398403  1
  O  O195  1  0.66815285  0.87372252  0.17428922  1
  O  O196  1  0.67362886  0.87167811  0.50914654  1
  O  O197  1  0.67170361  0.87432257  0.86348655  1
  O  O198  1  -0.00469339  0.12292733  0.16008359  1
  O  O199  1  -0.00465186  0.12583916  0.47176141  1
  O  O200  1  -0.00986303  0.11532588  0.81621839  1
  O  O201  1  -0.00906797  0.62561214  0.14323482  1
  O  O202  1  -0.00915928  0.62093360  0.47512252  1
  O  O203  1  0.00072673  0.63180124  0.81336294  1
  O  O204  1  0.33930536  0.12214469  0.13804699  1
  O  O205  1  0.32259296  0.12402006  0.47193945  1
  O  O206  1  0.32228282  0.12069242  0.82139829  1
  O  O207  1  0.32318756  0.62789299  0.13694969  1
  O  O208  1  0.33996796  0.62552424  0.48885440  1
  O  O209  1  0.32390013  0.62898768  0.81670143  1
  O  O210  1  0.66129797  0.12676829  0.14609969  1
  O  O211  1  0.67223860  0.13240314  0.47755431  1
  O  O212  1  0.66546195  0.12271003  0.81402231  1
  O  O213  1  0.66576417  0.62366209  0.14607699  1
  O  O214  1  0.65817093  0.62119842  0.48285759  1
  O  O215  1  0.66306387  0.62835382  0.80993803  1
  O  O216  1  0.08403209  0.01294944  0.25536006  1
  O  O217  1  0.08205458  0.02982337  0.58364148  1
  O  O218  1  0.09694643  0.01394039  0.90250940  1
  O  O219  1  0.08243813  0.52266209  0.24378080  1
  O  O220  1  0.07933245  0.51566598  0.58513477  1
  O  O221  1  0.08965054  0.52706386  0.91519848  1
  O  O222  1  0.42152316  0.02074667  0.24072361  1
  O  O223  1  0.41478955  0.00683070  0.57444113  1
  O  O224  1  0.42674669  0.02090453  0.90594537  1
  O  O225  1  0.42417380  0.51440682  0.22919129  1
  O  O226  1  0.43129493  0.50801524  0.57461235  1
  O  O227  1  0.42521708  0.52487470  0.90366049  1
  O  O228  1  0.75019527  0.01802634  0.25067340  1
  O  O229  1  0.75875841  0.01271342  0.58074660  1
  O  O230  1  0.75091122  0.02116888  0.91649510  1
  O  O231  1  0.75800633  0.52049527  0.25053613  1
  O  O232  1  0.75594793  0.52708983  0.57768191  1
  O  O233  1  0.75294881  0.52033379  0.92006036  1
  O  O234  1  0.25843509  0.23275333  0.25493100  1
  O  O235  1  0.24382905  0.23503347  0.57886733  1
  O  O236  1  0.25782793  0.23952347  0.91750239  1
  O  O237  1  0.24777273  0.73829432  0.24345262  1
  O  O238  1  0.25280547  0.75384937  0.58380251  1
  O  O239  1  0.25419201  0.73126854  0.92684033  1
  O  O240  1  0.59021635  0.22894906  0.25700622  1
  O  O241  1  0.59295245  0.24347235  0.59210910  1
  O  O242  1  0.58847906  0.22438470  0.92488930  1
  O  O243  1  0.58584317  0.73175068  0.25173029  1
  O  O244  1  0.59007334  0.72739694  0.59232950  1
  O  O245  1  0.59006870  0.72548067  0.92360247  1
  O  O246  1  0.91967293  0.23480799  0.25932559  1
  O  O247  1  0.91932081  0.22886634  0.58355589  1
  O  O248  1  0.91600096  0.23754034  0.91759270  1
  O  O249  1  0.91956330  0.72827852  0.25743463  1
  O  O250  1  0.92057283  0.72765312  0.59092120  1
  O  O251  1  0.92504388  0.73845732  0.92752550  1
  O  O252  1  0.06918892  0.48869608  0.07514366  1
  O  O253  1  0.07665561  0.48453530  0.41318216  1
  O  O254  1  0.08348179  0.50158708  0.75172032  1
  O  O255  1  0.08184408  0.97963370  0.07451617  1
  O  O256  1  0.08846790  0.98885852  0.42551456  1
  O  O257  1  0.07633807  0.97645320  0.74544992  1
  O  O258  1  0.40659500  0.48464278  0.06488677  1
  O  O259  1  0.42143899  0.48268373  0.41550312  1
  O  O260  1  0.41301066  0.47664889  0.74086143  1
  O  O261  1  0.40523084  0.98181935  0.06439027  1
  O  O262  1  0.40731296  0.98600130  0.40555708  1
  O  O263  1  0.41132746  0.97748718  0.74553792  1
  O  O264  1  0.74966839  0.48941003  0.08934568  1
  O  O265  1  0.74963369  0.47731482  0.41561026  1
  O  O266  1  0.73903949  0.49174932  0.73959564  1
  O  O267  1  0.74365042  0.98545906  0.07703830  1
  O  O268  1  0.74910530  0.99446239  0.41769176  1
  O  O269  1  0.75554199  0.98113724  0.75819730  1
  O  O270  1  0.25008509  0.26129591  0.08011976  1
  O  O271  1  0.24169125  0.26734503  0.42218448  1
  O  O272  1  0.25358227  0.26368244  0.74640799  1
  O  O273  1  0.23986875  0.77471451  0.08555376  1
  O  O274  1  0.24889303  0.77138030  0.41555405  1
  O  O275  1  0.24493193  0.77827000  0.75147766  1
  O  O276  1  0.57118029  0.26435854  0.09454211  1
  O  O277  1  0.58614997  0.27743010  0.42532069  1
  O  O278  1  0.57317511  0.26300557  0.76181466  1
  O  O279  1  0.58164442  0.75556476  0.08192220  1
  O  O280  1  0.57182590  0.76139074  0.43160088  1
  O  O281  1  0.57281797  0.76633409  0.76067898  1
  O  O282  1  0.91321146  0.27008051  0.08956761  1
  O  O283  1  0.91312147  0.27492675  0.42011067  1
  O  O284  1  0.91262876  0.25271633  0.75194815  1
  O  O285  1  0.91153896  0.77022588  0.08856861  1
  O  O286  1  0.90971635  0.76593498  0.43120076  1
  O  O287  1  0.91638947  0.77436926  0.75640877  1
  O  O288  1  0.24828946  0.48785083  0.07830656  1
  O  O289  1  0.24388148  0.48649284  0.41979807  1
  O  O290  1  0.25297510  0.48626818  0.74861679  1
  O  O291  1  0.24191512  0.97515255  0.08682228  1
  O  O292  1  0.24740288  0.97306077  0.41610662  1
  O  O293  1  0.24645499  0.97332792  0.75024767  1
  O  O294  1  0.57036762  0.48777692  0.09307661  1
  O  O295  1  0.58506172  0.47288760  0.42939693  1
  O  O296  1  0.57168683  0.48724263  0.76001501  1
  O  O297  1  0.58267979  0.99095784  0.07987851  1
  O  O298  1  0.57447928  0.98921513  0.42019146  1
  O  O299  1  0.57661041  0.98390647  0.76395577  1
  O  O300  1  0.91137749  0.47916806  0.09175332  1
  O  O301  1  0.91381700  0.47136831  0.41814758  1
  O  O302  1  0.91543682  0.49898269  0.75099378  1
  O  O303  1  0.91302484  0.98058590  0.08238505  1
  O  O304  1  0.90929543  0.98478104  0.43176608  1
  O  O305  1  0.91643714  0.96858952  0.75293329  1
  O  O306  1  0.07301208  0.26286221  0.07908761  1
  O  O307  1  0.08081022  0.26443632  0.41944998  1
  O  O308  1  0.08215497  0.24801490  0.74991246  1
  O  O309  1  0.07888310  0.76838824  0.07264927  1
  O  O310  1  0.08484632  0.76296066  0.42097174  1
  O  O311  1  0.08152416  0.77427855  0.75180346  1
  O  O312  1  0.40931223  0.26750908  0.06713873  1
  O  O313  1  0.41897122  0.26418129  0.41314564  1
  O  O314  1  0.41412570  0.27282088  0.74673890  1
  O  O315  1  0.40347016  0.76549527  0.06491714  1
  O  O316  1  0.40928350  0.77063611  0.40824545  1
  O  O317  1  0.41161383  0.77305964  0.73739565  1
  O  O318  1  0.74915969  0.26259013  0.08895258  1
  O  O319  1  0.74920358  0.27775380  0.41556413  1
  O  O320  1  0.73936070  0.26061302  0.74369248  1
  O  O321  1  0.74413537  0.76184409  0.07778996  1
  O  O322  1  0.75041762  0.75275888  0.42050157  1
  O  O323  1  0.75360485  0.76680221  0.75462879  1
  O  O324  1  0.26083902  0.01647445  0.25862875  1
  O  O325  1  0.24297639  0.00887684  0.57515950  1
  O  O326  1  0.26044686  0.00775230  0.92284164  1
  O  O327  1  0.24891907  0.51272545  0.24204830  1
  O  O328  1  0.25243207  0.49992750  0.58311113  1
  O  O329  1  0.25466815  0.51926310  0.91769506  1
  O  O330  1  0.58594052  0.01993714  0.25139934  1
  O  O331  1  0.58965741  0.01141670  0.58585770  1
  O  O332  1  0.58821079  0.02425127  0.92260865  1
  O  O333  1  0.58945571  0.51986115  0.25562513  1
  O  O334  1  0.59235554  0.51919724  0.59548397  1
  O  O335  1  0.58802460  0.52699668  0.92569227  1
  O  O336  1  0.91709330  0.01514470  0.26084066  1
  O  O337  1  0.92307281  0.02142044  0.59061911  1
  O  O338  1  0.91137493  0.00494386  0.91286700  1
  O  O339  1  0.92040080  0.52419485  0.25480725  1
  O  O340  1  0.91629574  0.52055407  0.58322930  1
  O  O341  1  0.92604206  0.51813340  0.92684056  1
  O  O342  1  0.07902946  0.23735417  0.25701415  1
  O  O343  1  0.08307476  0.22346527  0.58186825  1
  O  O344  1  0.08951613  0.23310382  0.91177580  1
  O  O345  1  0.08396924  0.73105795  0.24305197  1
  O  O346  1  0.07678173  0.73366682  0.59160947  1
  O  O347  1  0.09392601  0.72513734  0.91316401  1
  O  O348  1  0.42236790  0.23442080  0.23534708  1
  O  O349  1  0.41756231  0.24905755  0.58155117  1
  O  O350  1  0.42492310  0.22555964  0.90624153  1
  O  O351  1  0.42092285  0.73083647  0.23404656  1
  O  O352  1  0.43052380  0.73921100  0.56871808  1
  O  O353  1  0.42745036  0.72875019  0.90608532  1
  O  O354  1  0.75065782  0.23085507  0.25527434  1
  O  O355  1  0.75959473  0.23097507  0.57628305  1
  O  O356  1  0.75115303  0.22931268  0.91402451  1
  O  O357  1  0.75677174  0.73060293  0.24567814  1
  O  O358  1  0.75287390  0.73104116  0.58182456  1
  O  O359  1  0.75530569  0.72902940  0.91980610  1
