# generated using pymatgen
data_Ba17Sr5La8Pr42Mn72O216
_symmetry_space_group_name_H-M   'P 1'
_cell_length_a   16.67400103
_cell_length_b   15.70354347
_cell_length_c   16.82241725
_cell_angle_alpha   90.01038754
_cell_angle_beta   90.01418390
_cell_angle_gamma   89.95401857
_symmetry_Int_Tables_number   1
_chemical_formula_structural   Ba17Sr5La8Pr42Mn72O216
_chemical_formula_sum   'Ba17 Sr5 La8 Pr42 Mn72 O216'
_cell_volume   4404.79524828
_cell_formula_units_Z   1
loop_
 _symmetry_equiv_pos_site_id
 _symmetry_equiv_pos_as_xyz
  1  'x, y, z'
loop_
 _atom_site_type_symbol
 _atom_site_label
 _atom_site_symmetry_multiplicity
 _atom_site_fract_x
 _atom_site_fract_y
 _atom_site_fract_z
 _atom_site_occupancy
  Ba  Ba0  1  0.49967742  0.62535924  0.50021077  1
  Ba  Ba1  1  0.16463322  0.12435662  0.83289254  1
  Ba  Ba2  1  0.33227067  0.12417320  0.33223082  1
  Ba  Ba3  1  0.49737114  0.37631656  0.16430989  1
  Ba  Ba4  1  -0.00183338  0.12323629  0.99861561  1
  Ba  Ba5  1  0.33367418  0.37568711  0.66731580  1
  Ba  Ba6  1  0.33228878  0.12456758  0.66489965  1
  Ba  Ba7  1  0.83247353  0.12534739  0.16443572  1
  Ba  Ba8  1  0.67039044  0.87509629  0.33502822  1
  Ba  Ba9  1  0.50407812  0.87461347  0.83369298  1
  Ba  Ba10  1  0.00091312  0.37622019  0.00168875  1
  Ba  Ba11  1  0.50051041  0.37520898  0.83347902  1
  Ba  Ba12  1  0.83348605  0.37451031  0.16439099  1
  Ba  Ba13  1  0.00094736  0.37603448  0.33478913  1
  Ba  Ba14  1  0.49680808  0.62438748  0.16900407  1
  Ba  Ba15  1  0.50166408  0.12399697  0.83074909  1
  Ba  Ba16  1  0.16516683  0.37708891  0.83351946  1
  Sr  Sr17  1  0.66481647  0.12701826  0.66806399  1
  Sr  Sr18  1  0.16338984  0.62433597  0.83646057  1
  Sr  Sr19  1  0.66555654  0.37467420  0.00157497  1
  Sr  Sr20  1  0.17403050  0.87669986  0.16774278  1
  Sr  Sr21  1  0.82823237  0.62490208  0.83500182  1
  La  La22  1  0.66605600  0.13103907  0.99772777  1
  La  La23  1  0.33337568  0.12623762  0.99367522  1
  La  La24  1  0.50621998  0.87801006  0.49987004  1
  La  La25  1  0.15972684  0.62801123  0.16864964  1
  La  La26  1  0.00720095  0.87623514  0.33369948  1
  La  La27  1  0.33718087  0.87589294  -0.00126305  1
  La  La28  1  0.15978910  0.12520367  0.50483808  1
  La  La29  1  0.83408783  0.37532335  0.83362883  1
  Pr  Pr30  1  0.01167157  0.87404987  0.00196572  1
  Pr  Pr31  1  -0.01046772  0.62522302  0.99704695  1
  Pr  Pr32  1  0.32555005  0.62527849  0.32798071  1
  Pr  Pr33  1  0.50232664  0.12278524  0.50777540  1
  Pr  Pr34  1  0.17444685  0.87541926  0.83255997  1
  Pr  Pr35  1  -0.00362726  0.12542387  0.66785316  1
  Pr  Pr36  1  0.66638192  0.37693471  0.67140496  1
  Pr  Pr37  1  0.83789570  0.87571993  0.16150461  1
  Pr  Pr38  1  -0.00854843  0.62447891  0.66998423  1
  Pr  Pr39  1  0.00034965  0.37712891  0.67183078  1
  Pr  Pr40  1  0.66323028  0.62507754  0.32916067  1
  Pr  Pr41  1  0.33191881  0.37331990  -0.00189512  1
  Pr  Pr42  1  0.50150355  0.87497594  0.16340501  1
  Pr  Pr43  1  0.49644421  0.62447547  0.83550303  1
  Pr  Pr44  1  0.16938518  0.37227168  0.16201351  1
  Pr  Pr45  1  0.18047900  0.87422771  0.49591860  1
  Pr  Pr46  1  0.65974712  0.61966811  0.99948364  1
  Pr  Pr47  1  0.34289386  0.87209182  0.66931084  1
  Pr  Pr48  1  0.33157674  0.62400638  0.99873359  1
  Pr  Pr49  1  0.32768621  0.62107897  0.66809053  1
  Pr  Pr50  1  0.84113796  0.87354983  0.82967458  1
  Pr  Pr51  1  0.83994845  0.87438421  0.49618298  1
  Pr  Pr52  1  0.16092603  0.12317263  0.16746670  1
  Pr  Pr53  1  0.33762737  0.37765906  0.33444651  1
  Pr  Pr54  1  0.66498781  0.12590643  0.33249958  1
  Pr  Pr55  1  0.66722114  0.87720799  0.00427198  1
  Pr  Pr56  1  0.00990350  0.87197506  0.66817669  1
  Pr  Pr57  1  0.50080834  0.12680192  0.16673380  1
  Pr  Pr58  1  0.66682930  0.37548727  0.33290480  1
  Pr  Pr59  1  0.83030665  0.12513902  0.83837903  1
  Pr  Pr60  1  -0.00321352  0.12359769  0.32911379  1
  Pr  Pr61  1  -0.01051445  0.62702733  0.33093735  1
  Pr  Pr62  1  0.83320174  0.37580223  0.49532253  1
  Pr  Pr63  1  0.82793729  0.62023499  0.16621419  1
  Pr  Pr64  1  0.15924546  0.62539344  0.50352457  1
  Pr  Pr65  1  0.66282946  0.62509893  0.66775298  1
  Pr  Pr66  1  0.17549724  0.37495117  0.49761124  1
  Pr  Pr67  1  0.49819209  0.37003071  0.49773015  1
  Pr  Pr68  1  0.34338700  0.87321677  0.33262668  1
  Pr  Pr69  1  0.83083115  0.12624487  0.50095992  1
  Pr  Pr70  1  0.82824859  0.62455502  0.50028999  1
  Pr  Pr71  1  0.67416667  0.87474887  0.66974113  1
  Mn  Mn72  1  0.00125558  -0.00287822  0.16784023  1
  Mn  Mn73  1  -0.00004806  -0.00194099  0.50066158  1
  Mn  Mn74  1  -0.00043897  -0.00402936  0.83186011  1
  Mn  Mn75  1  0.00078590  0.50275606  0.16715748  1
  Mn  Mn76  1  -0.00052202  0.50185794  0.50249594  1
  Mn  Mn77  1  -0.00263985  0.50307182  0.83383321  1
  Mn  Mn78  1  0.33368850  -0.00030451  0.16472284  1
  Mn  Mn79  1  0.33461780  -0.00118803  0.49833835  1
  Mn  Mn80  1  0.33384836  -0.00127812  0.83216274  1
  Mn  Mn81  1  0.32883656  0.50100484  0.16655267  1
  Mn  Mn82  1  0.33269391  0.50244224  0.49813480  1
  Mn  Mn83  1  0.33157040  0.50259452  0.83299962  1
  Mn  Mn84  1  0.66697596  0.00002952  0.16821082  1
  Mn  Mn85  1  0.67080812  0.00041961  0.50262851  1
  Mn  Mn86  1  0.67016005  -0.00142286  0.83409195  1
  Mn  Mn87  1  0.66569499  0.49995633  0.16585746  1
  Mn  Mn88  1  0.66704639  0.49872763  0.50131660  1
  Mn  Mn89  1  0.66733740  0.50109070  0.83332981  1
  Mn  Mn90  1  0.00093992  0.24914796  0.16842312  1
  Mn  Mn91  1  -0.00059649  0.25044917  0.50220588  1
  Mn  Mn92  1  -0.00233475  0.25142873  0.83180205  1
  Mn  Mn93  1  -0.00092298  0.75094834  0.16605543  1
  Mn  Mn94  1  0.00056716  0.74963079  0.50073007  1
  Mn  Mn95  1  0.00016057  0.74919562  0.83526419  1
  Mn  Mn96  1  0.33131788  0.24766083  0.16493443  1
  Mn  Mn97  1  0.33297962  0.24967611  0.49692736  1
  Mn  Mn98  1  0.33325766  0.24934538  0.83229456  1
  Mn  Mn99  1  0.33126365  0.75117153  0.16638295  1
  Mn  Mn100  1  0.33416716  0.74866402  0.49988294  1
  Mn  Mn101  1  0.33200435  0.74885380  0.83257067  1
  Mn  Mn102  1  0.66498925  0.24855942  0.16654269  1
  Mn  Mn103  1  0.66816411  0.25179831  0.50107034  1
  Mn  Mn104  1  0.66852026  0.25157028  0.83216492  1
  Mn  Mn105  1  0.66832588  0.75123925  0.16689278  1
  Mn  Mn106  1  0.66949625  0.74933999  0.50158800  1
  Mn  Mn107  1  0.66941627  0.74969408  0.83552339  1
  Mn  Mn108  1  0.16722676  0.25002594  0.00095501  1
  Mn  Mn109  1  0.16652571  0.24970539  0.33355110  1
  Mn  Mn110  1  0.16359367  0.24944955  0.66507775  1
  Mn  Mn111  1  0.16779547  0.74915381  0.00176603  1
  Mn  Mn112  1  0.16653836  0.75039815  0.33598190  1
  Mn  Mn113  1  0.16627707  0.74978074  0.66656267  1
  Mn  Mn114  1  0.49840635  0.25024230  0.00060174  1
  Mn  Mn115  1  0.50042260  0.24899255  0.33389210  1
  Mn  Mn116  1  0.50153339  0.25014115  0.66451960  1
  Mn  Mn117  1  0.50076126  0.74930736  0.00031045  1
  Mn  Mn118  1  0.50111299  0.75020293  0.33408998  1
  Mn  Mn119  1  0.50236713  0.74872716  0.66734295  1
  Mn  Mn120  1  0.83197154  0.25042627  -0.00107633  1
  Mn  Mn121  1  0.83270446  0.25030701  0.33523876  1
  Mn  Mn122  1  0.83341892  0.24991211  0.66536228  1
  Mn  Mn123  1  0.83114910  0.75186017  -0.00177638  1
  Mn  Mn124  1  0.83463326  0.75028904  0.33148089  1
  Mn  Mn125  1  0.83382039  0.74934720  0.66490601  1
  Mn  Mn126  1  0.16876180  -0.00290992  0.00060497  1
  Mn  Mn127  1  0.16816867  -0.00153729  0.33512053  1
  Mn  Mn128  1  0.16527697  -0.00350920  0.66386566  1
  Mn  Mn129  1  0.16695344  0.50295377  0.00320361  1
  Mn  Mn130  1  0.16526696  0.50128633  0.33392928  1
  Mn  Mn131  1  0.16318012  0.50396583  0.66612109  1
  Mn  Mn132  1  0.50066991  -0.00128073  0.00196418  1
  Mn  Mn133  1  0.50191290  0.00140664  0.33351071  1
  Mn  Mn134  1  0.50335051  -0.00112320  0.66503611  1
  Mn  Mn135  1  0.49743898  0.50108931  -0.00037957  1
  Mn  Mn136  1  0.50012208  0.49889406  0.33548965  1
  Mn  Mn137  1  0.50091365  0.50216773  0.66659945  1
  Mn  Mn138  1  0.83182052  -0.00348981  -0.00393791  1
  Mn  Mn139  1  0.83519292  -0.00073260  0.33363993  1
  Mn  Mn140  1  0.83475579  0.00009165  0.66521014  1
  Mn  Mn141  1  0.83057306  0.50225929  -0.00056926  1
  Mn  Mn142  1  0.83149973  0.50042660  0.33451196  1
  Mn  Mn143  1  0.83256898  0.50107537  0.66492237  1
  O  O144  1  0.17637873  0.12191117  0.02105521  1
  O  O145  1  0.16220946  0.12021041  0.36160061  1
  O  O146  1  0.16001209  0.11719632  0.67439236  1
  O  O147  1  0.17875517  0.62780483  0.02627001  1
  O  O148  1  0.17548164  0.62679868  0.36133852  1
  O  O149  1  0.17585266  0.62950646  0.68506782  1
  O  O150  1  0.49557868  0.12045600  0.02206714  1
  O  O151  1  0.50711195  0.12693087  0.36266929  1
  O  O152  1  0.50506027  0.12341711  0.66914782  1
  O  O153  1  0.50084983  0.62747779  0.01276277  1
  O  O154  1  0.50483568  0.62361336  0.34483877  1
  O  O155  1  0.51102346  0.62664517  0.68863671  1
  O  O156  1  0.82964023  0.12091539  0.00571776  1
  O  O157  1  0.83652029  0.12603738  0.35682936  1
  O  O158  1  0.84133602  0.12382712  0.69473455  1
  O  O159  1  0.83792109  0.63265501  0.02377406  1
  O  O160  1  0.83408912  0.62638260  0.35637200  1
  O  O161  1  0.83792701  0.62625795  0.68765480  1
  O  O162  1  0.16957813  0.38008464  0.30689828  1
  O  O163  1  0.15282390  0.38092421  0.64203778  1
  O  O164  1  0.16820896  0.37905498  0.99221059  1
  O  O165  1  0.16007911  0.87319446  0.31677845  1
  O  O166  1  0.15795408  0.87188757  0.63767379  1
  O  O167  1  0.16310557  0.87023915  0.97795990  1
  O  O168  1  0.49804092  0.37344929  0.32040959  1
  O  O169  1  0.50711032  0.37853534  0.64386459  1
  O  O170  1  0.49231748  0.37884414  0.99024359  1
  O  O171  1  0.49643888  0.87578622  0.30801453  1
  O  O172  1  0.49659671  0.87166645  0.64554326  1
  O  O173  1  0.50424922  0.87193527  0.98919472  1
  O  O174  1  0.82645617  0.37577410  0.32213021  1
  O  O175  1  0.83388326  0.37668677  0.63717087  1
  O  O176  1  0.82833731  0.37707269  0.98054564  1
  O  O177  1  0.83781536  0.87135005  0.30765053  1
  O  O178  1  0.82498040  0.87319015  0.63702669  1
  O  O179  1  0.82019624  0.87237424  0.97182046  1
  O  O180  1  0.00927339  0.37790131  0.17728559  1
  O  O181  1  -0.00819879  0.38050700  0.52771091  1
  O  O182  1  -0.00563419  0.38043871  0.84212622  1
  O  O183  1  -0.00714920  0.87270807  0.18974180  1
  O  O184  1  -0.01058863  0.87363049  0.52636776  1
  O  O185  1  -0.00649815  0.87069912  0.85691570  1
  O  O186  1  0.32409318  0.37418569  0.19142789  1
  O  O187  1  0.33124942  0.37679216  0.51036571  1
  O  O188  1  0.33368061  0.38007178  0.85148620  1
  O  O189  1  0.33715421  0.87567993  0.19050928  1
  O  O190  1  0.33129467  0.87146144  0.52530158  1
  O  O191  1  0.32876290  0.87166028  0.85070851  1
  O  O192  1  0.66608928  0.37307866  0.18654009  1
  O  O193  1  0.67687895  0.37516219  0.52867984  1
  O  O194  1  0.67510202  0.37790637  0.85032468  1
  O  O195  1  0.66673499  0.87590449  0.17994027  1
  O  O196  1  0.67579639  0.87337930  0.52436097  1
  O  O197  1  0.67558963  0.87123751  0.85958314  1
  O  O198  1  0.00813397  0.11930697  0.15827821  1
  O  O199  1  0.00386916  0.11906176  0.47308859  1
  O  O200  1  -0.00912120  0.12041293  0.81168525  1
  O  O201  1  0.00257506  0.63048990  0.14281702  1
  O  O202  1  0.00495853  0.62634041  0.47296728  1
  O  O203  1  -0.00237118  0.62819592  0.81299979  1
  O  O204  1  0.33374874  0.12122373  0.13964924  1
  O  O205  1  0.33501115  0.12545657  0.48908838  1
  O  O206  1  0.33191452  0.12019336  0.82754860  1
  O  O207  1  0.32435773  0.62832979  0.14459773  1
  O  O208  1  0.32646766  0.62645325  0.47177811  1
  O  O209  1  0.33150454  0.62828757  0.81241525  1
  O  O210  1  0.66070240  0.12113022  0.14441632  1
  O  O211  1  0.66585926  0.12848395  0.47642256  1
  O  O212  1  0.67606810  0.12617327  0.81688280  1
  O  O213  1  0.67315240  0.62968041  0.14583413  1
  O  O214  1  0.67418857  0.62307051  0.47263815  1
  O  O215  1  0.66559255  0.62570567  0.80992222  1
  O  O216  1  0.08035371  0.01419914  0.26274999  1
  O  O217  1  0.06947813  0.01496025  0.59172859  1
  O  O218  1  0.07972424  0.00044136  0.92018653  1
  O  O219  1  0.07763071  0.52858584  0.26076530  1
  O  O220  1  0.07717420  0.52973960  0.58722865  1
  O  O221  1  0.08028185  0.52330891  0.92761747  1
  O  O222  1  0.42070293  0.01591821  0.24291126  1
  O  O223  1  0.42155355  0.00729662  0.57490661  1
  O  O224  1  0.41389953  0.00652498  0.92623303  1
  O  O225  1  0.40296406  0.51179111  0.25698525  1
  O  O226  1  0.40874567  0.51904868  0.58858830  1
  O  O227  1  0.41479176  0.52449383  0.91568481  1
  O  O228  1  0.74433909  0.01687963  0.25796783  1
  O  O229  1  0.74927880  0.02323889  0.58903788  1
  O  O230  1  0.74602014  0.01906824  0.91945636  1
  O  O231  1  0.74841204  0.52199675  0.25238202  1
  O  O232  1  0.75130016  0.52433440  0.58255516  1
  O  O233  1  0.74459751  0.52182167  0.91978835  1
  O  O234  1  0.24053273  0.23023358  0.23788831  1
  O  O235  1  0.23925511  0.24239474  0.57069655  1
  O  O236  1  0.25382436  0.24225614  0.92362585  1
  O  O237  1  0.24046570  0.73268771  0.24583004  1
  O  O238  1  0.23993710  0.73314256  0.57173815  1
  O  O239  1  0.24469943  0.73612634  0.91242252  1
  O  O240  1  0.58252637  0.22651164  0.25302677  1
  O  O241  1  0.58167653  0.23752574  0.57488491  1
  O  O242  1  0.58654160  0.23844135  0.92251701  1
  O  O243  1  0.58547477  0.73756937  0.25068384  1
  O  O244  1  0.58715800  0.73853118  0.58508115  1
  O  O245  1  0.58015451  0.72825444  0.91176296  1
  O  O246  1  0.91870262  0.23682050  0.25814305  1
  O  O247  1  0.91614773  0.22380154  0.58440811  1
  O  O248  1  0.90758976  0.24084650  0.90520418  1
  O  O249  1  0.90823790  0.72592312  0.24171580  1
  O  O250  1  0.90890241  0.72924729  0.57135155  1
  O  O251  1  0.90760562  0.73445871  0.91280243  1
  O  O252  1  0.09406187  0.49547020  0.09715141  1
  O  O253  1  0.09310310  0.48486797  0.42913233  1
  O  O254  1  0.07622966  0.49498734  0.74386295  1
  O  O255  1  0.08762457  0.98092977  0.08684719  1
  O  O256  1  0.08987187  0.97490756  0.42950601  1
  O  O257  1  0.08798615  0.97354330  0.75379719  1
  O  O258  1  0.40690110  0.49341070  0.07710101  1
  O  O259  1  0.41947479  0.48079213  0.42055051  1
  O  O260  1  0.41943398  0.50254097  0.75098671  1
  O  O261  1  0.41947462  0.97547652  0.08565675  1
  O  O262  1  0.42086312  0.97779291  0.41434285  1
  O  O263  1  0.41644169  0.98525099  0.74360595  1
  O  O264  1  0.74926203  0.49675717  0.08206944  1
  O  O265  1  0.74688352  0.47933259  0.41762963  1
  O  O266  1  0.75180024  0.48144923  0.74682268  1
  O  O267  1  0.75247367  0.97886683  0.08404694  1
  O  O268  1  0.76292995  0.98848237  0.42851018  1
  O  O269  1  0.76117771  0.97628359  0.75302722  1
  O  O270  1  0.25259399  0.27087306  0.08119541  1
  O  O271  1  0.25379111  0.27191336  0.40794590  1
  O  O272  1  0.24565086  0.25682272  0.74523876  1
  O  O273  1  0.25847521  0.77145927  0.07589269  1
  O  O274  1  0.26007545  0.77331873  0.40761438  1
  O  O275  1  0.25512144  0.77342584  0.73946887  1
  O  O276  1  0.57872372  0.25308274  0.08512579  1
  O  O277  1  0.58830380  0.27550122  0.41741440  1
  O  O278  1  0.59192302  0.26421016  0.74278806  1
  O  O279  1  0.59067729  0.76679898  0.08003112  1
  O  O280  1  0.58756450  0.76460648  0.42226066  1
  O  O281  1  0.59766450  0.76652891  0.74402223  1
  O  O282  1  0.91679900  0.25532539  0.08128306  1
  O  O283  1  0.91158574  0.26306514  0.42682646  1
  O  O284  1  0.91553339  0.27325007  0.74410529  1
  O  O285  1  0.91908382  0.77580172  0.07214548  1
  O  O286  1  0.92742078  0.76766673  0.40442330  1
  O  O287  1  0.92342817  0.77016887  0.73667066  1
  O  O288  1  0.25157746  0.47776241  0.08388897  1
  O  O289  1  0.25490514  0.47958644  0.40783416  1
  O  O290  1  0.24978070  0.49567802  0.74602901  1
  O  O291  1  0.25733889  0.97827223  0.07693852  1
  O  O292  1  0.25720400  0.97526406  0.40907655  1
  O  O293  1  0.25067143  0.97422213  0.74050000  1
  O  O294  1  0.58545202  0.49482682  0.07881332  1
  O  O295  1  0.58562486  0.47449303  0.42323613  1
  O  O296  1  0.59124467  0.48685901  0.74561768  1
  O  O297  1  0.58156203  0.98044748  0.08762368  1
  O  O298  1  0.58489807  0.98572866  0.42158380  1
  O  O299  1  0.59552593  0.98346688  0.74442994  1
  O  O300  1  0.91749068  0.50078118  0.08208038  1
  O  O301  1  0.91184233  0.49071762  0.42305096  1
  O  O302  1  0.91382915  0.48198253  0.74321700  1
  O  O303  1  0.91738524  0.97407777  0.07405092  1
  O  O304  1  0.92503675  0.97702854  0.41278881  1
  O  O305  1  0.92422130  0.97296475  0.73705071  1
  O  O306  1  0.09458233  0.25529631  0.09405887  1
  O  O307  1  0.09132253  0.26868511  0.42931057  1
  O  O308  1  0.07423770  0.25947106  0.74349651  1
  O  O309  1  0.08988389  0.76759975  0.09093669  1
  O  O310  1  0.09452017  0.76756602  0.43258400  1
  O  O311  1  0.09200149  0.77116598  0.75765419  1
  O  O312  1  0.40811663  0.26154234  0.07760205  1
  O  O313  1  0.41716296  0.26938861  0.41452709  1
  O  O314  1  0.41965907  0.25540503  0.74609255  1
  O  O315  1  0.42134125  0.76934587  0.08893355  1
  O  O316  1  0.42217269  0.77339624  0.42390522  1
  O  O317  1  0.41851070  0.75858245  0.75112040  1
  O  O318  1  0.74445091  0.25594313  0.07744595  1
  O  O319  1  0.74955233  0.26964571  0.41963722  1
  O  O320  1  0.75445057  0.27330917  0.74759049  1
  O  O321  1  0.75777320  0.77259735  0.08873472  1
  O  O322  1  0.76511913  0.76354328  0.42782672  1
  O  O323  1  0.75826516  0.77007501  0.75476198  1
  O  O324  1  0.24299407  0.01405573  0.24035674  1
  O  O325  1  0.23620975  0.00819571  0.57103895  1
  O  O326  1  0.24868736  0.00265262  0.91678019  1
  O  O327  1  0.24162280  0.52536704  0.24621845  1
  O  O328  1  0.24242668  0.51821985  0.57515239  1
  O  O329  1  0.25265545  0.51783033  0.92259125  1
  O  O330  1  0.58180041  0.02441972  0.25177696  1
  O  O331  1  0.58329930  0.00892411  0.57853938  1
  O  O332  1  0.58727068  0.01094680  0.92734839  1
  O  O333  1  0.58984626  0.50966225  0.25857110  1
  O  O334  1  0.59065538  0.51579198  0.58740430  1
  O  O335  1  0.57984961  0.52069949  0.91253213  1
  O  O336  1  0.91714764  0.01208437  0.25234375  1
  O  O337  1  0.90954462  0.02278836  0.57476335  1
  O  O338  1  0.90455111  0.00650545  0.90148799  1
  O  O339  1  0.91436793  0.52168891  0.24852346  1
  O  O340  1  0.91543936  0.52671801  0.58244170  1
  O  O341  1  0.91229963  0.51899258  0.91606573  1
  O  O342  1  0.08109071  0.22740905  0.25893514  1
  O  O343  1  0.07619127  0.22817411  0.58581556  1
  O  O344  1  0.08171146  0.24227941  0.91859551  1
  O  O345  1  0.07433583  0.73129543  0.26634774  1
  O  O346  1  0.07276078  0.72822019  0.59719124  1
  O  O347  1  0.07511614  0.73257703  0.93171100  1
  O  O348  1  0.41865353  0.23254816  0.24253266  1
  O  O349  1  0.42285419  0.24230306  0.57308421  1
  O  O350  1  0.41425739  0.23871253  0.92077020  1
  O  O351  1  0.40244986  0.73621515  0.25959814  1
  O  O352  1  0.40358536  0.73219768  0.59192463  1
  O  O353  1  0.41104652  0.73156166  0.92099937  1
  O  O354  1  0.74211389  0.23528861  0.25891553  1
  O  O355  1  0.75314812  0.22852505  0.58163026  1
  O  O356  1  0.75011162  0.23439691  0.91368542  1
  O  O357  1  0.74745013  0.72758133  0.25457454  1
  O  O358  1  0.74607656  0.72382558  0.58961035  1
  O  O359  1  0.74097250  0.72656074  0.92775420  1
