# generated using pymatgen
data_Ba17Sr5La8Pr42Mn72O216
_symmetry_space_group_name_H-M   'P 1'
_cell_length_a   16.67394254
_cell_length_b   15.69726630
_cell_length_c   16.81982606
_cell_angle_alpha   90.01019480
_cell_angle_beta   90.00433054
_cell_angle_gamma   89.99566656
_symmetry_Int_Tables_number   1
_chemical_formula_structural   Ba17Sr5La8Pr42Mn72O216
_chemical_formula_sum   'Ba17 Sr5 La8 Pr42 Mn72 O216'
_cell_volume   4402.34239971
_cell_formula_units_Z   1
loop_
 _symmetry_equiv_pos_site_id
 _symmetry_equiv_pos_as_xyz
  1  'x, y, z'
loop_
 _atom_site_type_symbol
 _atom_site_label
 _atom_site_symmetry_multiplicity
 _atom_site_fract_x
 _atom_site_fract_y
 _atom_site_fract_z
 _atom_site_occupancy
  Ba  Ba0  1  0.00030665  0.37399962  -0.00110384  1
  Ba  Ba1  1  0.16778134  0.37308423  0.83345700  1
  Ba  Ba2  1  -0.00429491  0.12349990  1.00253380  1
  Ba  Ba3  1  0.33337420  0.62510110  0.66502899  1
  Ba  Ba4  1  0.33691970  0.62575552  0.99755742  1
  Ba  Ba5  1  0.67113742  0.62588430  0.99694887  1
  Ba  Ba6  1  0.16570333  0.87589572  0.83232138  1
  Ba  Ba7  1  0.00334224  0.62565366  0.33347708  1
  Ba  Ba8  1  -0.00200649  0.37710372  0.33553175  1
  Ba  Ba9  1  0.49792001  0.12258028  0.50210623  1
  Ba  Ba10  1  0.83215849  0.12450775  0.16833825  1
  Ba  Ba11  1  0.66995467  0.62609742  0.66470724  1
  Ba  Ba12  1  0.16200634  0.12468864  0.49886342  1
  Ba  Ba13  1  0.49672916  0.12401833  0.17042933  1
  Ba  Ba14  1  0.66953152  0.37593268  0.66592914  1
  Ba  Ba15  1  0.33504669  0.37552464  0.33273944  1
  Ba  Ba16  1  0.33366125  0.87360374  -0.00138510  1
  Sr  Sr17  1  0.49895411  0.87181357  0.83465219  1
  Sr  Sr18  1  0.83378046  0.37504207  0.83095280  1
  Sr  Sr19  1  -0.00209288  0.87657934  0.00035609  1
  Sr  Sr20  1  0.83094899  0.37615218  0.49934781  1
  Sr  Sr21  1  0.49871290  0.87202661  0.50201978  1
  La  La22  1  0.66515081  0.12595562  0.66687824  1
  La  La23  1  0.33776965  0.62605589  0.33223188  1
  La  La24  1  -0.00104540  0.37456478  0.67082916  1
  La  La25  1  0.66368554  0.87478717  0.00095183  1
  La  La26  1  0.16880604  0.87342293  0.50059231  1
  La  La27  1  0.66302238  0.12522906  0.99946967  1
  La  La28  1  0.66393372  0.87997687  0.33374580  1
  La  La29  1  0.17286919  0.62448121  0.16492366  1
  Pr  Pr30  1  0.16624076  0.37791592  0.16112763  1
  Pr  Pr31  1  0.66688608  0.36880402  0.33807537  1
  Pr  Pr32  1  0.50257437  0.62805454  0.16741163  1
  Pr  Pr33  1  0.16952515  0.62025521  0.50025208  1
  Pr  Pr34  1  0.65862844  0.87674733  0.66885191  1
  Pr  Pr35  1  0.50158460  0.38041041  0.83366372  1
  Pr  Pr36  1  0.67060172  0.37695169  -0.00058655  1
  Pr  Pr37  1  0.83295087  0.12711255  0.49932317  1
  Pr  Pr38  1  0.16880229  0.37484984  0.49865928  1
  Pr  Pr39  1  0.32569079  0.12417614  0.99929109  1
  Pr  Pr40  1  0.84187044  0.62429018  0.16651368  1
  Pr  Pr41  1  0.67043741  0.62501499  0.32955223  1
  Pr  Pr42  1  0.00499354  0.62643606  0.99644345  1
  Pr  Pr43  1  0.49741014  0.87545934  0.16284815  1
  Pr  Pr44  1  0.83056598  0.87158444  0.16185019  1
  Pr  Pr45  1  -0.00554561  0.12471695  0.66918027  1
  Pr  Pr46  1  0.83996237  0.61997849  0.83267052  1
  Pr  Pr47  1  0.32228541  0.12553934  0.33153014  1
  Pr  Pr48  1  0.17283386  0.62489748  0.83579406  1
  Pr  Pr49  1  0.32302909  0.12389184  0.66466577  1
  Pr  Pr50  1  0.84408743  0.62270433  0.50319792  1
  Pr  Pr51  1  0.83037026  0.87655111  0.83144347  1
  Pr  Pr52  1  -0.00260047  0.87583128  0.33496886  1
  Pr  Pr53  1  0.00612889  0.62659776  0.66471942  1
  Pr  Pr54  1  0.33822417  0.36992525  0.66642351  1
  Pr  Pr55  1  0.50263954  0.37876851  0.49858983  1
  Pr  Pr56  1  0.50294931  0.37496343  0.16527047  1
  Pr  Pr57  1  0.15760326  0.12433563  0.83402218  1
  Pr  Pr58  1  0.16099713  0.87187045  0.15795367  1
  Pr  Pr59  1  -0.00148104  0.87660665  0.67041041  1
  Pr  Pr60  1  0.83007697  0.87008426  0.49825773  1
  Pr  Pr61  1  0.33569075  0.37598718  0.00682786  1
  Pr  Pr62  1  0.83276701  0.37768123  0.16538154  1
  Pr  Pr63  1  0.34011105  0.88084789  0.67314735  1
  Pr  Pr64  1  0.50747953  0.62647925  0.83519662  1
  Pr  Pr65  1  0.82824624  0.12913269  0.84020986  1
  Pr  Pr66  1  0.49639986  0.12521096  0.83931320  1
  Pr  Pr67  1  0.50372816  0.62349213  0.50341307  1
  Pr  Pr68  1  0.15947581  0.12303237  0.16959514  1
  Pr  Pr69  1  0.33554465  0.87846470  0.33447004  1
  Pr  Pr70  1  -0.00497543  0.12595990  0.32824135  1
  Pr  Pr71  1  0.66058732  0.12575287  0.33063703  1
  Mn  Mn72  1  -0.00164473  -0.00250931  0.16899911  1
  Mn  Mn73  1  -0.00261592  -0.00188165  0.50041060  1
  Mn  Mn74  1  -0.00417520  -0.00145302  0.83375905  1
  Mn  Mn75  1  0.00177912  0.50036616  0.16548280  1
  Mn  Mn76  1  0.00106540  0.49970233  0.50287224  1
  Mn  Mn77  1  0.00069552  0.50072200  0.83100613  1
  Mn  Mn78  1  0.33073940  -0.00023043  0.16839811  1
  Mn  Mn79  1  0.33299827  -0.00198102  0.50139553  1
  Mn  Mn80  1  0.33433265  0.00240493  0.83262742  1
  Mn  Mn81  1  0.33592090  0.50090733  0.16729294  1
  Mn  Mn82  1  0.33435481  0.49981808  0.49912958  1
  Mn  Mn83  1  0.33515391  0.49783206  0.83250476  1
  Mn  Mn84  1  0.66618830  -0.00112219  0.16802513  1
  Mn  Mn85  1  0.66756587  -0.00063467  0.50148467  1
  Mn  Mn86  1  0.66453737  -0.00020644  0.83299384  1
  Mn  Mn87  1  0.66708275  0.50145286  0.16741665  1
  Mn  Mn88  1  0.66841216  0.50068805  0.49608467  1
  Mn  Mn89  1  0.66955968  0.50032259  0.83292741  1
  Mn  Mn90  1  -0.00001996  0.25118085  0.16907627  1
  Mn  Mn91  1  -0.00247415  0.24905308  0.50171371  1
  Mn  Mn92  1  -0.00238868  0.24950241  0.83324613  1
  Mn  Mn93  1  0.00081007  0.74970664  0.16482163  1
  Mn  Mn94  1  0.00200016  0.75200729  0.50107017  1
  Mn  Mn95  1  -0.00162918  0.75029597  0.83149359  1
  Mn  Mn96  1  0.33187513  0.24875192  0.16667286  1
  Mn  Mn97  1  0.33339524  0.24900971  0.50060877  1
  Mn  Mn98  1  0.33445152  0.24956211  0.83419970  1
  Mn  Mn99  1  0.33521891  0.74932654  0.16924694  1
  Mn  Mn100  1  0.33374229  0.75192393  0.49847324  1
  Mn  Mn101  1  0.33494904  0.75067238  0.83025886  1
  Mn  Mn102  1  0.66627439  0.25245874  0.16777020  1
  Mn  Mn103  1  0.66655815  0.24828612  0.50068590  1
  Mn  Mn104  1  0.66484754  0.25065206  0.83310873  1
  Mn  Mn105  1  0.66743641  0.74845128  0.16677294  1
  Mn  Mn106  1  0.66712231  0.75161835  0.49765622  1
  Mn  Mn107  1  0.66862998  0.75202869  0.83140101  1
  Mn  Mn108  1  0.16810257  0.24778745  0.00026519  1
  Mn  Mn109  1  0.16449918  0.25149667  0.33286361  1
  Mn  Mn110  1  0.16469414  0.24964299  0.66622266  1
  Mn  Mn111  1  0.16560114  0.75064949  -0.00208784  1
  Mn  Mn112  1  0.16961410  0.75238832  0.33153531  1
  Mn  Mn113  1  0.16698040  0.75018016  0.66458484  1
  Mn  Mn114  1  0.49904860  0.25003975  0.00105290  1
  Mn  Mn115  1  0.49828617  0.24971223  0.33501042  1
  Mn  Mn116  1  0.49960780  0.24941964  0.67001354  1
  Mn  Mn117  1  0.50227764  0.75116213  -0.00041987  1
  Mn  Mn118  1  0.50115357  0.75121633  0.33451978  1
  Mn  Mn119  1  0.50007062  0.75027209  0.66580298  1
  Mn  Mn120  1  0.83017010  0.25171809  0.00087873  1
  Mn  Mn121  1  0.83192936  0.25032452  0.33553618  1
  Mn  Mn122  1  0.83388272  0.24780135  0.66752521  1
  Mn  Mn123  1  0.83536437  0.75021054  -0.00269814  1
  Mn  Mn124  1  0.83230502  0.75011086  0.33171243  1
  Mn  Mn125  1  0.83419042  0.75216251  0.66552746  1
  Mn  Mn126  1  0.16509374  -0.00020432  0.00068844  1
  Mn  Mn127  1  0.16479731  -0.00350602  0.33184376  1
  Mn  Mn128  1  0.16403675  -0.00025932  0.66550324  1
  Mn  Mn129  1  0.16846341  0.50050245  -0.00159310  1
  Mn  Mn130  1  0.16896245  0.50066100  0.33265321  1
  Mn  Mn131  1  0.16702656  0.49888640  0.66624275  1
  Mn  Mn132  1  0.49919210  0.00079107  0.00162819  1
  Mn  Mn133  1  0.49793775  -0.00136463  0.33553174  1
  Mn  Mn134  1  0.49981211  0.00150848  0.67098696  1
  Mn  Mn135  1  0.50276988  0.49906431  -0.00025420  1
  Mn  Mn136  1  0.50286605  0.50107249  0.33354092  1
  Mn  Mn137  1  0.50008859  0.49966894  0.66627115  1
  Mn  Mn138  1  0.83037962  -0.00151461  -0.00056309  1
  Mn  Mn139  1  0.83242864  -0.00309019  0.33519164  1
  Mn  Mn140  1  0.83190225  0.00034134  0.66590977  1
  Mn  Mn141  1  0.83507246  0.50027799  -0.00046770  1
  Mn  Mn142  1  0.83152461  0.50170860  0.33323920  1
  Mn  Mn143  1  0.83574887  0.50041432  0.66644585  1
  O  O144  1  0.17370410  0.12349996  0.02374464  1
  O  O145  1  0.16799762  0.12350252  0.34439341  1
  O  O146  1  0.17373761  0.12486042  0.68644637  1
  O  O147  1  0.16300802  0.62629043  0.01781627  1
  O  O148  1  0.17490876  0.63052358  0.35764799  1
  O  O149  1  0.16358094  0.62601076  0.69084055  1
  O  O150  1  0.50707988  0.12618552  0.01591375  1
  O  O151  1  0.50968928  0.12335575  0.34541031  1
  O  O152  1  0.50788045  0.12570485  0.69468416  1
  O  O153  1  0.50496873  0.62315649  0.02176946  1
  O  O154  1  0.50373931  0.62819977  0.36035415  1
  O  O155  1  0.50100509  0.62635870  0.68959398  1
  O  O156  1  0.82498843  0.12570876  0.01100843  1
  O  O157  1  0.84024700  0.11937056  0.35527338  1
  O  O158  1  0.83643547  0.12042695  0.69613512  1
  O  O159  1  0.84089063  0.62676507  0.02288816  1
  O  O160  1  0.82608455  0.62811897  0.35889108  1
  O  O161  1  0.84069026  0.63079206  0.68848571  1
  O  O162  1  0.16614435  0.37350765  0.30707632  1
  O  O163  1  0.15620200  0.37413507  0.64420124  1
  O  O164  1  0.17359780  0.37300747  0.99200135  1
  O  O165  1  0.16859831  0.87391271  0.30184820  1
  O  O166  1  0.15631674  0.87461049  0.64602609  1
  O  O167  1  0.16209691  0.87600173  0.99118609  1
  O  O168  1  0.50505652  0.37724093  0.30965247  1
  O  O169  1  0.49279532  0.37255432  0.64247583  1
  O  O170  1  0.49130233  0.37208482  0.97708007  1
  O  O171  1  0.49446355  0.87303900  0.30692779  1
  O  O172  1  0.49763374  0.87594984  0.65052580  1
  O  O173  1  0.50365486  0.87852430  0.98587867  1
  O  O174  1  0.82215311  0.37856883  0.31062248  1
  O  O175  1  0.84059065  0.37142851  0.64877041  1
  O  O176  1  0.82475016  0.37548790  0.98203937  1
  O  O177  1  0.83162426  0.87299164  0.30609370  1
  O  O178  1  0.83719433  0.87781653  0.63915715  1
  O  O179  1  0.82835917  0.87303241  0.97623339  1
  O  O180  1  0.00842981  0.37601067  0.17678309  1
  O  O181  1  0.00421156  0.37899770  0.52555205  1
  O  O182  1  -0.00049629  0.37527138  0.84003102  1
  O  O183  1  0.00757311  0.87184379  0.19066027  1
  O  O184  1  -0.00014361  0.87475579  0.52755867  1
  O  O185  1  -0.00589854  0.87397036  0.85098346  1
  O  O186  1  0.32955505  0.37501367  0.17645608  1
  O  O187  1  0.33638665  0.37374610  0.52109954  1
  O  O188  1  0.33957974  0.37180563  0.86266906  1
  O  O189  1  0.33914467  0.87318380  0.19087930  1
  O  O190  1  0.33186961  0.87337030  0.52651819  1
  O  O191  1  0.33578501  0.87746447  0.84115717  1
  O  O192  1  0.66999456  0.37945795  0.19423577  1
  O  O193  1  0.66557698  0.37469433  0.50882746  1
  O  O194  1  0.66623130  0.37266677  0.85423151  1
  O  O195  1  0.67557180  0.86966603  0.19048399  1
  O  O196  1  0.67612781  0.87679805  0.52584378  1
  O  O197  1  0.67502876  0.87695345  0.85662159  1
  O  O198  1  0.00219012  0.12371518  0.16066407  1
  O  O199  1  -0.00740477  0.11683901  0.47072690  1
  O  O200  1  -0.00870921  0.12268251  0.81526176  1
  O  O201  1  -0.00639790  0.62681520  0.14325270  1
  O  O202  1  -0.00308609  0.62787372  0.48804898  1
  O  O203  1  -0.00888055  0.62706808  0.80781681  1
  O  O204  1  0.32692860  0.12461968  0.14458835  1
  O  O205  1  0.33180129  0.12351023  0.47745186  1
  O  O206  1  0.34449561  0.12789343  0.80624771  1
  O  O207  1  0.33656926  0.62523176  0.15425791  1
  O  O208  1  0.32887627  0.62800745  0.47598560  1
  O  O209  1  0.32895562  0.62390707  0.82066804  1
  O  O210  1  0.66462243  0.12867996  0.14439135  1
  O  O211  1  0.67199857  0.12144401  0.47428166  1
  O  O212  1  0.66462771  0.12362537  0.81131076  1
  O  O213  1  0.65552972  0.62486034  0.14977741  1
  O  O214  1  0.65812364  0.62689568  0.47439087  1
  O  O215  1  0.65868908  0.62807950  0.82229856  1
  O  O216  1  0.07990634  0.01646010  0.25530020  1
  O  O217  1  0.07215636  0.01563430  0.58883566  1
  O  O218  1  0.08345403  0.01663929  0.91304968  1
  O  O219  1  0.09303220  0.51598628  0.24255014  1
  O  O220  1  0.08557933  0.52386770  0.58407643  1
  O  O221  1  0.08568767  0.52339765  0.91165674  1
  O  O222  1  0.40330603  0.01471456  0.26267952  1
  O  O223  1  0.40963675  0.01524984  0.59887227  1
  O  O224  1  0.41329120  0.02351301  0.92175713  1
  O  O225  1  0.42480539  0.52000080  0.24837640  1
  O  O226  1  0.42155695  0.51446230  0.57731222  1
  O  O227  1  0.42936063  0.51520850  0.90765993  1
  O  O228  1  0.74290759  0.01556732  0.26103236  1
  O  O229  1  0.75047207  0.02573032  0.58514990  1
  O  O230  1  0.74297950  0.02080109  0.91508812  1
  O  O231  1  0.75316419  0.52729512  0.24288567  1
  O  O232  1  0.75953029  0.51613665  0.56948104  1
  O  O233  1  0.76044265  0.51490288  0.90999992  1
  O  O234  1  0.24253594  0.23066256  0.24135968  1
  O  O235  1  0.24611811  0.24296031  0.58228106  1
  O  O236  1  0.24673807  0.22236334  0.90913368  1
  O  O237  1  0.25907279  0.73064243  0.25727047  1
  O  O238  1  0.24509282  0.73610642  0.57244878  1
  O  O239  1  0.24704589  0.73833844  0.91119184  1
  O  O240  1  0.58296282  0.24241237  0.25063587  1
  O  O241  1  0.58598474  0.23516096  0.58642329  1
  O  O242  1  0.57678985  0.23261669  0.91394841  1
  O  O243  1  0.58553264  0.73172407  0.25362829  1
  O  O244  1  0.58377298  0.74042120  0.58084495  1
  O  O245  1  0.58697391  0.74366875  0.91644995  1
  O  O246  1  0.91570722  0.24099480  0.25686445  1
  O  O247  1  0.91240118  0.22260858  0.58252698  1
  O  O248  1  0.90568560  0.23902901  0.90961302  1
  O  O249  1  0.91552592  0.73685167  0.24747917  1
  O  O250  1  0.92389837  0.73471414  0.59152320  1
  O  O251  1  0.92284853  0.72787646  0.92060097  1
  O  O252  1  0.08821176  0.49245306  0.08281010  1
  O  O253  1  0.08804793  0.48890952  0.42511721  1
  O  O254  1  0.07822022  0.49089879  0.74336217  1
  O  O255  1  0.08346750  0.98720775  0.09212536  1
  O  O256  1  0.08291253  0.97256253  0.41632469  1
  O  O257  1  0.07807424  0.99441608  0.74764687  1
  O  O258  1  0.41886794  0.47980304  0.08313454  1
  O  O259  1  0.42348588  0.48981861  0.41984636  1
  O  O260  1  0.41501458  0.47550136  0.74816565  1
  O  O261  1  0.41999822  0.98545813  0.09290899  1
  O  O262  1  0.41632514  0.97929199  0.42009204  1
  O  O263  1  0.42199724  0.98587665  0.75594082  1
  O  O264  1  0.74700199  0.48111085  0.08307641  1
  O  O265  1  0.73953237  0.48808197  0.40328840  1
  O  O266  1  0.75256366  0.49542852  0.74955806  1
  O  O267  1  0.74920178  0.97812054  0.08416122  1
  O  O268  1  0.75414437  0.97699310  0.42004171  1
  O  O269  1  0.74929512  0.97819076  0.74720597  1
  O  O270  1  0.26121623  0.26300768  0.07201532  1
  O  O271  1  0.24852518  0.26350269  0.41438644  1
  O  O272  1  0.25991965  0.26399381  0.74119520  1
  O  O273  1  0.24396894  0.76038418  0.09572981  1
  O  O274  1  0.24915466  0.77874075  0.41547839  1
  O  O275  1  0.25150245  0.76638516  0.74136504  1
  O  O276  1  0.58658375  0.27744180  0.07889011  1
  O  O277  1  0.58399010  0.26730533  0.41440640  1
  O  O278  1  0.58114797  0.26789593  0.75376670  1
  O  O279  1  0.58368339  0.77297495  0.08994860  1
  O  O280  1  0.58234437  0.77470473  0.41398053  1
  O  O281  1  0.58423630  0.76906555  0.75052534  1
  O  O282  1  0.91375305  0.26535835  0.08979684  1
  O  O283  1  0.91218969  0.26034827  0.42244970  1
  O  O284  1  0.92398206  0.26098121  0.74015216  1
  O  O285  1  0.91038389  0.77015910  0.08671656  1
  O  O286  1  0.91463246  0.77074395  0.42043766  1
  O  O287  1  0.90862210  0.77428063  0.75472412  1
  O  O288  1  0.25025506  0.48629977  0.08452684  1
  O  O289  1  0.24727207  0.48447185  0.42093859  1
  O  O290  1  0.25318294  0.48015487  0.74147877  1
  O  O291  1  0.24787178  0.98353206  0.08842453  1
  O  O292  1  0.24954044  0.97776614  0.40978555  1
  O  O293  1  0.25768636  0.99035561  0.74195804  1
  O  O294  1  0.58281745  0.47317430  0.08707127  1
  O  O295  1  0.58202392  0.47889768  0.41564011  1
  O  O296  1  0.57687814  0.48751500  0.75691625  1
  O  O297  1  0.58543295  0.97945409  0.08260297  1
  O  O298  1  0.58707226  0.98124479  0.41524961  1
  O  O299  1  0.58672776  0.97994302  0.75008708  1
  O  O300  1  0.90906059  0.48555684  0.08939601  1
  O  O301  1  0.90895259  0.49251353  0.42475855  1
  O  O302  1  0.91602604  0.48634428  0.75228486  1
  O  O303  1  0.91431417  0.97896336  0.09004565  1
  O  O304  1  0.91530533  0.96944099  0.41843458  1
  O  O305  1  0.91539949  0.97718826  0.74548372  1
  O  O306  1  0.09685265  0.25796486  0.09417471  1
  O  O307  1  0.08705979  0.26680212  0.42436066  1
  O  O308  1  0.08641671  0.25015882  0.75177718  1
  O  O309  1  0.07728961  0.76217329  0.07776827  1
  O  O310  1  0.08304726  0.77411622  0.41127332  1
  O  O311  1  0.07042131  0.76221392  0.73967755  1
  O  O312  1  0.42249977  0.27045954  0.08979638  1
  O  O313  1  0.42493007  0.26622819  0.42735455  1
  O  O314  1  0.42202109  0.27411901  0.75979533  1
  O  O315  1  0.42204140  0.76201896  0.09072425  1
  O  O316  1  0.40987830  0.76735273  0.40840171  1
  O  O317  1  0.41394674  0.76617331  0.74313705  1
  O  O318  1  0.74991607  0.27500226  0.08768621  1
  O  O319  1  0.74840401  0.26094462  0.41629243  1
  O  O320  1  0.75616496  0.25492840  0.75587124  1
  O  O321  1  0.74813512  0.76881467  0.07802533  1
  O  O322  1  0.74546778  0.77308503  0.40918676  1
  O  O323  1  0.74602492  0.77535749  0.74027021  1
  O  O324  1  0.24562863  0.01973296  0.24742280  1
  O  O325  1  0.24724096  0.00827875  0.58177859  1
  O  O326  1  0.24946067  0.02469274  0.91055670  1
  O  O327  1  0.25565851  0.52077843  0.25101211  1
  O  O328  1  0.24399550  0.50960797  0.57698676  1
  O  O329  1  0.24855184  0.51196511  0.91293969  1
  O  O330  1  0.58314917  0.00506780  0.25222412  1
  O  O331  1  0.58852296  0.01199987  0.59176019  1
  O  O332  1  0.58108776  0.01891452  0.91500541  1
  O  O333  1  0.58577221  0.52299892  0.25265249  1
  O  O334  1  0.58117092  0.51206764  0.57678695  1
  O  O335  1  0.58772171  0.50376595  0.91987427  1
  O  O336  1  0.92139141  0.00752723  0.25937698  1
  O  O337  1  0.91155736  0.02422416  0.58243835  1
  O  O338  1  0.90584985  0.01032807  0.90830397  1
  O  O339  1  0.91286403  0.51308650  0.24853658  1
  O  O340  1  0.92291838  0.52041398  0.58920708  1
  O  O341  1  0.92341638  0.52137557  0.91916970  1
  O  O342  1  0.07875362  0.22980463  0.25581028  1
  O  O343  1  0.07120453  0.23211043  0.59297825  1
  O  O344  1  0.08444382  0.23265682  0.91709397  1
  O  O345  1  0.09623619  0.73292315  0.23907909  1
  O  O346  1  0.08902711  0.72830213  0.57742099  1
  O  O347  1  0.08409928  0.72550008  0.90712311  1
  O  O348  1  0.40570185  0.23272946  0.26129065  1
  O  O349  1  0.40719391  0.23224935  0.59967618  1
  O  O350  1  0.41055255  0.22551849  0.92554245  1
  O  O351  1  0.42333189  0.72677270  0.24969036  1
  O  O352  1  0.42304786  0.73325584  0.57206307  1
  O  O353  1  0.42479763  0.73608534  0.90722025  1
  O  O354  1  0.74225828  0.23370005  0.25899366  1
  O  O355  1  0.75052680  0.22597442  0.58616293  1
  O  O356  1  0.73864078  0.23217735  0.92224670  1
  O  O357  1  0.75282875  0.72432004  0.24259103  1
  O  O358  1  0.76418345  0.73433837  0.57021558  1
  O  O359  1  0.76431780  0.73544005  0.90127596  1
