# generated using pymatgen
data_Ba17Sr5La8Pr42Mn72O216
_symmetry_space_group_name_H-M   'P 1'
_cell_length_a   16.69315557
_cell_length_b   15.72354363
_cell_length_c   16.82764056
_cell_angle_alpha   90.00169934
_cell_angle_beta   89.94072452
_cell_angle_gamma   89.99483748
_symmetry_Int_Tables_number   1
_chemical_formula_structural   Ba17Sr5La8Pr42Mn72O216
_chemical_formula_sum   'Ba17 Sr5 La8 Pr42 Mn72 O216'
_cell_volume   4416.84199521
_cell_formula_units_Z   1
loop_
 _symmetry_equiv_pos_site_id
 _symmetry_equiv_pos_as_xyz
  1  'x, y, z'
loop_
 _atom_site_type_symbol
 _atom_site_label
 _atom_site_symmetry_multiplicity
 _atom_site_fract_x
 _atom_site_fract_y
 _atom_site_fract_z
 _atom_site_occupancy
  Ba  Ba0  1  -0.00264147  0.12308177  0.33589965  1
  Ba  Ba1  1  0.33119525  0.62398372  0.66588763  1
  Ba  Ba2  1  0.32603336  0.12563114  0.66671180  1
  Ba  Ba3  1  0.66895458  0.87384530  0.33549481  1
  Ba  Ba4  1  0.49553991  0.62476538  0.49982705  1
  Ba  Ba5  1  0.17331949  0.87487014  0.16879481  1
  Ba  Ba6  1  0.66951797  0.37514218  0.66962378  1
  Ba  Ba7  1  0.16015896  0.12433476  0.83140507  1
  Ba  Ba8  1  0.49974008  0.87446050  0.49738542  1
  Ba  Ba9  1  0.83602204  0.37468366  0.16724310  1
  Ba  Ba10  1  0.83344868  0.37680097  0.50037007  1
  Ba  Ba11  1  0.50397310  0.37393203  0.83464034  1
  Ba  Ba12  1  0.33372558  0.37497735  0.33058423  1
  Ba  Ba13  1  0.33492383  0.87481950  0.33205447  1
  Ba  Ba14  1  0.33760504  0.37415712  0.00241274  1
  Ba  Ba15  1  0.00096340  0.37691658  -0.00079181  1
  Ba  Ba16  1  0.83361440  0.12639045  0.16668033  1
  Sr  Sr17  1  0.00525335  0.87584591  0.33208430  1
  Sr  Sr18  1  0.16177013  0.62351407  0.16696161  1
  Sr  Sr19  1  0.67104060  0.37489700  0.33504288  1
  Sr  Sr20  1  -0.00805545  0.62672680  0.66438803  1
  Sr  Sr21  1  0.65968372  0.62504711  1.00033772  1
  La  La22  1  0.84633481  0.87586464  0.16732009  1
  La  La23  1  0.34637113  0.87764001  0.00629032  1
  La  La24  1  0.49279786  0.12416548  0.49652381  1
  La  La25  1  0.67274740  0.37690149  0.00120826  1
  La  La26  1  0.50197198  0.37501213  0.49963089  1
  La  La27  1  0.17201505  0.87384231  0.49478999  1
  La  La28  1  0.32699266  0.62427179  0.99744205  1
  La  La29  1  0.83728319  0.37627058  0.82832999  1
  Pr  Pr30  1  0.01303048  0.87026250  0.66653993  1
  Pr  Pr31  1  0.18069636  0.87369593  0.83026188  1
  Pr  Pr32  1  0.68125467  0.87368227  0.00669776  1
  Pr  Pr33  1  0.51282613  0.37656186  0.16200393  1
  Pr  Pr34  1  0.66071421  0.12628718  1.00108882  1
  Pr  Pr35  1  0.17064787  0.37482182  0.16256377  1
  Pr  Pr36  1  0.32046207  0.12672674  0.99475742  1
  Pr  Pr37  1  0.01395405  0.87466138  0.00185496  1
  Pr  Pr38  1  0.49018983  0.12771410  0.83719040  1
  Pr  Pr39  1  0.82707029  0.12357864  0.83683036  1
  Pr  Pr40  1  -0.00989811  0.12398257  0.65999872  1
  Pr  Pr41  1  -0.00990395  0.62701497  0.99990154  1
  Pr  Pr42  1  0.51275243  0.87291961  0.16627388  1
  Pr  Pr43  1  0.49350433  0.62100998  0.83394083  1
  Pr  Pr44  1  0.34319298  0.37477498  0.67046415  1
  Pr  Pr45  1  0.16234036  0.12772210  0.16610470  1
  Pr  Pr46  1  0.17709460  0.37610119  0.83006127  1
  Pr  Pr47  1  0.84235670  0.87423652  0.49508135  1
  Pr  Pr48  1  0.65704471  0.62023666  0.33305772  1
  Pr  Pr49  1  -0.00724525  0.62635419  0.33061565  1
  Pr  Pr50  1  0.16050817  0.62566938  0.50169035  1
  Pr  Pr51  1  0.82024933  0.12360507  0.49953554  1
  Pr  Pr52  1  0.65937271  0.62335080  0.66559357  1
  Pr  Pr53  1  0.15508371  0.62504526  0.83747919  1
  Pr  Pr54  1  0.84634688  0.87180046  0.83096917  1
  Pr  Pr55  1  0.32256565  0.62826039  0.33335249  1
  Pr  Pr56  1  0.32514619  0.12285577  0.33385540  1
  Pr  Pr57  1  0.82671312  0.62352634  0.16786007  1
  Pr  Pr58  1  0.66368092  0.12918196  0.33191927  1
  Pr  Pr59  1  0.51169848  0.87607600  0.83084911  1
  Pr  Pr60  1  -0.00578864  0.12375428  1.00009289  1
  Pr  Pr61  1  0.15986637  0.12414876  0.50162702  1
  Pr  Pr62  1  0.49553735  0.12632551  0.17075520  1
  Pr  Pr63  1  0.82181736  0.62564919  0.83499867  1
  Pr  Pr64  1  0.00221739  0.37313753  0.33472150  1
  Pr  Pr65  1  0.67687455  0.87281578  0.66612922  1
  Pr  Pr66  1  0.00429439  0.37762067  0.67337521  1
  Pr  Pr67  1  0.65621623  0.12405621  0.66587587  1
  Pr  Pr68  1  0.49058819  0.62409494  0.17036340  1
  Pr  Pr69  1  0.34338171  0.87548732  0.66469173  1
  Pr  Pr70  1  0.82185602  0.62596423  0.50162215  1
  Pr  Pr71  1  0.16965500  0.37557279  0.50113414  1
  Mn  Mn72  1  0.00367419  -0.00126261  0.16492686  1
  Mn  Mn73  1  -0.00226992  -0.00164619  0.50214214  1
  Mn  Mn74  1  -0.00072124  -0.00295835  0.83061540  1
  Mn  Mn75  1  0.00074993  0.50221176  0.16748294  1
  Mn  Mn76  1  -0.00088868  0.50113098  0.50054071  1
  Mn  Mn77  1  -0.00167524  0.50368603  0.83269892  1
  Mn  Mn78  1  0.33892514  0.00285088  0.16444885  1
  Mn  Mn79  1  0.32993983  0.00185110  0.50012722  1
  Mn  Mn80  1  0.33531652  -0.00143370  0.83676352  1
  Mn  Mn81  1  0.33205316  0.50109541  0.16705831  1
  Mn  Mn82  1  0.33014710  0.49718863  0.50041103  1
  Mn  Mn83  1  0.33244090  0.50130794  0.83220100  1
  Mn  Mn84  1  0.66913595  -0.00020290  0.16664223  1
  Mn  Mn85  1  0.66530641  0.00012504  0.50108526  1
  Mn  Mn86  1  0.66876716  -0.00244345  0.83434803  1
  Mn  Mn87  1  0.66773574  0.50230195  0.16559096  1
  Mn  Mn88  1  0.66500803  0.49984619  0.49914994  1
  Mn  Mn89  1  0.66691983  0.50306168  0.83531300  1
  Mn  Mn90  1  0.00190069  0.25132152  0.16716739  1
  Mn  Mn91  1  -0.00261871  0.25218697  0.50325928  1
  Mn  Mn92  1  -0.00145639  0.24933603  0.83125754  1
  Mn  Mn93  1  0.00215968  0.74888333  0.16479264  1
  Mn  Mn94  1  -0.00104328  0.74815495  0.49915674  1
  Mn  Mn95  1  0.00065854  0.74944983  0.83272931  1
  Mn  Mn96  1  0.33532073  0.24799491  0.16650089  1
  Mn  Mn97  1  0.32942315  0.25124194  0.50074595  1
  Mn  Mn98  1  0.33190668  0.25006715  0.83314026  1
  Mn  Mn99  1  0.33550590  0.75005788  0.16449374  1
  Mn  Mn100  1  0.33082421  0.74762244  0.50003684  1
  Mn  Mn101  1  0.33553071  0.75111427  0.83498693  1
  Mn  Mn102  1  0.66780387  0.24990106  0.16645476  1
  Mn  Mn103  1  0.66413762  0.24953553  0.49903857  1
  Mn  Mn104  1  0.66806209  0.24585174  0.83385907  1
  Mn  Mn105  1  0.66909370  0.74826677  0.16661745  1
  Mn  Mn106  1  0.66659344  0.75028605  0.50118200  1
  Mn  Mn107  1  0.66658861  0.75235423  0.83548458  1
  Mn  Mn108  1  0.16401111  0.25105989  -0.00096240  1
  Mn  Mn109  1  0.16593948  0.25069102  0.33352311  1
  Mn  Mn110  1  0.16092229  0.25179326  0.66604715  1
  Mn  Mn111  1  0.16858132  0.74897072  -0.00158843  1
  Mn  Mn112  1  0.16341262  0.74850524  0.33443078  1
  Mn  Mn113  1  0.16779566  0.74847465  0.66693671  1
  Mn  Mn114  1  0.50238625  0.24889976  0.00365273  1
  Mn  Mn115  1  0.49969301  0.25191653  0.33265779  1
  Mn  Mn116  1  0.49920596  0.24676836  0.66690261  1
  Mn  Mn117  1  0.50269161  0.74986406  -0.00092366  1
  Mn  Mn118  1  0.49820953  0.74721357  0.33173446  1
  Mn  Mn119  1  0.50220277  0.75309185  0.66884217  1
  Mn  Mn120  1  0.83318619  0.24859928  -0.00319658  1
  Mn  Mn121  1  0.83364055  0.25115691  0.33536146  1
  Mn  Mn122  1  0.83368052  0.24708710  0.66749402  1
  Mn  Mn123  1  0.83447186  0.75051817  -0.00062477  1
  Mn  Mn124  1  0.83390418  0.74891007  0.33385033  1
  Mn  Mn125  1  0.83385005  0.74995645  0.66552228  1
  Mn  Mn126  1  0.16729144  -0.00106696  -0.00181309  1
  Mn  Mn127  1  0.16612978  0.00081099  0.33367214  1
  Mn  Mn128  1  0.16357861  -0.00269595  0.66588749  1
  Mn  Mn129  1  0.16563413  0.50199436  0.00051384  1
  Mn  Mn130  1  0.16330144  0.49911708  0.33395451  1
  Mn  Mn131  1  0.16423945  0.50153818  0.66650446  1
  Mn  Mn132  1  0.50405531  0.00145636  0.00066452  1
  Mn  Mn133  1  0.50041022  0.00236404  0.33224784  1
  Mn  Mn134  1  0.50073566  -0.00017385  0.66808673  1
  Mn  Mn135  1  0.50176302  0.50225623  0.00229826  1
  Mn  Mn136  1  0.49775340  0.49800041  0.33184396  1
  Mn  Mn137  1  0.50048727  0.50000916  0.66724313  1
  Mn  Mn138  1  0.83524744  -0.00229240  -0.00294624  1
  Mn  Mn139  1  0.83323174  -0.00103750  0.33374109  1
  Mn  Mn140  1  0.83334945  -0.00291725  0.66728666  1
  Mn  Mn141  1  0.83214228  0.50300328  -0.00080491  1
  Mn  Mn142  1  0.83368762  0.50166285  0.33426770  1
  Mn  Mn143  1  0.83454521  0.50343347  0.66670979  1
  O  O144  1  0.16694863  0.12469569  0.01804193  1
  O  O145  1  0.17124881  0.12783257  0.35712377  1
  O  O146  1  0.15313725  0.12320161  0.67474968  1
  O  O147  1  0.17565898  0.62670122  0.01417557  1
  O  O148  1  0.16410023  0.62194847  0.35715032  1
  O  O149  1  0.16697100  0.62576033  0.69429680  1
  O  O150  1  0.51296559  0.12375866  0.02756140  1
  O  O151  1  0.51165206  0.12933372  0.35142862  1
  O  O152  1  0.50429566  0.12069898  0.69110217  1
  O  O153  1  0.50116489  0.62682048  0.02468521  1
  O  O154  1  0.50684831  0.62203572  0.34134495  1
  O  O155  1  0.50648802  0.63175544  0.68878792  1
  O  O156  1  0.84379961  0.12019325  0.00548471  1
  O  O157  1  0.82902920  0.12262171  0.35353607  1
  O  O158  1  0.83951777  0.11681778  0.69367255  1
  O  O159  1  0.83964759  0.63102376  0.02244377  1
  O  O160  1  0.84420687  0.62677079  0.35799326  1
  O  O161  1  0.83089196  0.62973807  0.69167438  1
  O  O162  1  0.15802790  0.37502032  0.30657648  1
  O  O163  1  0.15343286  0.37886799  0.64452242  1
  O  O164  1  0.16553283  0.37699650  0.97791680  1
  O  O165  1  0.16407971  0.87489529  0.32775760  1
  O  O166  1  0.16248920  0.87216366  0.64200184  1
  O  O167  1  0.16282744  0.87308488  0.97548247  1
  O  O168  1  0.49990606  0.37493143  0.30552893  1
  O  O169  1  0.49710065  0.36926912  0.65049443  1
  O  O170  1  0.50790183  0.37509254  0.99054388  1
  O  O171  1  0.49865062  0.87350391  0.31118089  1
  O  O172  1  0.49523675  0.87735882  0.65726194  1
  O  O173  1  0.49612348  0.87697707  0.97410559  1
  O  O174  1  0.83479547  0.37953983  0.32440060  1
  O  O175  1  0.83979512  0.37932652  0.65881957  1
  O  O176  1  0.82576418  0.37425864  0.97579549  1
  O  O177  1  0.83237821  0.87219329  0.31169745  1
  O  O178  1  0.82550598  0.87341616  0.63844800  1
  O  O179  1  0.82850023  0.87346007  0.97509702  1
  O  O180  1  0.00709690  0.37804764  0.18761477  1
  O  O181  1  0.00018380  0.37921829  0.52829139  1
  O  O182  1  -0.01181858  0.38041842  0.84229761  1
  O  O183  1  -0.00260662  0.87199381  0.17780597  1
  O  O184  1  -0.00877517  0.87274053  0.52398738  1
  O  O185  1  -0.00447426  0.87089914  0.85835541  1
  O  O186  1  0.32355391  0.37374647  0.17598821  1
  O  O187  1  0.32307877  0.37296199  0.52524651  1
  O  O188  1  0.32836317  0.37404168  0.84239012  1
  O  O189  1  0.34248000  0.87647528  0.17484619  1
  O  O190  1  0.32315956  0.87683056  0.51837183  1
  O  O191  1  0.33260080  0.87381357  0.86005593  1
  O  O192  1  0.66212514  0.37733605  0.18188733  1
  O  O193  1  0.65975923  0.37379437  0.51183456  1
  O  O194  1  0.67337976  0.37698738  0.85562126  1
  O  O195  1  0.66431820  0.87384520  0.17737964  1
  O  O196  1  0.66983839  0.87617783  0.52213923  1
  O  O197  1  0.65907846  0.87560671  0.86387511  1
  O  O198  1  0.00927244  0.12342075  0.14425567  1
  O  O199  1  0.01094068  0.12462841  0.49551371  1
  O  O200  1  -0.00758659  0.11769842  0.80655867  1
  O  O201  1  0.00027506  0.62741298  0.14426697  1
  O  O202  1  0.00857011  0.62388131  0.47371058  1
  O  O203  1  0.00682948  0.62865246  0.81259679  1
  O  O204  1  0.34623454  0.12479630  0.13723905  1
  O  O205  1  0.32976565  0.12913761  0.48196430  1
  O  O206  1  0.33841447  0.12480270  0.82639634  1
  O  O207  1  0.33985968  0.62634284  0.14160245  1
  O  O208  1  0.32631365  0.61886070  0.48101982  1
  O  O209  1  0.34118117  0.62835577  0.82336781  1
  O  O210  1  0.66110176  0.12271535  0.14516882  1
  O  O211  1  0.66926959  0.12434708  0.47859161  1
  O  O212  1  0.67867914  0.11635794  0.80815392  1
  O  O213  1  0.67317839  0.62683586  0.14783715  1
  O  O214  1  0.67033752  0.62570524  0.48067931  1
  O  O215  1  0.67242283  0.63138615  0.80977209  1
  O  O216  1  0.08878775  0.01432660  0.24920215  1
  O  O217  1  0.06543136  0.00504679  0.59971273  1
  O  O218  1  0.06526495  0.01266860  0.92382776  1
  O  O219  1  0.07116528  0.51782372  0.26190651  1
  O  O220  1  0.07725176  0.52272766  0.58859733  1
  O  O221  1  0.07475063  0.52439121  0.92418557  1
  O  O222  1  0.41211609  0.02661812  0.25507180  1
  O  O223  1  0.40771447  0.00908236  0.58602475  1
  O  O224  1  0.41190747  0.02199107  0.93494862  1
  O  O225  1  0.40749249  0.52288477  0.25647652  1
  O  O226  1  0.41144548  0.49883286  0.58715972  1
  O  O227  1  0.41420616  0.51912381  0.92521983  1
  O  O228  1  0.73815945  0.01750213  0.25935785  1
  O  O229  1  0.73911967  0.01877563  0.59767713  1
  O  O230  1  0.73800760  0.01676441  0.92849290  1
  O  O231  1  0.74568057  0.52200272  0.25403410  1
  O  O232  1  0.74638244  0.52180222  0.59056860  1
  O  O233  1  0.74510002  0.52254628  0.91975948  1
  O  O234  1  0.24932846  0.22621466  0.24450449  1
  O  O235  1  0.22996100  0.23856029  0.57323372  1
  O  O236  1  0.24444203  0.24025982  0.91457135  1
  O  O237  1  0.24532711  0.73116875  0.24935948  1
  O  O238  1  0.23686792  0.73425191  0.57499894  1
  O  O239  1  0.23762149  0.73488034  0.90098312  1
  O  O240  1  0.57680854  0.23390899  0.24200453  1
  O  O241  1  0.57595623  0.22751452  0.57859387  1
  O  O242  1  0.58012628  0.22451875  0.91363872  1
  O  O243  1  0.57466404  0.73462817  0.23815790  1
  O  O244  1  0.58469748  0.73911455  0.58761411  1
  O  O245  1  0.56784391  0.73208096  0.90212046  1
  O  O246  1  0.91975034  0.24643316  0.24993264  1
  O  O247  1  0.90473881  0.22496685  0.57658275  1
  O  O248  1  0.90585034  0.23518757  0.90125116  1
  O  O249  1  0.90656884  0.73228805  0.23906096  1
  O  O250  1  0.90554946  0.73211653  0.56923011  1
  O  O251  1  0.90564285  0.73032285  0.90583819  1
  O  O252  1  0.09331524  0.48809321  0.09626520  1
  O  O253  1  0.08683267  0.47489397  0.42362627  1
  O  O254  1  0.09146255  0.48244377  0.76079242  1
  O  O255  1  0.08978666  0.98642771  0.08274634  1
  O  O256  1  0.08823561  0.98721296  0.43367525  1
  O  O257  1  0.09145787  0.97167528  0.75896280  1
  O  O258  1  0.43090739  0.48833112  0.09775629  1
  O  O259  1  0.42149069  0.47981011  0.42500037  1
  O  O260  1  0.41828332  0.49019693  0.75215513  1
  O  O261  1  0.43712921  0.98211768  0.09467917  1
  O  O262  1  0.41993626  1.00327432  0.41880987  1
  O  O263  1  0.42612737  0.98444291  0.76497600  1
  O  O264  1  0.75214322  0.49049831  0.08453714  1
  O  O265  1  0.75191143  0.49931341  0.41793140  1
  O  O266  1  0.76097244  0.49150115  0.76127255  1
  O  O267  1  0.76202615  0.97920517  0.09151513  1
  O  O268  1  0.75999259  0.98759595  0.43409024  1
  O  O269  1  0.76152716  0.97197551  0.76155405  1
  O  O270  1  0.25256830  0.25421464  0.08238650  1
  O  O271  1  0.24843182  0.26599312  0.41500321  1
  O  O272  1  0.24934115  0.27120639  0.73821544  1
  O  O273  1  0.26596886  0.76341414  0.06632672  1
  O  O274  1  0.24871639  0.75473080  0.41500623  1
  O  O275  1  0.26166684  0.77564124  0.74188907  1
  O  O276  1  0.59262240  0.26839209  0.07693958  1
  O  O277  1  0.58413558  0.26656948  0.41143198  1
  O  O278  1  0.59024835  0.24992991  0.74854223  1
  O  O279  1  0.59401464  0.77010814  0.06832928  1
  O  O280  1  0.58794273  0.75233242  0.40971367  1
  O  O281  1  0.59461026  0.77468954  0.74556595  1
  O  O282  1  0.92136384  0.25329255  0.07362090  1
  O  O283  1  0.92554937  0.26454559  0.41445358  1
  O  O284  1  0.92924834  0.26208329  0.73576794  1
  O  O285  1  0.92764144  0.76848031  0.06723984  1
  O  O286  1  0.92434754  0.76709886  0.40701009  1
  O  O287  1  0.92413117  0.77177435  0.73903413  1
  O  O288  1  0.25396504  0.49143359  0.08103771  1
  O  O289  1  0.24688790  0.48372222  0.41633761  1
  O  O290  1  0.25230198  0.47650692  0.73908729  1
  O  O291  1  0.26873497  0.99163429  0.07244692  1
  O  O292  1  0.25221239  0.99375047  0.41366879  1
  O  O293  1  0.25541609  0.97701516  0.73966409  1
  O  O294  1  0.59163486  0.48405477  0.07681654  1
  O  O295  1  0.58387888  0.48590152  0.40958795  1
  O  O296  1  0.58819780  0.49919324  0.75039354  1
  O  O297  1  0.59842428  0.98080309  0.06792075  1
  O  O298  1  0.58807414  0.99639354  0.41125936  1
  O  O299  1  0.59904928  0.97895401  0.74255361  1
  O  O300  1  0.92191760  0.49735429  0.07885434  1
  O  O301  1  0.92986350  0.48717523  0.40565497  1
  O  O302  1  0.92479858  0.49148340  0.74097253  1
  O  O303  1  0.92753818  0.98271195  0.06642453  1
  O  O304  1  0.92097224  0.98228296  0.41515772  1
  O  O305  1  0.92685477  0.97018211  0.73732177  1
  O  O306  1  0.09381376  0.26472021  0.09201515  1
  O  O307  1  0.08586552  0.27091697  0.42553232  1
  O  O308  1  0.08975981  0.27373963  0.76046258  1
  O  O309  1  0.09077373  0.76153036  0.08309953  1
  O  O310  1  0.08921932  0.76461451  0.42842705  1
  O  O311  1  0.09553046  0.77023068  0.75952914  1
  O  O312  1  0.43231315  0.26415428  0.09973131  1
  O  O313  1  0.42535840  0.26242050  0.42483133  1
  O  O314  1  0.41824931  0.25850735  0.75057879  1
  O  O315  1  0.43503556  0.76793578  0.09129277  1
  O  O316  1  0.41488516  0.75179812  0.41552088  1
  O  O317  1  0.42733755  0.76872988  0.76331863  1
  O  O318  1  0.74951250  0.25821369  0.07888237  1
  O  O319  1  0.75094050  0.25353683  0.42114180  1
  O  O320  1  0.76521088  0.26054028  0.76168340  1
  O  O321  1  0.76526111  0.76845827  0.09312301  1
  O  O322  1  0.76360117  0.76183307  0.43090471  1
  O  O323  1  0.75811902  0.77311160  0.76004716  1
  O  O324  1  0.25204067  0.02530620  0.23978446  1
  O  O325  1  0.23178779  0.01309453  0.57253295  1
  O  O326  1  0.24512747  0.00994541  0.91235208  1
  O  O327  1  0.24462974  0.51862643  0.24868249  1
  O  O328  1  0.23539464  0.51276366  0.57501981  1
  O  O329  1  0.24059334  0.51640837  0.90439723  1
  O  O330  1  0.57446660  0.01351252  0.23815940  1
  O  O331  1  0.57733840  0.02307978  0.57682867  1
  O  O332  1  0.57195302  0.02149915  0.90395107  1
  O  O333  1  0.57760395  0.51767124  0.23932106  1
  O  O334  1  0.58279374  0.51207972  0.58475213  1
  O  O335  1  0.57753239  0.52137276  0.91168608  1
  O  O336  1  0.91483186  0.00298306  0.23941819  1
  O  O337  1  0.90323197  0.01885421  0.57364726  1
  O  O338  1  0.90309637  0.00816488  0.89760269  1
  O  O339  1  0.91067139  0.52331673  0.24432633  1
  O  O340  1  0.90848228  0.52478481  0.57307509  1
  O  O341  1  0.90976971  0.52439505  0.90784610  1
  O  O342  1  0.08749132  0.23365826  0.25009989  1
  O  O343  1  0.06588961  0.24091529  0.59852999  1
  O  O344  1  0.06894303  0.23214106  0.92512531  1
  O  O345  1  0.07444265  0.73390042  0.26047765  1
  O  O346  1  0.07443387  0.73463490  0.59013763  1
  O  O347  1  0.07486648  0.73077050  0.92581790  1
  O  O348  1  0.41082952  0.22509924  0.25830811  1
  O  O349  1  0.41218124  0.23989464  0.58389509  1
  O  O350  1  0.41620649  0.22845614  0.92961458  1
  O  O351  1  0.41028947  0.72572322  0.25403389  1
  O  O352  1  0.40946665  0.74885362  0.59144082  1
  O  O353  1  0.40657429  0.73419601  0.93157994  1
  O  O354  1  0.74018722  0.23752847  0.25533795  1
  O  O355  1  0.74331548  0.22562091  0.59292153  1
  O  O356  1  0.74297911  0.22600611  0.92214824  1
  O  O357  1  0.74471722  0.72315931  0.26235213  1
  O  O358  1  0.74277209  0.72968023  0.59458032  1
  O  O359  1  0.74213092  0.73477536  0.92482267  1
