# generated using pymatgen
data_Ba17Sr5La8Pr42Mn72O216
_symmetry_space_group_name_H-M   'P 1'
_cell_length_a   16.67268028
_cell_length_b   15.70235874
_cell_length_c   16.82757226
_cell_angle_alpha   89.99362848
_cell_angle_beta   89.98773943
_cell_angle_gamma   89.96474319
_symmetry_Int_Tables_number   1
_chemical_formula_structural   Ba17Sr5La8Pr42Mn72O216
_chemical_formula_sum   'Ba17 Sr5 La8 Pr42 Mn72 O216'
_cell_volume   4405.46430156
_cell_formula_units_Z   1
loop_
 _symmetry_equiv_pos_site_id
 _symmetry_equiv_pos_as_xyz
  1  'x, y, z'
loop_
 _atom_site_type_symbol
 _atom_site_label
 _atom_site_symmetry_multiplicity
 _atom_site_fract_x
 _atom_site_fract_y
 _atom_site_fract_z
 _atom_site_occupancy
  Ba  Ba0  1  0.16752465  0.37351918  0.16381836  1
  Ba  Ba1  1  0.16369325  0.62679662  0.49848256  1
  Ba  Ba2  1  0.16982598  0.37434473  0.83443527  1
  Ba  Ba3  1  0.83290761  0.87588232  0.50237012  1
  Ba  Ba4  1  0.66590453  0.62511667  0.33130045  1
  Ba  Ba5  1  0.50053029  0.37388052  0.16416634  1
  Ba  Ba6  1  0.49772421  0.12345557  0.83128030  1
  Ba  Ba7  1  0.33233285  0.12357705  0.33472241  1
  Ba  Ba8  1  0.33569294  0.87669819  0.33641317  1
  Ba  Ba9  1  0.50120451  0.37557676  0.49880243  1
  Ba  Ba10  1  -0.00022524  0.62627663  0.33252019  1
  Ba  Ba11  1  -0.00075798  0.37363717  0.33346248  1
  Ba  Ba12  1  -0.00137441  0.62590218  1.00107737  1
  Ba  Ba13  1  0.00111584  0.37678353  0.00114838  1
  Ba  Ba14  1  0.83054595  0.12378723  0.16793587  1
  Ba  Ba15  1  0.16797053  0.87411605  0.49824974  1
  Ba  Ba16  1  0.66929803  0.87423240  -0.00118220  1
  Sr  Sr17  1  0.49670748  0.62554502  0.83622517  1
  Sr  Sr18  1  0.83545399  0.87367934  0.16748655  1
  Sr  Sr19  1  0.66299975  0.62484841  0.99902034  1
  Sr  Sr20  1  0.33586373  0.37453159  0.00218639  1
  Sr  Sr21  1  0.66089768  0.12461277  0.66460562  1
  La  La22  1  0.83828414  0.37760389  0.83289088  1
  La  La23  1  0.67538881  0.87724314  0.67191708  1
  La  La24  1  0.49553326  0.62391191  0.50049540  1
  La  La25  1  0.33186181  0.62082182  1.00115292  1
  La  La26  1  0.49442301  0.12589806  0.50503852  1
  La  La27  1  0.16578823  0.62449261  0.83464132  1
  La  La28  1  0.34009105  0.87149145  0.66749320  1
  La  La29  1  0.50973558  0.87142336  0.83117856  1
  Pr  Pr30  1  0.00878820  0.87460301  0.66868157  1
  Pr  Pr31  1  0.32738364  0.62190054  0.66474818  1
  Pr  Pr32  1  0.49802633  0.62653998  0.16725447  1
  Pr  Pr33  1  0.34142700  0.87321594  0.00334612  1
  Pr  Pr34  1  0.16984229  0.37420921  0.49515447  1
  Pr  Pr35  1  -0.00625119  0.12966727  0.99955653  1
  Pr  Pr36  1  0.32718251  0.12851937  0.66128234  1
  Pr  Pr37  1  0.50371561  0.37776361  0.83170279  1
  Pr  Pr38  1  0.83317898  0.38125819  0.16466412  1
  Pr  Pr39  1  0.32773852  0.12867632  0.99871895  1
  Pr  Pr40  1  0.33122512  0.62512821  0.33210944  1
  Pr  Pr41  1  0.00552761  0.37644269  0.67103809  1
  Pr  Pr42  1  0.66226453  0.12547303  0.33266643  1
  Pr  Pr43  1  0.84371225  0.87380596  0.83019039  1
  Pr  Pr44  1  0.00299576  0.87714205  0.00319672  1
  Pr  Pr45  1  0.50485420  0.87444829  0.16701255  1
  Pr  Pr46  1  -0.00224867  0.12145878  0.33197432  1
  Pr  Pr47  1  0.66267658  0.62574646  0.66136980  1
  Pr  Pr48  1  0.66978261  0.37333075  0.33380090  1
  Pr  Pr49  1  0.50676874  0.87677701  0.49700511  1
  Pr  Pr50  1  0.82732775  0.12487567  0.84069107  1
  Pr  Pr51  1  0.83306531  0.62366838  0.50079828  1
  Pr  Pr52  1  -0.00315689  0.62493508  0.66247202  1
  Pr  Pr53  1  0.33424408  0.37415507  0.33439713  1
  Pr  Pr54  1  0.16948056  0.87380112  0.16585722  1
  Pr  Pr55  1  0.83304532  0.37535251  0.49821632  1
  Pr  Pr56  1  0.66650140  0.37413483  0.00089044  1
  Pr  Pr57  1  0.17396271  0.87366677  0.82950528  1
  Pr  Pr58  1  0.67030554  0.37307689  0.67049294  1
  Pr  Pr59  1  0.67232536  0.87606024  0.33364124  1
  Pr  Pr60  1  0.16150080  0.12746684  0.16720604  1
  Pr  Pr61  1  0.34215429  0.37729863  0.67076745  1
  Pr  Pr62  1  0.15845606  0.12147287  0.49971602  1
  Pr  Pr63  1  0.49711432  0.12302515  0.16559925  1
  Pr  Pr64  1  0.16644625  0.61890348  0.17128744  1
  Pr  Pr65  1  0.65960574  0.12461696  0.99681393  1
  Pr  Pr66  1  0.83247776  0.62877738  0.16765061  1
  Pr  Pr67  1  0.16139532  0.12414113  0.83669025  1
  Pr  Pr68  1  -0.00481174  0.12514473  0.66725901  1
  Pr  Pr69  1  -0.00134994  0.87775477  0.33650937  1
  Pr  Pr70  1  0.82907135  0.62641955  0.83825695  1
  Pr  Pr71  1  0.82836001  0.12631597  0.50237678  1
  Mn  Mn72  1  0.00081080  -0.00110051  0.16653845  1
  Mn  Mn73  1  -0.00268831  0.00131242  0.50108496  1
  Mn  Mn74  1  0.00111909  0.00085589  0.83536276  1
  Mn  Mn75  1  -0.00146530  0.50115488  0.16642550  1
  Mn  Mn76  1  -0.00179483  0.49923837  0.50285751  1
  Mn  Mn77  1  0.00033216  0.50125493  0.83113306  1
  Mn  Mn78  1  0.33307357  -0.00197893  0.16466207  1
  Mn  Mn79  1  0.33316720  0.00027225  0.50323577  1
  Mn  Mn80  1  0.33329702  -0.00173388  0.83354338  1
  Mn  Mn81  1  0.33529821  0.50057295  0.16591742  1
  Mn  Mn82  1  0.33214552  0.49959821  0.50028189  1
  Mn  Mn83  1  0.33510396  0.50069177  0.83385820  1
  Mn  Mn84  1  0.66610188  0.00065390  0.16657557  1
  Mn  Mn85  1  0.66547984  0.00118966  0.50049910  1
  Mn  Mn86  1  0.66887428  0.00091080  0.83301260  1
  Mn  Mn87  1  0.66570729  0.50093117  0.16363017  1
  Mn  Mn88  1  0.66701312  0.50016521  0.49975440  1
  Mn  Mn89  1  0.66698403  0.50076028  0.83285350  1
  Mn  Mn90  1  -0.00282382  0.24860502  0.16700680  1
  Mn  Mn91  1  -0.00174838  0.24863235  0.50322362  1
  Mn  Mn92  1  -0.00073461  0.24976825  0.83145192  1
  Mn  Mn93  1  0.00102172  0.75275861  0.16581098  1
  Mn  Mn94  1  -0.00213823  0.75075474  0.50009331  1
  Mn  Mn95  1  0.00164842  0.75038420  0.83329947  1
  Mn  Mn96  1  0.33392002  0.24708828  0.16559981  1
  Mn  Mn97  1  0.33134296  0.25079619  0.50097600  1
  Mn  Mn98  1  0.33388757  0.24962773  0.83199022  1
  Mn  Mn99  1  0.33356815  0.75161256  0.16662474  1
  Mn  Mn100  1  0.33572908  0.74904665  0.50107133  1
  Mn  Mn101  1  0.33509279  0.74937419  0.83550877  1
  Mn  Mn102  1  0.66545783  0.24929245  0.16598789  1
  Mn  Mn103  1  0.66656509  0.25054141  0.50069938  1
  Mn  Mn104  1  0.66753354  0.25033981  0.83374632  1
  Mn  Mn105  1  0.66701979  0.75021733  0.16554550  1
  Mn  Mn106  1  0.66672578  0.74963369  0.50016137  1
  Mn  Mn107  1  0.66869723  0.74807439  0.83187993  1
  Mn  Mn108  1  0.16715839  0.24813107  0.00019336  1
  Mn  Mn109  1  0.16585664  0.24917344  0.33379561  1
  Mn  Mn110  1  0.16611361  0.24847366  0.66422042  1
  Mn  Mn111  1  0.16767361  0.75166896  -0.00111024  1
  Mn  Mn112  1  0.16728218  0.75005801  0.33038417  1
  Mn  Mn113  1  0.16771470  0.75130700  0.66845324  1
  Mn  Mn114  1  0.49879800  0.24914344  -0.00166806  1
  Mn  Mn115  1  0.50003017  0.24955559  0.33249830  1
  Mn  Mn116  1  0.49989397  0.25116043  0.66759232  1
  Mn  Mn117  1  0.50048404  0.74888938  -0.00037700  1
  Mn  Mn118  1  0.50102931  0.75036335  0.33391763  1
  Mn  Mn119  1  0.50178239  0.74761481  0.66592564  1
  Mn  Mn120  1  0.83141312  0.25055614  0.00133424  1
  Mn  Mn121  1  0.83168632  0.24931275  0.33485469  1
  Mn  Mn122  1  0.83334586  0.24911273  0.66780125  1
  Mn  Mn123  1  0.83302226  0.75129357  0.00007769  1
  Mn  Mn124  1  0.83319066  0.75154582  0.33296583  1
  Mn  Mn125  1  0.83470521  0.74953684  0.66901394  1
  Mn  Mn126  1  0.16735816  -0.00183342  -0.00148799  1
  Mn  Mn127  1  0.16483810  0.00159878  0.33198762  1
  Mn  Mn128  1  0.16819146  0.00076979  0.66917856  1
  Mn  Mn129  1  0.16778839  0.50218026  0.00102626  1
  Mn  Mn130  1  0.16720047  0.49828949  0.33317031  1
  Mn  Mn131  1  0.16655233  0.49908778  0.66588637  1
  Mn  Mn132  1  0.49885854  -0.00148825  -0.00011578  1
  Mn  Mn133  1  0.50238876  0.00085713  0.33373717  1
  Mn  Mn134  1  0.49866843  -0.00165029  0.66647862  1
  Mn  Mn135  1  0.50027834  0.50104658  -0.00225339  1
  Mn  Mn136  1  0.49958539  0.50010885  0.33167704  1
  Mn  Mn137  1  0.50249994  0.50159705  0.66838127  1
  Mn  Mn138  1  0.83349519  -0.00044383  0.00060839  1
  Mn  Mn139  1  0.83138198  0.00062277  0.33493229  1
  Mn  Mn140  1  0.83466459  0.00264656  0.66954310  1
  Mn  Mn141  1  0.83001315  0.50162682  -0.00081909  1
  Mn  Mn142  1  0.83242905  0.49988076  0.33244370  1
  Mn  Mn143  1  0.83326906  0.49994756  0.66739134  1
  O  O144  1  0.17596742  0.11873902  0.02235128  1
  O  O145  1  0.15736366  0.12622967  0.35567550  1
  O  O146  1  0.17314771  0.12360950  0.69413987  1
  O  O147  1  0.17379579  0.63254512  0.02557029  1
  O  O148  1  0.17237921  0.62320323  0.34076959  1
  O  O149  1  0.16921276  0.62993810  0.68917061  1
  O  O150  1  0.50724512  0.12204586  0.01970036  1
  O  O151  1  0.50907695  0.12384055  0.36023609  1
  O  O152  1  0.49230736  0.12861845  0.67448213  1
  O  O153  1  0.49938865  0.62855517  0.02188543  1
  O  O154  1  0.49522314  0.62471500  0.35704013  1
  O  O155  1  0.50812463  0.62397366  0.68852944  1
  O  O156  1  0.83993945  0.12447730  0.01176342  1
  O  O157  1  0.82908110  0.12613153  0.35791565  1
  O  O158  1  0.84065089  0.12704249  0.69785561  1
  O  O159  1  0.82985554  0.62521327  0.02165241  1
  O  O160  1  0.83276985  0.62512893  0.35525753  1
  O  O161  1  0.83669385  0.62498575  0.69548476  1
  O  O162  1  0.17382655  0.37196111  0.32200540  1
  O  O163  1  0.15769422  0.36893655  0.63924213  1
  O  O164  1  0.16943769  0.37217153  0.99106820  1
  O  O165  1  0.16035061  0.87772009  0.31136481  1
  O  O166  1  0.16168722  0.87668249  0.65455460  1
  O  O167  1  0.16017686  0.87665221  0.97010258  1
  O  O168  1  0.49581025  0.37511268  0.31996341  1
  O  O169  1  0.50055680  0.37698569  0.65533738  1
  O  O170  1  0.50098310  0.37323744  0.97616290  1
  O  O171  1  0.50605975  0.87739213  0.31128648  1
  O  O172  1  0.49847910  0.86904929  0.64125660  1
  O  O173  1  0.49248426  0.87409602  0.97499265  1
  O  O174  1  0.82558212  0.37267194  0.31034964  1
  O  O175  1  0.83061355  0.37315858  0.64059804  1
  O  O176  1  0.82441691  0.37571369  0.97656334  1
  O  O177  1  0.82985805  0.87744180  0.31804137  1
  O  O178  1  0.83157689  0.87573515  0.65711070  1
  O  O179  1  0.83997967  0.87717603  0.97408007  1
  O  O180  1  -0.00838482  0.37453730  0.17501938  1
  O  O181  1  -0.00809493  0.37160510  0.52876667  1
  O  O182  1  -0.00376766  0.37621638  0.84379025  1
  O  O183  1  0.00695361  0.87738003  0.19195105  1
  O  O184  1  -0.00158658  0.87906804  0.52529758  1
  O  O185  1  -0.00128416  0.87832687  0.85966058  1
  O  O186  1  0.33470835  0.37429234  0.18913269  1
  O  O187  1  0.32200691  0.37435412  0.52534623  1
  O  O188  1  0.34058489  0.37818682  0.85132213  1
  O  O189  1  0.32968266  0.87460634  0.18180436  1
  O  O190  1  0.33982226  0.87252618  0.52162287  1
  O  O191  1  0.32600947  0.87400529  0.86093376  1
  O  O192  1  0.67000636  0.37397731  0.19031054  1
  O  O193  1  0.67398388  0.37489145  0.52705840  1
  O  O194  1  0.66709792  0.37465963  0.85672826  1
  O  O195  1  0.65796152  0.87762399  0.19010876  1
  O  O196  1  0.65899912  0.87437148  0.52749480  1
  O  O197  1  0.66478941  0.87392772  0.83993135  1
  O  O198  1  0.00323081  0.11973097  0.14350560  1
  O  O199  1  0.00256923  0.12509873  0.47639290  1
  O  O200  1  -0.00036710  0.12310573  0.80981391  1
  O  O201  1  -0.00384647  0.62892700  0.15742681  1
  O  O202  1  -0.00746464  0.62486922  0.49045527  1
  O  O203  1  -0.00208338  0.62461698  0.80705392  1
  O  O204  1  0.33678995  0.11858014  0.14241947  1
  O  O205  1  0.34422542  0.12652749  0.49500629  1
  O  O206  1  0.32786647  0.12032822  0.80537908  1
  O  O207  1  0.33479224  0.63045433  0.14494415  1
  O  O208  1  0.34081035  0.62451268  0.47956133  1
  O  O209  1  0.33271207  0.62608818  0.80743258  1
  O  O210  1  0.66144318  0.12507504  0.14019444  1
  O  O211  1  0.67008569  0.12696265  0.47767645  1
  O  O212  1  0.67509377  0.12706712  0.81456917  1
  O  O213  1  0.66841621  0.62417771  0.14765619  1
  O  O214  1  0.67225632  0.62474572  0.48797538  1
  O  O215  1  0.67503303  0.62415953  0.80473656  1
  O  O216  1  0.08093114  0.02424614  0.25041258  1
  O  O217  1  0.07730184  0.02172057  0.58976644  1
  O  O218  1  0.07562181  0.02626859  0.92509393  1
  O  O219  1  0.08803875  0.51006530  0.24704837  1
  O  O220  1  0.07340988  0.51298383  0.59136886  1
  O  O221  1  0.08595285  0.51718248  0.90982277  1
  O  O222  1  0.42221830  0.01299761  0.24720111  1
  O  O223  1  0.40547009  0.00979148  0.59859853  1
  O  O224  1  0.40327856  0.01546944  0.92674446  1
  O  O225  1  0.41617230  0.52495929  0.25012678  1
  O  O226  1  0.41445687  0.51750049  0.58784880  1
  O  O227  1  0.41239890  0.52000141  0.91966548  1
  O  O228  1  0.74052347  0.01329515  0.25883589  1
  O  O229  1  0.74449676  0.01789837  0.58670841  1
  O  O230  1  0.74838906  0.02093264  0.92223174  1
  O  O231  1  0.75438534  0.51348169  0.24048199  1
  O  O232  1  0.75146386  0.52214086  0.58754485  1
  O  O233  1  0.74792778  0.51976081  0.91432322  1
  O  O234  1  0.24513182  0.23035824  0.24111932  1
  O  O235  1  0.23917332  0.22527270  0.57419130  1
  O  O236  1  0.24536346  0.22721460  0.90890696  1
  O  O237  1  0.25000057  0.73102137  0.24497590  1
  O  O238  1  0.25508930  0.73745495  0.58978390  1
  O  O239  1  0.24699041  0.72824981  0.91464000  1
  O  O240  1  0.57922394  0.22636012  0.24302302  1
  O  O241  1  0.57863885  0.23480755  0.57817721  1
  O  O242  1  0.58408790  0.23595515  0.91569048  1
  O  O243  1  0.57410117  0.73660188  0.24224290  1
  O  O244  1  0.57740669  0.72669830  0.57663471  1
  O  O245  1  0.57878274  0.73897246  0.90662117  1
  O  O246  1  0.91772952  0.23200480  0.25917898  1
  O  O247  1  0.91445092  0.22287024  0.58460726  1
  O  O248  1  0.91203155  0.23404799  0.91263682  1
  O  O249  1  0.91138120  0.74175969  0.24382435  1
  O  O250  1  0.90866273  0.72800507  0.58322058  1
  O  O251  1  0.90864330  0.73707733  0.90508569  1
  O  O252  1  0.08390109  0.50028203  0.08571327  1
  O  O253  1  0.08557553  0.48292837  0.42702855  1
  O  O254  1  0.08281284  0.48826242  0.74662320  1
  O  O255  1  0.09169369  0.97718094  0.08618932  1
  O  O256  1  0.07714035  0.98652042  0.41277836  1
  O  O257  1  0.09192651  0.98306715  0.76086558  1
  O  O258  1  0.41791528  0.49506546  0.08358050  1
  O  O259  1  0.40944636  0.48581542  0.41165167  1
  O  O260  1  0.42259272  0.48272858  0.75416681  1
  O  O261  1  0.41962012  0.97707082  0.08615046  1
  O  O262  1  0.42862235  0.98887739  0.42867262  1
  O  O263  1  0.42218668  0.97197806  0.76123539  1
  O  O264  1  0.74806102  0.47675141  0.08137670  1
  O  O265  1  0.74964512  0.47740179  0.41622237  1
  O  O266  1  0.75358350  0.47531336  0.75070242  1
  O  O267  1  0.75320641  0.98817737  0.08744654  1
  O  O268  1  0.74717197  0.98776516  0.41797106  1
  O  O269  1  0.76090555  0.98467457  0.75904928  1
  O  O270  1  0.25711941  0.25423854  0.07581739  1
  O  O271  1  0.25343696  0.26790557  0.41468174  1
  O  O272  1  0.26039618  0.26731117  0.73316545  1
  O  O273  1  0.25159467  0.77502530  0.07789972  1
  O  O274  1  0.25525011  0.75390982  0.41196536  1
  O  O275  1  0.25461066  0.76935130  0.74995225  1
  O  O276  1  0.59177218  0.26367386  0.07281634  1
  O  O277  1  0.59303167  0.26470064  0.40561761  1
  O  O278  1  0.58862742  0.27031265  0.74796046  1
  O  O279  1  0.58029628  0.76503357  0.08382611  1
  O  O280  1  0.58747242  0.77245208  0.41322049  1
  O  O281  1  0.59383397  0.76594791  0.73732383  1
  O  O282  1  0.91134716  0.26240612  0.08439004  1
  O  O283  1  0.91079615  0.26219162  0.42702113  1
  O  O284  1  0.91832361  0.27206984  0.74428696  1
  O  O285  1  0.92406665  0.77136385  0.07833270  1
  O  O286  1  0.92012397  0.76790143  0.41079640  1
  O  O287  1  0.92616307  0.77238014  0.74384444  1
  O  O288  1  0.25525890  0.49534290  0.08196678  1
  O  O289  1  0.25101676  0.48029170  0.41599537  1
  O  O290  1  0.25938072  0.48608598  0.74278756  1
  O  O291  1  0.25461065  0.97591063  0.07138730  1
  O  O292  1  0.24787093  0.99752713  0.41776952  1
  O  O293  1  0.25896346  0.97415310  0.74575292  1
  O  O294  1  0.59050538  0.48503799  0.07236945  1
  O  O295  1  0.58644547  0.48562316  0.40925717  1
  O  O296  1  0.59087350  0.47796484  0.74622750  1
  O  O297  1  0.57815259  0.98449063  0.08856940  1
  O  O298  1  0.59023876  0.97750060  0.41078117  1
  O  O299  1  0.58872584  0.98386962  0.73939940  1
  O  O300  1  0.90754457  0.49095488  0.08718829  1
  O  O301  1  0.90985711  0.48521024  0.42609439  1
  O  O302  1  0.91900685  0.47924161  0.74395720  1
  O  O303  1  0.92538870  0.98306452  0.07569162  1
  O  O304  1  0.91939847  0.98998258  0.41386917  1
  O  O305  1  0.92865742  0.97767664  0.74715498  1
  O  O306  1  0.08428377  0.24616787  0.08144920  1
  O  O307  1  0.08860473  0.26439217  0.43014193  1
  O  O308  1  0.08269753  0.26014036  0.74521865  1
  O  O309  1  0.08597075  0.77590879  0.07999996  1
  O  O310  1  0.08082216  0.76485159  0.40895372  1
  O  O311  1  0.08808834  0.77151308  0.75520252  1
  O  O312  1  0.41944381  0.25176939  0.08375159  1
  O  O313  1  0.41343292  0.26350046  0.41699348  1
  O  O314  1  0.42244528  0.27155165  0.75583798  1
  O  O315  1  0.42005546  0.77049551  0.08928792  1
  O  O316  1  0.42857045  0.76374959  0.42836793  1
  O  O317  1  0.42473263  0.77131126  0.75521771  1
  O  O318  1  0.75098273  0.27239514  0.08711437  1
  O  O319  1  0.75214577  0.27300610  0.42101175  1
  O  O320  1  0.75412036  0.27349656  0.75347558  1
  O  O321  1  0.75739557  0.76162113  0.08844132  1
  O  O322  1  0.74812225  0.76495379  0.41640478  1
  O  O323  1  0.76059265  0.76758850  0.75743444  1
  O  O324  1  0.24080581  0.01313508  0.23680926  1
  O  O325  1  0.24375741  0.02185644  0.58233284  1
  O  O326  1  0.24028251  0.01929953  0.90622182  1
  O  O327  1  0.25555048  0.51829521  0.24989900  1
  O  O328  1  0.25049077  0.51593231  0.58536962  1
  O  O329  1  0.24949141  0.52238470  0.91276917  1
  O  O330  1  0.58166235  0.02513304  0.24896705  1
  O  O331  1  0.57270855  0.01666848  0.56964438  1
  O  O332  1  0.58367466  0.01063467  0.91658745  1
  O  O333  1  0.57724171  0.51630147  0.23983827  1
  O  O334  1  0.58284054  0.51933490  0.58276818  1
  O  O335  1  0.57882264  0.51238421  0.90735260  1
  O  O336  1  0.91920194  0.01203053  0.25638497  1
  O  O337  1  0.91165346  0.02668780  0.58272885  1
  O  O338  1  0.91269631  0.02020345  0.90883103  1
  O  O339  1  0.91162642  0.51085341  0.24684175  1
  O  O340  1  0.91178497  0.52172459  0.58478251  1
  O  O341  1  0.90834629  0.51297643  0.90754816  1
  O  O342  1  0.08000396  0.22924405  0.25248313  1
  O  O343  1  0.07831743  0.22180501  0.58809405  1
  O  O344  1  0.08115601  0.22605048  0.91789563  1
  O  O345  1  0.09236961  0.73805315  0.23762328  1
  O  O346  1  0.07438328  0.73899609  0.59423002  1
  O  O347  1  0.08683956  0.73402270  0.91255093  1
  O  O348  1  0.41779854  0.23164958  0.24748854  1
  O  O349  1  0.40557459  0.24380238  0.59269122  1
  O  O350  1  0.40943487  0.23124272  0.92390560  1
  O  O351  1  0.41375178  0.72981662  0.25461721  1
  O  O352  1  0.41459292  0.72457529  0.59296492  1
  O  O353  1  0.40933222  0.73310467  0.92518145  1
  O  O354  1  0.73841460  0.23411001  0.25941631  1
  O  O355  1  0.75131641  0.22847079  0.58646703  1
  O  O356  1  0.74580741  0.22933431  0.92212422  1
  O  O357  1  0.75128171  0.73987572  0.24821086  1
  O  O358  1  0.74541869  0.73209208  0.59216701  1
  O  O359  1  0.74770008  0.73174541  0.91547457  1
