# generated using pymatgen
data_Ba17Sr5La8Pr42Mn72O216
_symmetry_space_group_name_H-M   'P 1'
_cell_length_a   16.68070598
_cell_length_b   15.70744672
_cell_length_c   16.82439326
_cell_angle_alpha   90.00522700
_cell_angle_beta   89.99641291
_cell_angle_gamma   89.98998195
_symmetry_Int_Tables_number   1
_chemical_formula_structural   Ba17Sr5La8Pr42Mn72O216
_chemical_formula_sum   'Ba17 Sr5 La8 Pr42 Mn72 O216'
_cell_volume   4408.18106038
_cell_formula_units_Z   1
loop_
 _symmetry_equiv_pos_site_id
 _symmetry_equiv_pos_as_xyz
  1  'x, y, z'
loop_
 _atom_site_type_symbol
 _atom_site_label
 _atom_site_symmetry_multiplicity
 _atom_site_fract_x
 _atom_site_fract_y
 _atom_site_fract_z
 _atom_site_occupancy
  Ba  Ba0  1  0.16758338  0.62429361  0.50258175  1
  Ba  Ba1  1  0.83369096  0.62595552  0.50261702  1
  Ba  Ba2  1  0.00302607  0.62400378  1.00313969  1
  Ba  Ba3  1  0.66397913  0.87631340  0.33344856  1
  Ba  Ba4  1  0.49731855  0.37345543  0.16304328  1
  Ba  Ba5  1  0.66843197  0.62468077  0.99832097  1
  Ba  Ba6  1  0.66290047  0.37345499  0.33254258  1
  Ba  Ba7  1  0.66879595  0.62586882  0.66743402  1
  Ba  Ba8  1  0.83631238  0.62422050  0.16797206  1
  Ba  Ba9  1  0.16768481  0.62505628  0.83498608  1
  Ba  Ba10  1  0.16381151  0.87748625  0.83303259  1
  Ba  Ba11  1  0.17068547  0.62667524  0.16838870  1
  Ba  Ba12  1  0.16569915  0.87736595  0.16583595  1
  Ba  Ba13  1  0.33722664  0.12527137  0.66323017  1
  Ba  Ba14  1  0.33464824  0.12457106  0.33437745  1
  Ba  Ba15  1  0.66987603  0.12411455  0.33373362  1
  Ba  Ba16  1  -0.00383459  0.37491849  0.66687383  1
  Sr  Sr17  1  0.15750744  0.37287147  0.50184657  1
  Sr  Sr18  1  0.49926658  0.87413118  0.82762251  1
  Sr  Sr19  1  0.83274659  0.12457733  0.50290664  1
  Sr  Sr20  1  0.49639331  0.87534273  0.49705648  1
  Sr  Sr21  1  0.00151162  0.62421614  0.66946878  1
  La  La22  1  0.83754280  0.12596436  0.83562707  1
  La  La23  1  0.49908465  0.37694327  0.82893124  1
  La  La24  1  0.49889811  0.87962736  0.16380603  1
  La  La25  1  0.66192337  0.87349591  0.00201880  1
  La  La26  1  0.32899494  0.87432331  -0.00119362  1
  La  La27  1  0.49504550  0.37404525  0.49344603  1
  La  La28  1  0.16118555  0.87799976  0.50022769  1
  La  La29  1  0.17545071  0.12459371  0.17005975  1
  Pr  Pr30  1  0.15518462  0.37543355  0.82993472  1
  Pr  Pr31  1  0.50873436  0.12290306  0.49924463  1
  Pr  Pr32  1  0.66015209  0.37603189  0.00500401  1
  Pr  Pr33  1  -0.00429624  0.86992701  0.00403051  1
  Pr  Pr34  1  0.83072243  0.87293370  0.83502352  1
  Pr  Pr35  1  -0.00449244  0.87085035  0.33617575  1
  Pr  Pr36  1  0.50482280  0.62855453  0.83419752  1
  Pr  Pr37  1  0.32450601  0.37540399  0.33622412  1
  Pr  Pr38  1  0.66564877  0.37532401  0.66437593  1
  Pr  Pr39  1  0.00617484  0.12566487  0.33287308  1
  Pr  Pr40  1  0.82870853  0.87493374  0.16633280  1
  Pr  Pr41  1  0.17401813  0.12850341  0.50279103  1
  Pr  Pr42  1  0.34114915  0.12218267  0.99675172  1
  Pr  Pr43  1  0.32186747  0.37559987  0.66819380  1
  Pr  Pr44  1  0.33025267  0.87441157  0.66891680  1
  Pr  Pr45  1  0.82739291  0.87405278  0.50074172  1
  Pr  Pr46  1  0.50610160  0.62677241  0.49832409  1
  Pr  Pr47  1  0.33817767  0.62802992  0.66371519  1
  Pr  Pr48  1  0.34037557  0.62594555  0.33013652  1
  Pr  Pr49  1  -0.00662241  0.37818816  0.34158714  1
  Pr  Pr50  1  0.82570425  0.37744550  0.83270127  1
  Pr  Pr51  1  -0.00745445  0.37666919  0.00210315  1
  Pr  Pr52  1  0.32724748  0.87495416  0.33506176  1
  Pr  Pr53  1  0.83940224  0.62372568  0.84088114  1
  Pr  Pr54  1  0.17796863  0.12902126  0.83362728  1
  Pr  Pr55  1  0.50580153  0.62504630  0.16649001  1
  Pr  Pr56  1  0.50639867  0.12092921  0.83034748  1
  Pr  Pr57  1  0.66341609  0.87423372  0.66551765  1
  Pr  Pr58  1  0.83919121  0.12504043  0.17551379  1
  Pr  Pr59  1  0.33645854  0.62609295  0.99696460  1
  Pr  Pr60  1  0.82823671  0.37705095  0.50096992  1
  Pr  Pr61  1  0.66863931  0.12214799  0.66016451  1
  Pr  Pr62  1  0.01100838  0.12343777  0.99799036  1
  Pr  Pr63  1  0.67175353  0.62622227  0.32876226  1
  Pr  Pr64  1  0.00821703  0.12369410  0.66284543  1
  Pr  Pr65  1  0.01054022  0.62309918  0.32943039  1
  Pr  Pr66  1  0.32302302  0.37431409  0.00303372  1
  Pr  Pr67  1  -0.00453971  0.86986536  0.66983933  1
  Pr  Pr68  1  0.67139021  0.12596412  0.99857964  1
  Pr  Pr69  1  0.50518410  0.12536586  0.16831795  1
  Pr  Pr70  1  0.82397827  0.37498539  0.16732779  1
  Pr  Pr71  1  0.16091826  0.37354571  0.16874460  1
  Mn  Mn72  1  -0.00138820  0.00165368  0.16611068  1
  Mn  Mn73  1  -0.00193454  0.00158528  0.50079072  1
  Mn  Mn74  1  -0.00108448  0.00264853  0.83308043  1
  Mn  Mn75  1  0.00130566  0.49599383  0.17123293  1
  Mn  Mn76  1  -0.00134276  0.50056853  0.50235176  1
  Mn  Mn77  1  -0.00149872  0.49875250  0.83569077  1
  Mn  Mn78  1  0.33609350  0.00022383  0.16421110  1
  Mn  Mn79  1  0.33408833  -0.00160523  0.49981445  1
  Mn  Mn80  1  0.33605631  0.00055829  0.83112304  1
  Mn  Mn81  1  0.33361560  0.49926863  0.16590496  1
  Mn  Mn82  1  0.33264194  0.50040566  0.50016831  1
  Mn  Mn83  1  0.33546775  0.49810750  0.83374988  1
  Mn  Mn84  1  0.66860837  -0.00020876  0.16401701  1
  Mn  Mn85  1  0.66666865  -0.00084144  0.50014179  1
  Mn  Mn86  1  0.66852748  0.00043105  0.83176962  1
  Mn  Mn87  1  0.66579712  0.50030393  0.16623081  1
  Mn  Mn88  1  0.66412639  0.49982822  0.49934417  1
  Mn  Mn89  1  0.66615917  0.49849788  0.83254567  1
  Mn  Mn90  1  -0.00026550  0.24980831  0.16726919  1
  Mn  Mn91  1  -0.00310480  0.24773368  0.49971250  1
  Mn  Mn92  1  -0.00167570  0.24630748  0.83495606  1
  Mn  Mn93  1  0.00005328  0.75102111  0.17070354  1
  Mn  Mn94  1  -0.00073409  0.75111963  0.50327816  1
  Mn  Mn95  1  -0.00097362  0.75220975  0.83568090  1
  Mn  Mn96  1  0.33338515  0.25054955  0.16495361  1
  Mn  Mn97  1  0.33340169  0.25179413  0.49996457  1
  Mn  Mn98  1  0.33750735  0.25130322  0.83433204  1
  Mn  Mn99  1  0.33683573  0.75083696  0.16555913  1
  Mn  Mn100  1  0.33363032  0.75089790  0.49962596  1
  Mn  Mn101  1  0.33495739  0.75042394  0.83126777  1
  Mn  Mn102  1  0.66758222  0.24857095  0.16368995  1
  Mn  Mn103  1  0.66646149  0.24949344  0.50143284  1
  Mn  Mn104  1  0.66665972  0.24839689  0.83217931  1
  Mn  Mn105  1  0.66601429  0.75102529  0.16684110  1
  Mn  Mn106  1  0.66456567  0.75119051  0.49878530  1
  Mn  Mn107  1  0.66720150  0.75270675  0.83247175  1
  Mn  Mn108  1  0.16720282  0.24889491  0.00074044  1
  Mn  Mn109  1  0.16511546  0.24955045  0.33378298  1
  Mn  Mn110  1  0.16611966  0.25084265  0.66799713  1
  Mn  Mn111  1  0.16788367  0.75098054  0.00049608  1
  Mn  Mn112  1  0.16744401  0.75237632  0.33630131  1
  Mn  Mn113  1  0.16686419  0.74987525  0.66648926  1
  Mn  Mn114  1  0.50011927  0.24713721  -0.00526051  1
  Mn  Mn115  1  0.49709807  0.24966675  0.33160834  1
  Mn  Mn116  1  0.50056410  0.25219260  0.66352928  1
  Mn  Mn117  1  0.49921704  0.75236469  -0.00232581  1
  Mn  Mn118  1  0.49797559  0.75047020  0.33201015  1
  Mn  Mn119  1  0.49993574  0.75061823  0.66378962  1
  Mn  Mn120  1  0.83421911  0.24778611  0.00301541  1
  Mn  Mn121  1  0.83565114  0.24893356  0.33560449  1
  Mn  Mn122  1  0.83169890  0.24842260  0.66937764  1
  Mn  Mn123  1  0.83324153  0.75183944  -0.00039819  1
  Mn  Mn124  1  0.83406302  0.75110520  0.33531049  1
  Mn  Mn125  1  0.83385702  0.75185138  0.66899808  1
  Mn  Mn126  1  0.16702222  0.00160131  -0.00069228  1
  Mn  Mn127  1  0.16535694  -0.00020675  0.33424090  1
  Mn  Mn128  1  0.16591779  -0.00003599  0.66509550  1
  Mn  Mn129  1  0.16743509  0.49710827  0.00059216  1
  Mn  Mn130  1  0.16797542  0.49898941  0.33591760  1
  Mn  Mn131  1  0.16621632  0.50107508  0.66771298  1
  Mn  Mn132  1  0.50150098  -0.00004338  -0.00346603  1
  Mn  Mn133  1  0.49818867  -0.00023620  0.33201652  1
  Mn  Mn134  1  0.50055958  -0.00165655  0.66418926  1
  Mn  Mn135  1  0.49788994  0.50031663  -0.00420779  1
  Mn  Mn136  1  0.49689544  0.50020978  0.33214778  1
  Mn  Mn137  1  0.49882806  0.49882766  0.66274628  1
  Mn  Mn138  1  0.83422038  0.00293885  0.00255414  1
  Mn  Mn139  1  0.83700404  0.00033992  0.33556432  1
  Mn  Mn140  1  0.83380455  -0.00009648  0.66915879  1
  Mn  Mn141  1  0.83363003  0.49701560  -0.00013964  1
  Mn  Mn142  1  0.83307098  0.49941323  0.33535175  1
  Mn  Mn143  1  0.83252978  0.49927053  0.66860093  1
  O  O144  1  0.16178681  0.12674592  0.02722467  1
  O  O145  1  0.16011003  0.12313173  0.35854891  1
  O  O146  1  0.16296582  0.12459580  0.68790794  1
  O  O147  1  0.17433535  0.62155096  0.01046129  1
  O  O148  1  0.16377814  0.62750801  0.34545331  1
  O  O149  1  0.17319359  0.62334619  0.67799734  1
  O  O150  1  0.49193605  0.12262618  0.02436456  1
  O  O151  1  0.49866841  0.12446637  0.35300315  1
  O  O152  1  0.50638646  0.12702138  0.68822262  1
  O  O153  1  0.49043588  0.63046869  0.02195092  1
  O  O154  1  0.48945934  0.62528788  0.35480696  1
  O  O155  1  0.49186795  0.62273539  0.69158135  1
  O  O156  1  0.82377646  0.12590739  0.03286832  1
  O  O157  1  0.84039987  0.12438429  0.35176183  1
  O  O158  1  0.82142556  0.12329913  0.69395591  1
  O  O159  1  0.83435278  0.62272989  0.00671623  1
  O  O160  1  0.82341480  0.62467713  0.34411560  1
  O  O161  1  0.83309372  0.62827962  0.69468897  1
  O  O162  1  0.16904551  0.37180593  0.31253923  1
  O  O163  1  0.17009168  0.37551268  0.65532046  1
  O  O164  1  0.17447173  0.36907458  0.97333636  1
  O  O165  1  0.16881280  0.87747577  0.32220410  1
  O  O166  1  0.16700547  0.87727951  0.64687669  1
  O  O167  1  0.17111083  0.88009335  0.98994302  1
  O  O168  1  0.49190307  0.37616640  0.32053229  1
  O  O169  1  0.50885289  0.37559717  0.63691235  1
  O  O170  1  0.50952332  0.36891924  0.97409638  1
  O  O171  1  0.49221469  0.87366195  0.30784180  1
  O  O172  1  0.50121511  0.87409928  0.64625886  1
  O  O173  1  0.50665888  0.87764455  0.97723283  1
  O  O174  1  0.84234030  0.37259283  0.31208479  1
  O  O175  1  0.82999009  0.37042493  0.64600612  1
  O  O176  1  0.83816781  0.36871447  0.97636084  1
  O  O177  1  0.84362333  0.87746864  0.31079219  1
  O  O178  1  0.84490155  0.87888227  0.64407295  1
  O  O179  1  0.84110813  0.88180566  0.97838277  1
  O  O180  1  0.00799739  0.36941037  0.19626334  1
  O  O181  1  -0.00368129  0.37205366  0.50983011  1
  O  O182  1  0.00304753  0.36659403  0.85665653  1
  O  O183  1  -0.00739466  0.87977194  0.19039483  1
  O  O184  1  0.00165277  0.88079282  0.52723487  1
  O  O185  1  -0.00615412  0.88257048  0.85945890  1
  O  O186  1  0.32976447  0.37415337  0.18953536  1
  O  O187  1  0.34400961  0.37681371  0.52376783  1
  O  O188  1  0.34761761  0.37397910  0.86204167  1
  O  O189  1  0.34275863  0.87532353  0.18920302  1
  O  O190  1  0.33697375  0.87391926  0.52487871  1
  O  O191  1  0.33933127  0.87877282  0.85438383  1
  O  O192  1  0.66799933  0.37327149  0.17338137  1
  O  O193  1  0.66192542  0.37299271  0.51947011  1
  O  O194  1  0.66681480  0.36993576  0.86148372  1
  O  O195  1  0.66314980  0.87645758  0.17566856  1
  O  O196  1  0.66652297  0.87707381  0.51980607  1
  O  O197  1  0.66910967  0.88086965  0.85989916  1
  O  O198  1  -0.01019793  0.12757968  0.13887951  1
  O  O199  1  -0.00433608  0.12347145  0.47498222  1
  O  O200  1  -0.00968899  0.12463290  0.80737666  1
  O  O201  1  0.00202734  0.62216767  0.16270482  1
  O  O202  1  -0.00131264  0.62670188  0.47617032  1
  O  O203  1  -0.01167651  0.62708204  0.82286288  1
  O  O204  1  0.33328148  0.12672993  0.14147064  1
  O  O205  1  0.32401989  0.12590129  0.49016697  1
  O  O206  1  0.33260958  0.12553811  0.81857523  1
  O  O207  1  0.33996633  0.62465697  0.14173679  1
  O  O208  1  0.33434908  0.62553569  0.47396263  1
  O  O209  1  0.33885369  0.62121324  0.80767085  1
  O  O210  1  0.67251353  0.12365536  0.14355140  1
  O  O211  1  0.66455078  0.12409299  0.49147717  1
  O  O212  1  0.66805793  0.12437162  0.80374407  1
  O  O213  1  0.66337132  0.62626696  0.15724513  1
  O  O214  1  0.66170047  0.62524715  0.47552463  1
  O  O215  1  0.66745490  0.62432980  0.82237013  1
  O  O216  1  0.08511656  0.02497273  0.24159311  1
  O  O217  1  0.08698378  0.02556987  0.57406664  1
  O  O218  1  0.08875065  0.02823861  0.90576850  1
  O  O219  1  0.09029415  0.50698227  0.24874562  1
  O  O220  1  0.08306552  0.50740795  0.58043048  1
  O  O221  1  0.08813086  0.49865257  0.91690125  1
  O  O222  1  0.42544428  0.01730452  0.23600203  1
  O  O223  1  0.42549042  0.01566706  0.57261150  1
  O  O224  1  0.42284601  0.02180349  0.91198018  1
  O  O225  1  0.42310286  0.52254177  0.24131946  1
  O  O226  1  0.42126026  0.52398666  0.57385571  1
  O  O227  1  0.42426928  0.52362645  0.90579567  1
  O  O228  1  0.76240754  0.01001457  0.24089688  1
  O  O229  1  0.74951851  0.00981239  0.58882181  1
  O  O230  1  0.75595712  0.02375096  0.91540010  1
  O  O231  1  0.75197912  0.50533450  0.24998812  1
  O  O232  1  0.74957704  0.50135695  0.58379846  1
  O  O233  1  0.75911629  0.50744513  0.90618059  1
  O  O234  1  0.24791050  0.23634125  0.25064437  1
  O  O235  1  0.25096065  0.24425163  0.58565695  1
  O  O236  1  0.25789771  0.22763438  0.92922678  1
  O  O237  1  0.26361694  0.74070463  0.26184000  1
  O  O238  1  0.26266568  0.74009342  0.59150307  1
  O  O239  1  0.26080328  0.74051236  0.92203756  1
  O  O240  1  0.58437832  0.23340194  0.24304629  1
  O  O241  1  0.58813685  0.22863730  0.58931991  1
  O  O242  1  0.58799296  0.21932583  0.91458449  1
  O  O243  1  0.58385523  0.72880743  0.25529329  1
  O  O244  1  0.58042582  0.73523364  0.58140659  1
  O  O245  1  0.58083178  0.73754558  0.91376619  1
  O  O246  1  0.92642060  0.22834871  0.25636632  1
  O  O247  1  0.91876392  0.22737491  0.59432913  1
  O  O248  1  0.92391719  0.22622632  0.93115024  1
  O  O249  1  0.92584401  0.73632206  0.26402694  1
  O  O250  1  0.92377883  0.73965447  0.59410898  1
  O  O251  1  0.91545961  0.74325956  0.91808142  1
  O  O252  1  0.07919601  0.47296871  0.08102967  1
  O  O253  1  0.07397669  0.48751241  0.40796228  1
  O  O254  1  0.08037188  0.48907346  0.75476767  1
  O  O255  1  0.06888161  0.98801984  0.07145601  1
  O  O256  1  0.07460603  0.98017461  0.41364038  1
  O  O257  1  0.07192592  0.98764257  0.73513507  1
  O  O258  1  0.40462904  0.48308467  0.06771413  1
  O  O259  1  0.40446002  0.48358376  0.40632942  1
  O  O260  1  0.41210797  0.47407843  0.73949457  1
  O  O261  1  0.41668394  0.97834568  0.07587687  1
  O  O262  1  0.40834739  0.98128431  0.40955328  1
  O  O263  1  0.41578603  0.98339122  0.74368492  1
  O  O264  1  0.74888156  0.47824871  0.07634367  1
  O  O265  1  0.74851014  0.48376495  0.41805663  1
  O  O266  1  0.74351730  0.47462765  0.74739286  1
  O  O267  1  0.74649091  0.97622474  0.07649384  1
  O  O268  1  0.75358302  0.98531989  0.42227646  1
  O  O269  1  0.74837688  0.97235271  0.74836780  1
  O  O270  1  0.24107507  0.27018359  0.09008105  1
  O  O271  1  0.24444909  0.26646202  0.42121220  1
  O  O272  1  0.24668025  0.26948981  0.76347524  1
  O  O273  1  0.25595468  0.76282499  0.08349848  1
  O  O274  1  0.24458919  0.77403090  0.42555470  1
  O  O275  1  0.25303570  0.76603195  0.74934907  1
  O  O276  1  0.58521763  0.25544386  0.07262850  1
  O  O277  1  0.57257250  0.25866226  0.42547028  1
  O  O278  1  0.57819448  0.27280234  0.75164468  1
  O  O279  1  0.57785373  0.76660077  0.08478326  1
  O  O280  1  0.57282064  0.75816638  0.41761237  1
  O  O281  1  0.58357756  0.76609072  0.74778306  1
  O  O282  1  0.91096487  0.27569509  0.09420899  1
  O  O283  1  0.91101769  0.27004072  0.42258374  1
  O  O284  1  0.90287478  0.26256857  0.76536066  1
  O  O285  1  0.91234821  0.77116719  0.08868462  1
  O  O286  1  0.91314743  0.77452568  0.42512521  1
  O  O287  1  0.91098151  0.77365562  0.75734940  1
  O  O288  1  0.24169767  0.47546341  0.09144536  1
  O  O289  1  0.24437312  0.47668014  0.42459980  1
  O  O290  1  0.24777928  0.47328290  0.76307313  1
  O  O291  1  0.25749087  0.99118387  0.07984195  1
  O  O292  1  0.24801971  0.98060699  0.42198017  1
  O  O293  1  0.25230238  0.98700406  0.74677710  1
  O  O294  1  0.58053914  0.49096727  0.07916944  1
  O  O295  1  0.56991635  0.49003173  0.42208127  1
  O  O296  1  0.58063370  0.47822334  0.74926747  1
  O  O297  1  0.58211490  0.98692330  0.07881499  1
  O  O298  1  0.57625409  0.99216955  0.42129042  1
  O  O299  1  0.58415987  0.98284586  0.74706827  1
  O  O300  1  0.91323154  0.47428001  0.09185469  1
  O  O301  1  0.90903426  0.47997443  0.42370551  1
  O  O302  1  0.90453740  0.48559477  0.76284922  1
  O  O303  1  0.90799099  0.98056391  0.09290339  1
  O  O304  1  0.91481611  0.97516428  0.42301558  1
  O  O305  1  0.90910694  0.98169780  0.75928560  1
  O  O306  1  0.07608263  0.27144427  0.07558873  1
  O  O307  1  0.07395153  0.26237256  0.40459781  1
  O  O308  1  0.08248206  0.25828811  0.75132376  1
  O  O309  1  0.07566817  0.76493227  0.08201229  1
  O  O310  1  0.07716606  0.77137796  0.41632987  1
  O  O311  1  0.07338450  0.76268347  0.74597773  1
  O  O312  1  0.40625594  0.26379460  0.06545914  1
  O  O313  1  0.40656316  0.26909963  0.41058967  1
  O  O314  1  0.41425136  0.27465060  0.73835913  1
  O  O315  1  0.41553918  0.77588716  0.07644107  1
  O  O316  1  0.40462253  0.76648345  0.40418589  1
  O  O317  1  0.41151416  0.76723300  0.74047887  1
  O  O318  1  0.74703394  0.27268972  0.07622413  1
  O  O319  1  0.75102695  0.26535544  0.42256818  1
  O  O320  1  0.74385265  0.27511975  0.74917670  1
  O  O321  1  0.74912728  0.77149842  0.07815366  1
  O  O322  1  0.75174179  0.76605986  0.41764744  1
  O  O323  1  0.74761789  0.77847204  0.74725375  1
  O  O324  1  0.25173121  0.01272674  0.24626315  1
  O  O325  1  0.24604941  0.00937591  0.58011131  1
  O  O326  1  0.25435110  0.02174914  0.91713894  1
  O  O327  1  0.26246703  0.51189259  0.26379614  1
  O  O328  1  0.26473881  0.51002609  0.59660042  1
  O  O329  1  0.26466446  0.50935340  0.92931833  1
  O  O330  1  0.58313796  0.01365749  0.24169080  1
  O  O331  1  0.58619108  0.01809276  0.58658945  1
  O  O332  1  0.58836657  0.02657069  0.91736342  1
  O  O333  1  0.58424226  0.52196694  0.25643569  1
  O  O334  1  0.58018021  0.51841678  0.58110545  1
  O  O335  1  0.58087497  0.51209091  0.91024672  1
  O  O336  1  0.92530634  0.02342869  0.25529940  1
  O  O337  1  0.92232889  0.02248236  0.59309115  1
  O  O338  1  0.92079379  0.02785044  0.92831516  1
  O  O339  1  0.92812897  0.51049990  0.26541280  1
  O  O340  1  0.91731869  0.51113471  0.59117839  1
  O  O341  1  0.91950324  0.50362936  0.92189366  1
  O  O342  1  0.08847803  0.22414401  0.24013338  1
  O  O343  1  0.08472588  0.22804434  0.57570647  1
  O  O344  1  0.09213693  0.22501404  0.91191673  1
  O  O345  1  0.08305659  0.74326262  0.25602208  1
  O  O346  1  0.08580409  0.74616770  0.58108895  1
  O  O347  1  0.08137052  0.74864246  0.91804266  1
  O  O348  1  0.42264912  0.23204030  0.23711871  1
  O  O349  1  0.42942710  0.23545995  0.56936629  1
  O  O350  1  0.42784302  0.22561969  0.90531277  1
  O  O351  1  0.42451655  0.72701691  0.24030557  1
  O  O352  1  0.42044975  0.72689152  0.57577597  1
  O  O353  1  0.41986209  0.72913428  0.91106184  1
  O  O354  1  0.76322104  0.23901171  0.24204352  1
  O  O355  1  0.74885146  0.23525657  0.58807380  1
  O  O356  1  0.75521009  0.22634324  0.91438807  1
  O  O357  1  0.75142508  0.74472336  0.25042331  1
  O  O358  1  0.75309985  0.75134589  0.58583332  1
  O  O359  1  0.75737131  0.74300333  0.90876308  1
