# generated using pymatgen
data_Ba17Sr5La8Pr42Mn72O216
_symmetry_space_group_name_H-M   'P 1'
_cell_length_a   16.67701002
_cell_length_b   15.70780391
_cell_length_c   16.82463915
_cell_angle_alpha   89.97857475
_cell_angle_beta   89.98183247
_cell_angle_gamma   90.00912561
_symmetry_Int_Tables_number   1
_chemical_formula_structural   Ba17Sr5La8Pr42Mn72O216
_chemical_formula_sum   'Ba17 Sr5 La8 Pr42 Mn72 O216'
_cell_volume   4407.36847960
_cell_formula_units_Z   1
loop_
 _symmetry_equiv_pos_site_id
 _symmetry_equiv_pos_as_xyz
  1  'x, y, z'
loop_
 _atom_site_type_symbol
 _atom_site_label
 _atom_site_symmetry_multiplicity
 _atom_site_fract_x
 _atom_site_fract_y
 _atom_site_fract_z
 _atom_site_occupancy
  Ba  Ba0  1  0.49888987  0.87380538  0.83012310  1
  Ba  Ba1  1  0.66798551  0.37605212  0.00198463  1
  Ba  Ba2  1  0.33082757  0.62405135  0.99757986  1
  Ba  Ba3  1  0.33368852  0.37701196  0.00033814  1
  Ba  Ba4  1  0.49801649  0.62738451  0.83078473  1
  Ba  Ba5  1  0.16692439  0.87837153  0.49859232  1
  Ba  Ba6  1  0.83300619  0.12521815  0.83375634  1
  Ba  Ba7  1  0.16802753  0.12478558  0.50118676  1
  Ba  Ba8  1  0.00210154  0.37472908  0.67011254  1
  Ba  Ba9  1  0.33319135  0.62652779  0.33134283  1
  Ba  Ba10  1  -0.00201608  0.62342524  0.33533011  1
  Ba  Ba11  1  0.00059986  0.87557520  0.00391407  1
  Ba  Ba12  1  0.66738787  0.12550702  0.99868025  1
  Ba  Ba13  1  0.00058327  0.87487673  0.66957192  1
  Ba  Ba14  1  -0.00148337  0.87389958  0.33550196  1
  Ba  Ba15  1  0.50042985  0.12376131  0.16654574  1
  Ba  Ba16  1  0.50019042  0.37418057  0.16520042  1
  Sr  Sr17  1  0.33930200  0.37369819  0.33240584  1
  Sr  Sr18  1  0.50196157  0.12601859  0.49813133  1
  Sr  Sr19  1  0.83587311  0.87300831  0.16714446  1
  Sr  Sr20  1  -0.00209824  0.12566713  0.66633095  1
  Sr  Sr21  1  0.33448949  0.87567982  0.33346635  1
  La  La22  1  0.49989939  0.37672095  0.83499339  1
  La  La23  1  0.49827346  0.12432247  0.83706942  1
  La  La24  1  0.33106121  0.12272156  0.33025252  1
  La  La25  1  0.16342140  0.12613580  0.16963719  1
  La  La26  1  0.16132867  0.62389636  0.83502968  1
  La  La27  1  0.00208125  0.37213744  0.00111689  1
  La  La28  1  0.17176320  0.37847445  0.16802312  1
  La  La29  1  0.66874813  0.37127072  0.33281220  1
  Pr  Pr30  1  0.00750720  0.37457635  0.34061142  1
  Pr  Pr31  1  0.16319586  0.62877536  0.50227042  1
  Pr  Pr32  1  0.66651448  0.12252042  0.66487716  1
  Pr  Pr33  1  0.65585352  0.62578066  0.66098475  1
  Pr  Pr34  1  0.33244634  0.12879091  0.99746554  1
  Pr  Pr35  1  -0.00191568  0.62563066  1.00382069  1
  Pr  Pr36  1  0.17030157  0.87278149  0.16695436  1
  Pr  Pr37  1  0.49902004  0.87132255  0.16255640  1
  Pr  Pr38  1  0.83703967  0.37677649  0.16498386  1
  Pr  Pr39  1  0.16393237  0.62477569  0.16992660  1
  Pr  Pr40  1  -0.00688018  0.62365953  0.66309128  1
  Pr  Pr41  1  0.66433413  0.62551759  0.32993121  1
  Pr  Pr42  1  0.33051722  0.62851850  0.66257470  1
  Pr  Pr43  1  0.17258349  0.37653446  0.83096691  1
  Pr  Pr44  1  0.16881181  0.87342075  0.82949640  1
  Pr  Pr45  1  -0.00186697  0.12339273  0.33611904  1
  Pr  Pr46  1  0.82867873  0.37087429  0.83186334  1
  Pr  Pr47  1  0.33550618  0.12212830  0.66066921  1
  Pr  Pr48  1  0.82999997  0.62670058  0.50368180  1
  Pr  Pr49  1  0.66639201  0.87592984  0.66805055  1
  Pr  Pr50  1  0.83194563  0.12175894  0.16634494  1
  Pr  Pr51  1  0.50506548  0.37685033  0.49158876  1
  Pr  Pr52  1  0.66778365  0.87568919  0.00069737  1
  Pr  Pr53  1  0.66645025  0.87868500  0.33435199  1
  Pr  Pr54  1  0.15819096  0.12659938  0.83461852  1
  Pr  Pr55  1  0.33109048  0.87888560  0.66571437  1
  Pr  Pr56  1  0.83129711  0.62804989  0.17026118  1
  Pr  Pr57  1  0.66658674  0.12391621  0.32898157  1
  Pr  Pr58  1  0.83076490  0.87796580  0.83293854  1
  Pr  Pr59  1  0.48968864  0.62411965  0.50032260  1
  Pr  Pr60  1  0.83339883  0.87694342  0.49561256  1
  Pr  Pr61  1  -0.00672501  0.12334126  0.99846592  1
  Pr  Pr62  1  0.66575831  0.37452186  0.66840626  1
  Pr  Pr63  1  0.33595195  0.37092343  0.66694440  1
  Pr  Pr64  1  0.17297976  0.37249913  0.49723235  1
  Pr  Pr65  1  0.83598291  0.62384162  0.83533212  1
  Pr  Pr66  1  0.66596044  0.62390483  0.99748468  1
  Pr  Pr67  1  0.49641221  0.62090189  0.16414933  1
  Pr  Pr68  1  0.33695105  0.87265029  -0.00025914  1
  Pr  Pr69  1  0.50005449  0.87328314  0.49516471  1
  Pr  Pr70  1  0.83444886  0.12268869  0.50621099  1
  Pr  Pr71  1  0.84050017  0.37230479  0.49699841  1
  Mn  Mn72  1  0.00066132  0.00185419  0.16800073  1
  Mn  Mn73  1  -0.00127945  0.00130915  0.50226557  1
  Mn  Mn74  1  0.00014427  -0.00038333  0.83599651  1
  Mn  Mn75  1  -0.00067108  0.49722895  0.16863885  1
  Mn  Mn76  1  0.00025664  0.49961820  0.50237209  1
  Mn  Mn77  1  -0.00078487  0.50003893  0.83532454  1
  Mn  Mn78  1  0.33188115  -0.00193621  0.16461672  1
  Mn  Mn79  1  0.33733923  0.00056405  0.49724492  1
  Mn  Mn80  1  0.33002213  0.00266234  0.83211405  1
  Mn  Mn81  1  0.33283296  0.50110147  0.16682374  1
  Mn  Mn82  1  0.33263897  0.49920134  0.49991375  1
  Mn  Mn83  1  0.33306748  0.49865998  0.82914425  1
  Mn  Mn84  1  0.66850223  -0.00291713  0.16765354  1
  Mn  Mn85  1  0.66549859  0.00059784  0.49974866  1
  Mn  Mn86  1  0.66528250  -0.00136933  0.83191521  1
  Mn  Mn87  1  0.66875996  0.50253214  0.16671831  1
  Mn  Mn88  1  0.66815677  0.50021436  0.49850916  1
  Mn  Mn89  1  0.66723549  0.50152353  0.83105745  1
  Mn  Mn90  1  -0.00130742  0.25053213  0.17018358  1
  Mn  Mn91  1  0.00068258  0.25048779  0.50224951  1
  Mn  Mn92  1  0.00084906  0.25067060  0.83603906  1
  Mn  Mn93  1  0.00044051  0.75000962  0.16850557  1
  Mn  Mn94  1  -0.00224336  0.74856425  0.50252934  1
  Mn  Mn95  1  -0.00113723  0.74862512  0.83586962  1
  Mn  Mn96  1  0.33163483  0.24897108  0.16586863  1
  Mn  Mn97  1  0.33794531  0.24999000  0.49962527  1
  Mn  Mn98  1  0.33251085  0.24889546  0.83011653  1
  Mn  Mn99  1  0.33294477  0.75085792  0.16528665  1
  Mn  Mn100  1  0.33248445  0.75100329  0.49740869  1
  Mn  Mn101  1  0.33089152  0.75102341  0.83111415  1
  Mn  Mn102  1  0.66901590  0.24879897  0.16798275  1
  Mn  Mn103  1  0.66794527  0.24948332  0.50090706  1
  Mn  Mn104  1  0.66386161  0.25224996  0.83110744  1
  Mn  Mn105  1  0.66765846  0.75074742  0.16587157  1
  Mn  Mn106  1  0.66570473  0.74995344  0.49780159  1
  Mn  Mn107  1  0.66940940  0.74832984  0.83185958  1
  Mn  Mn108  1  0.16592218  0.24896705  0.00264954  1
  Mn  Mn109  1  0.16821822  0.24989528  0.33387526  1
  Mn  Mn110  1  0.16878444  0.24989484  0.66699379  1
  Mn  Mn111  1  0.16552202  0.75057196  -0.00064703  1
  Mn  Mn112  1  0.16652066  0.74976383  0.33388472  1
  Mn  Mn113  1  0.16717131  0.74893564  0.66915186  1
  Mn  Mn114  1  0.49927095  0.24848035  -0.00082222  1
  Mn  Mn115  1  0.50080337  0.24930942  0.33470699  1
  Mn  Mn116  1  0.50119912  0.25002049  0.66506785  1
  Mn  Mn117  1  0.50151519  0.75144688  -0.00114933  1
  Mn  Mn118  1  0.50228395  0.75012997  0.33035344  1
  Mn  Mn119  1  0.49823422  0.75050673  0.66135508  1
  Mn  Mn120  1  0.83484916  0.25289102  0.00125205  1
  Mn  Mn121  1  0.83359563  0.24969771  0.33315344  1
  Mn  Mn122  1  0.83111333  0.25035804  0.66565294  1
  Mn  Mn123  1  0.83287589  0.74737777  0.00089455  1
  Mn  Mn124  1  0.83048372  0.74977045  0.33501449  1
  Mn  Mn125  1  0.82994791  0.74949127  0.66831818  1
  Mn  Mn126  1  0.16864001  0.00164937  0.00067757  1
  Mn  Mn127  1  0.16627882  0.00111842  0.33174591  1
  Mn  Mn128  1  0.16684022  0.00125759  0.66868621  1
  Mn  Mn129  1  0.16311678  0.49939522  0.00042429  1
  Mn  Mn130  1  0.16880573  0.49868661  0.33495579  1
  Mn  Mn131  1  0.16893113  0.50064661  0.66672947  1
  Mn  Mn132  1  0.49943910  -0.00083879  -0.00093386  1
  Mn  Mn133  1  0.49992257  -0.00108162  0.33319275  1
  Mn  Mn134  1  0.50046278  0.00145414  0.66394276  1
  Mn  Mn135  1  0.50114630  0.50210289  -0.00156811  1
  Mn  Mn136  1  0.50292827  0.50109506  0.33260879  1
  Mn  Mn137  1  0.49826751  0.49824542  0.66208327  1
  Mn  Mn138  1  0.83286381  -0.00275691  0.00156632  1
  Mn  Mn139  1  0.83236707  0.00130253  0.33494385  1
  Mn  Mn140  1  0.83273531  -0.00094938  0.66652360  1
  Mn  Mn141  1  0.83515035  0.50166168  0.00139955  1
  Mn  Mn142  1  0.83171267  0.49849103  0.33379424  1
  Mn  Mn143  1  0.82919954  0.49973976  0.66791817  1
  O  O144  1  0.17609535  0.12331883  0.02736715  1
  O  O145  1  0.17365771  0.12735201  0.34305349  1
  O  O146  1  0.17874713  0.12541266  0.68910810  1
  O  O147  1  0.15834736  0.62220140  0.02515630  1
  O  O148  1  0.16868448  0.61974509  0.35603741  1
  O  O149  1  0.17925154  0.62372943  0.69166709  1
  O  O150  1  0.49471713  0.12117035  0.00678612  1
  O  O151  1  0.50364982  0.12249208  0.34915531  1
  O  O152  1  0.50123233  0.12900332  0.69330286  1
  O  O153  1  0.50734573  0.63099481  0.01811015  1
  O  O154  1  0.51028058  0.62629458  0.35804709  1
  O  O155  1  0.50127971  0.62374711  0.67494095  1
  O  O156  1  0.83929320  0.12948940  0.01993497  1
  O  O157  1  0.82924370  0.12845551  0.36237916  1
  O  O158  1  0.82706964  0.12488323  0.67786390  1
  O  O159  1  0.83069857  0.62382095  0.02740290  1
  O  O160  1  0.82304534  0.62178170  0.36010339  1
  O  O161  1  0.83246208  0.62399158  0.69152837  1
  O  O162  1  0.15982429  0.37308991  0.31343359  1
  O  O163  1  0.17278140  0.37816447  0.64129027  1
  O  O164  1  0.15793142  0.37479418  0.97455427  1
  O  O165  1  0.16557811  0.87849851  0.31331761  1
  O  O166  1  0.17007710  0.87407023  0.65628110  1
  O  O167  1  0.17012146  0.87989672  0.97230876  1
  O  O168  1  0.50626370  0.37776751  0.32321411  1
  O  O169  1  0.50043354  0.37435046  0.63465123  1
  O  O170  1  0.50080419  0.37392999  0.98273304  1
  O  O171  1  0.50593427  0.87346798  0.30676264  1
  O  O172  1  0.50207028  0.87323101  0.63887820  1
  O  O173  1  0.50091217  0.87545139  0.98716702  1
  O  O174  1  0.82794998  0.37309913  0.30656989  1
  O  O175  1  0.82202933  0.37709654  0.64002547  1
  O  O176  1  0.84051875  0.37984968  0.97660535  1
  O  O177  1  0.82724313  0.87660308  0.31732005  1
  O  O178  1  0.82431830  0.87252182  0.63934175  1
  O  O179  1  0.83026622  0.86692034  0.97655693  1
  O  O180  1  -0.00984096  0.37245291  0.19869848  1
  O  O181  1  -0.00211056  0.37643258  0.51352475  1
  O  O182  1  0.00413611  0.37609532  0.85606045  1
  O  O183  1  0.00405928  0.87893397  0.17919880  1
  O  O184  1  -0.00994257  0.87191993  0.51129570  1
  O  O185  1  0.00379790  0.87261248  0.84695657  1
  O  O186  1  0.32845721  0.37498338  0.18020295  1
  O  O187  1  0.33793608  0.37574892  0.52369280  1
  O  O188  1  0.32965646  0.37238302  0.84482430  1
  O  O189  1  0.33359967  0.87447481  0.18469354  1
  O  O190  1  0.34259057  0.87375375  0.52142761  1
  O  O191  1  0.32234065  0.88190097  0.85663032  1
  O  O192  1  0.67479637  0.37661958  0.18846339  1
  O  O193  1  0.66150246  0.37405944  0.52628279  1
  O  O194  1  0.66418530  0.37808219  0.84423626  1
  O  O195  1  0.66462874  0.87215989  0.19253102  1
  O  O196  1  0.66459111  0.87302345  0.52640660  1
  O  O197  1  0.67238367  0.86967043  0.85420852  1
  O  O198  1  0.00231324  0.12915304  0.14152378  1
  O  O199  1  -0.01008333  0.12963821  0.48155053  1
  O  O200  1  0.00333975  0.12712199  0.81771151  1
  O  O201  1  0.00525770  0.61971451  0.14742823  1
  O  O202  1  -0.00284129  0.62160068  0.49257272  1
  O  O203  1  -0.00234783  0.62358059  0.80743971  1
  O  O204  1  0.32358109  0.12120500  0.14360967  1
  O  O205  1  0.33918694  0.12672979  0.47519528  1
  O  O206  1  0.33741829  0.12678549  0.80301114  1
  O  O207  1  0.33084207  0.62828628  0.15563666  1
  O  O208  1  0.33238394  0.62452604  0.48711661  1
  O  O209  1  0.32617826  0.62074760  0.80734729  1
  O  O210  1  0.67650303  0.12111683  0.15618455  1
  O  O211  1  0.67262830  0.12577680  0.47238471  1
  O  O212  1  0.65968203  0.12792605  0.80991143  1
  O  O213  1  0.67854273  0.62977048  0.14177710  1
  O  O214  1  0.67510048  0.62687676  0.47176306  1
  O  O215  1  0.67581803  0.62509537  0.80454540  1
  O  O216  1  0.07935633  0.02524466  0.25268224  1
  O  O217  1  0.08230298  0.01266918  0.59109730  1
  O  O218  1  0.08287531  0.02576387  0.92552104  1
  O  O219  1  0.08417863  0.50963187  0.24864851  1
  O  O220  1  0.08245243  0.52446002  0.59293665  1
  O  O221  1  0.07627263  0.52236331  0.92384989  1
  O  O222  1  0.40739015  0.01388584  0.25491247  1
  O  O223  1  0.41968096  0.01969627  0.58316384  1
  O  O224  1  0.40792487  0.01884758  0.91548891  1
  O  O225  1  0.42252752  0.51422792  0.25007898  1
  O  O226  1  0.40941331  0.52013732  0.58737736  1
  O  O227  1  0.41677700  0.50506597  0.90952439  1
  O  O228  1  0.75322154  0.01910365  0.25169575  1
  O  O229  1  0.74886225  0.01840371  0.58066534  1
  O  O230  1  0.74934666  0.00177367  0.91573830  1
  O  O231  1  0.74376893  0.52104893  0.25764496  1
  O  O232  1  0.74241864  0.52456954  0.58718916  1
  O  O233  1  0.75268533  0.52137996  0.91947985  1
  O  O234  1  0.24627864  0.23542988  0.24632121  1
  O  O235  1  0.25875337  0.23881600  0.58666398  1
  O  O236  1  0.24862004  0.22837860  0.90956926  1
  O  O237  1  0.24110339  0.74021338  0.23887842  1
  O  O238  1  0.24723033  0.73129811  0.58250618  1
  O  O239  1  0.23658933  0.73573367  0.90753337  1
  O  O240  1  0.59132926  0.23877080  0.25797999  1
  O  O241  1  0.58815947  0.22807588  0.58806335  1
  O  O242  1  0.57506079  0.23988822  0.90558031  1
  O  O243  1  0.58500499  0.72441632  0.24589716  1
  O  O244  1  0.57855799  0.72679953  0.57173584  1
  O  O245  1  0.59299631  0.73634010  0.92094715  1
  O  O246  1  0.91153481  0.22168259  0.24716915  1
  O  O247  1  0.90952331  0.23902148  0.57752499  1
  O  O248  1  0.92222593  0.24012823  0.92410098  1
  O  O249  1  0.90937545  0.73509624  0.24907106  1
  O  O250  1  0.91236901  0.72741219  0.58861009  1
  O  O251  1  0.91605994  0.72386634  0.91987224  1
  O  O252  1  0.08191091  0.47388062  0.08756671  1
  O  O253  1  0.09050099  0.47980314  0.42199488  1
  O  O254  1  0.09598130  0.48738057  0.75877930  1
  O  O255  1  0.09578138  0.98909038  0.09196267  1
  O  O256  1  0.07905258  1.00074645  0.41432781  1
  O  O257  1  0.09115585  0.99212200  0.76248592  1
  O  O258  1  0.42020616  0.50095575  0.08549488  1
  O  O259  1  0.42733111  0.48961347  0.42553165  1
  O  O260  1  0.42069936  0.47590124  0.74634964  1
  O  O261  1  0.41750194  0.97813270  0.08543281  1
  O  O262  1  0.42276024  0.97879883  0.41798146  1
  O  O263  1  0.40981919  0.98531925  0.74264193  1
  O  O264  1  0.76156040  0.48667048  0.09391737  1
  O  O265  1  0.75607426  0.47384910  0.42424784  1
  O  O266  1  0.75077544  0.47551512  0.75069723  1
  O  O267  1  0.74828728  0.97874602  0.08266423  1
  O  O268  1  0.74537918  0.97882734  0.41625455  1
  O  O269  1  0.74784619  0.97900011  0.74668817  1
  O  O270  1  0.24471829  0.26521740  0.08552461  1
  O  O271  1  0.25392036  0.26938718  0.41875517  1
  O  O272  1  0.25235808  0.27258693  0.74735631  1
  O  O273  1  0.25371434  0.77226258  0.07565015  1
  O  O274  1  0.25442826  0.76283788  0.41468958  1
  O  O275  1  0.25376311  0.77234365  0.74573350  1
  O  O276  1  0.58882986  0.25481879  0.08607629  1
  O  O277  1  0.58809420  0.26881848  0.42067052  1
  O  O278  1  0.58114695  0.27612021  0.74583219  1
  O  O279  1  0.58474702  0.77126982  0.08648590  1
  O  O280  1  0.58739285  0.77439285  0.41138769  1
  O  O281  1  0.58884869  0.76103675  0.73557360  1
  O  O282  1  0.92063382  0.27322747  0.08505183  1
  O  O283  1  0.91982039  0.27209762  0.40822479  1
  O  O284  1  0.90897928  0.26811695  0.75415230  1
  O  O285  1  0.91520420  0.75254374  0.08655936  1
  O  O286  1  0.90412889  0.75705586  0.42527397  1
  O  O287  1  0.90984205  0.76200097  0.75992622  1
  O  O288  1  0.24230963  0.48925491  0.08471475  1
  O  O289  1  0.25310043  0.47582484  0.41802484  1
  O  O290  1  0.25646398  0.47595897  0.74077937  1
  O  O291  1  0.25572418  0.97375774  0.07604158  1
  O  O292  1  0.25685111  0.99274998  0.40802760  1
  O  O293  1  0.25018158  0.97941491  0.75073105  1
  O  O294  1  0.58982253  0.50161752  0.08360215  1
  O  O295  1  0.59387116  0.48146822  0.41006784  1
  O  O296  1  0.58557831  0.48476607  0.73725895  1
  O  O297  1  0.58577593  0.97844452  0.08644326  1
  O  O298  1  0.58349450  0.97661142  0.41969646  1
  O  O299  1  0.58802613  0.98511485  0.74098890  1
  O  O300  1  0.92230830  0.47922978  0.08012135  1
  O  O301  1  0.91772591  0.47703896  0.41011305  1
  O  O302  1  0.91026235  0.48509682  0.75660391  1
  O  O303  1  0.91351751  0.99566121  0.09076908  1
  O  O304  1  0.90606420  0.99105362  0.42359620  1
  O  O305  1  0.90995386  0.98350452  0.75554278  1
  O  O306  1  0.08302059  0.27325997  0.09444138  1
  O  O307  1  0.08713902  0.26849328  0.42082740  1
  O  O308  1  0.09285266  0.26269872  0.76277728  1
  O  O309  1  0.09379881  0.76322100  0.09062576  1
  O  O310  1  0.08550318  0.75162285  0.42416765  1
  O  O311  1  0.09191816  0.75684981  0.76095117  1
  O  O312  1  0.41196597  0.25100408  0.08042869  1
  O  O313  1  0.42328074  0.26918169  0.42274364  1
  O  O314  1  0.41954756  0.27356379  0.74915035  1
  O  O315  1  0.41809411  0.76842960  0.08332311  1
  O  O316  1  0.42491471  0.76364939  0.41916918  1
  O  O317  1  0.41136091  0.76327333  0.73823762  1
  O  O318  1  0.76135753  0.26335506  0.09346772  1
  O  O319  1  0.75440211  0.27559198  0.41988690  1
  O  O320  1  0.74513769  0.27015068  0.74613413  1
  O  O321  1  0.74597490  0.77092392  0.07939862  1
  O  O322  1  0.74733983  0.77548430  0.41873246  1
  O  O323  1  0.75025938  0.77548508  0.74937059  1
  O  O324  1  0.24181420  0.01349596  0.23898921  1
  O  O325  1  0.25921196  0.01014423  0.58883280  1
  O  O326  1  0.24679735  0.02998377  0.91231692  1
  O  O327  1  0.24329524  0.51065536  0.24569959  1
  O  O328  1  0.24381879  0.52088600  0.57863475  1
  O  O329  1  0.23827238  0.51003830  0.90595995  1
  O  O330  1  0.59143415  0.01121878  0.25811507  1
  O  O331  1  0.58786604  0.02161265  0.58346911  1
  O  O332  1  0.57881581  0.01054892  0.90939238  1
  O  O333  1  0.58366674  0.52547608  0.24557653  1
  O  O334  1  0.57722277  0.52163434  0.57131188  1
  O  O335  1  0.58785628  0.51692845  0.91507826  1
  O  O336  1  0.91647930  0.02539070  0.25588333  1
  O  O337  1  0.91277189  0.01538160  0.58465967  1
  O  O338  1  0.92008771  0.01096607  0.92266132  1
  O  O339  1  0.90465940  0.51589606  0.24089164  1
  O  O340  1  0.90829571  0.51855325  0.58439424  1
  O  O341  1  0.91492252  0.52622984  0.92047512  1
  O  O342  1  0.07385867  0.23045084  0.25739663  1
  O  O343  1  0.08420449  0.23895794  0.59116068  1
  O  O344  1  0.08177201  0.22550363  0.92731779  1
  O  O345  1  0.08422241  0.73453755  0.24840167  1
  O  O346  1  0.08146972  0.72599091  0.59268885  1
  O  O347  1  0.07641495  0.72660812  0.92309662  1
  O  O348  1  0.40826905  0.23580393  0.25487837  1
  O  O349  1  0.41708881  0.22884827  0.58762752  1
  O  O350  1  0.41179819  0.23036026  0.91108261  1
  O  O351  1  0.42524031  0.73751080  0.24270012  1
  O  O352  1  0.41436128  0.73019146  0.58094525  1
  O  O353  1  0.41022401  0.74629623  0.91482192  1
  O  O354  1  0.74960906  0.22793552  0.25627819  1
  O  O355  1  0.74801314  0.22794210  0.58196609  1
  O  O356  1  0.75185180  0.24902780  0.91308090  1
  O  O357  1  0.74777335  0.72914871  0.25221353  1
  O  O358  1  0.74427109  0.72546724  0.58441526  1
  O  O359  1  0.75459857  0.72372838  0.91576844  1
