# generated using pymatgen
data_Ba17Sr5La8Pr42Mn72O216
_symmetry_space_group_name_H-M   'P 1'
_cell_length_a   16.67020324
_cell_length_b   15.70555968
_cell_length_c   16.81055211
_cell_angle_alpha   89.99030404
_cell_angle_beta   90.06365335
_cell_angle_gamma   90.00961183
_symmetry_Int_Tables_number   1
_chemical_formula_structural   Ba17Sr5La8Pr42Mn72O216
_chemical_formula_sum   'Ba17 Sr5 La8 Pr42 Mn72 O216'
_cell_volume   4401.24970709
_cell_formula_units_Z   1
loop_
 _symmetry_equiv_pos_site_id
 _symmetry_equiv_pos_as_xyz
  1  'x, y, z'
loop_
 _atom_site_type_symbol
 _atom_site_label
 _atom_site_symmetry_multiplicity
 _atom_site_fract_x
 _atom_site_fract_y
 _atom_site_fract_z
 _atom_site_occupancy
  Ba  Ba0  1  0.50508161  0.87362915  0.50007093  1
  Ba  Ba1  1  -0.00266958  0.62475068  0.32928458  1
  Ba  Ba2  1  0.50137825  0.12487275  0.83222184  1
  Ba  Ba3  1  -0.00304091  0.12563435  0.33100309  1
  Ba  Ba4  1  0.82733943  0.62560041  0.16910641  1
  Ba  Ba5  1  0.16795864  0.87447440  0.83100855  1
  Ba  Ba6  1  0.33447547  0.62351196  0.66492791  1
  Ba  Ba7  1  0.83401644  0.12684645  0.50136771  1
  Ba  Ba8  1  0.33316226  0.62628762  0.33164247  1
  Ba  Ba9  1  0.00066295  0.12690623  0.66304930  1
  Ba  Ba10  1  0.33372169  0.12360240  0.33487882  1
  Ba  Ba11  1  0.83435679  0.87447671  0.83138546  1
  Ba  Ba12  1  0.33198899  0.37511258  0.00057481  1
  Ba  Ba13  1  0.16949080  0.12503290  0.50041689  1
  Ba  Ba14  1  -0.00261306  0.12633004  0.99836433  1
  Ba  Ba15  1  0.33654985  0.12555719  0.66500295  1
  Ba  Ba16  1  0.49746412  0.37534205  0.16406199  1
  Sr  Sr17  1  0.16440762  0.62418251  0.16850565  1
  Sr  Sr18  1  0.67272832  0.87533998  0.66930188  1
  Sr  Sr19  1  0.49621813  0.62743372  0.83355861  1
  Sr  Sr20  1  -0.00293813  0.62564931  0.66467920  1
  Sr  Sr21  1  0.00541031  0.37483685  0.66433751  1
  La  La22  1  0.16520901  0.37710254  0.16658752  1
  La  La23  1  0.82831330  0.62465520  0.83724338  1
  La  La24  1  0.33132037  0.37576284  0.33106171  1
  La  La25  1  0.16510871  0.12618133  0.17160651  1
  La  La26  1  -0.00748744  0.62626011  0.99709137  1
  La  La27  1  0.17005241  0.87435564  0.50266414  1
  La  La28  1  0.33689541  0.87469267  -0.00283354  1
  La  La29  1  0.66345043  0.12551856  1.00197401  1
  Pr  Pr30  1  0.82394921  0.12423393  0.17537904  1
  Pr  Pr31  1  0.49845315  0.87512334  0.16824426  1
  Pr  Pr32  1  0.82870643  0.62272852  0.50186374  1
  Pr  Pr33  1  0.65994378  0.12314135  0.33617848  1
  Pr  Pr34  1  0.33890527  0.87760963  0.66906812  1
  Pr  Pr35  1  0.66803781  0.87672630  0.00302147  1
  Pr  Pr36  1  0.67183014  0.37477490  0.67256865  1
  Pr  Pr37  1  0.66577118  0.37401956  0.00784586  1
  Pr  Pr38  1  0.16839917  0.87297922  0.16445531  1
  Pr  Pr39  1  0.16887001  0.37427756  0.50168941  1
  Pr  Pr40  1  0.50504482  0.87326108  0.82471898  1
  Pr  Pr41  1  0.00621479  0.87497420  -0.00034211  1
  Pr  Pr42  1  0.84165577  0.37553978  0.83302842  1
  Pr  Pr43  1  0.49974879  0.62582061  0.50454385  1
  Pr  Pr44  1  0.00552554  0.87803225  0.66841061  1
  Pr  Pr45  1  0.84118942  0.87430740  0.16312004  1
  Pr  Pr46  1  0.16582564  0.37324009  0.83072938  1
  Pr  Pr47  1  0.66994362  0.37697347  0.33999066  1
  Pr  Pr48  1  0.65627672  0.62551217  0.99875942  1
  Pr  Pr49  1  0.84224026  0.87406246  0.50172615  1
  Pr  Pr50  1  0.67345684  0.87307333  0.34131537  1
  Pr  Pr51  1  0.49251895  0.12717402  0.16651822  1
  Pr  Pr52  1  0.00771810  0.87141341  0.33231172  1
  Pr  Pr53  1  0.66480948  0.62905566  0.67000376  1
  Pr  Pr54  1  0.49997538  0.37603936  0.49599877  1
  Pr  Pr55  1  0.65955719  0.62660378  0.33313823  1
  Pr  Pr56  1  0.49392464  0.62310342  0.16616281  1
  Pr  Pr57  1  0.50036767  0.37694758  0.83112721  1
  Pr  Pr58  1  0.16239444  0.62313959  0.50323096  1
  Pr  Pr59  1  0.33255135  0.87434166  0.33623441  1
  Pr  Pr60  1  0.33154732  0.37283306  0.66970021  1
  Pr  Pr61  1  0.83727762  0.37511433  0.16645160  1
  Pr  Pr62  1  0.16826590  0.12484728  0.83369202  1
  Pr  Pr63  1  0.00639859  0.37896948  0.33426905  1
  Pr  Pr64  1  0.32823927  0.62140002  0.99493912  1
  Pr  Pr65  1  0.16210436  0.62338208  0.83629442  1
  Pr  Pr66  1  0.66946016  0.12082827  0.66625947  1
  Pr  Pr67  1  0.00265529  0.37695360  0.00021562  1
  Pr  Pr68  1  0.50264838  0.12423297  0.50818574  1
  Pr  Pr69  1  0.84523047  0.37484940  0.49980592  1
  Pr  Pr70  1  0.33181150  0.12810828  0.99585483  1
  Pr  Pr71  1  0.83098843  0.12530545  0.83446678  1
  Mn  Mn72  1  -0.00150906  -0.00013026  0.16484162  1
  Mn  Mn73  1  0.00176640  -0.00310412  0.49847602  1
  Mn  Mn74  1  -0.00053107  0.00149609  0.83223128  1
  Mn  Mn75  1  -0.00210990  0.49912740  0.16546750  1
  Mn  Mn76  1  0.00053418  0.50109749  0.49993254  1
  Mn  Mn77  1  -0.00083990  0.50064208  0.83143538  1
  Mn  Mn78  1  0.33236573  -0.00272232  0.16448431  1
  Mn  Mn79  1  0.33634503  -0.00247231  0.49970385  1
  Mn  Mn80  1  0.33428540  0.00019694  0.83436465  1
  Mn  Mn81  1  0.33056419  0.50208659  0.16478621  1
  Mn  Mn82  1  0.33474275  0.49942930  0.49876338  1
  Mn  Mn83  1  0.33322024  0.49996965  0.83170291  1
  Mn  Mn84  1  0.66321705  -0.00200496  0.17079646  1
  Mn  Mn85  1  0.67136964  -0.00161610  0.50152742  1
  Mn  Mn86  1  0.66806510  0.00125553  0.83521053  1
  Mn  Mn87  1  0.66441088  0.50039579  0.16925328  1
  Mn  Mn88  1  0.66857077  0.49985679  0.50414085  1
  Mn  Mn89  1  0.66570453  0.49877050  0.83736748  1
  Mn  Mn90  1  -0.00312648  0.25053015  0.16431831  1
  Mn  Mn91  1  0.00231668  0.25238219  0.49867017  1
  Mn  Mn92  1  0.00007541  0.25038865  0.83162676  1
  Mn  Mn93  1  -0.00013603  0.75043010  0.16503166  1
  Mn  Mn94  1  0.00022717  0.74752800  0.50005336  1
  Mn  Mn95  1  -0.00111460  0.74815147  0.83025963  1
  Mn  Mn96  1  0.33029424  0.24864491  0.16573804  1
  Mn  Mn97  1  0.33698788  0.25349123  0.50026785  1
  Mn  Mn98  1  0.33428641  0.25109560  0.83361791  1
  Mn  Mn99  1  0.33260124  0.75219421  0.16435151  1
  Mn  Mn100  1  0.33390990  0.74898607  0.49913556  1
  Mn  Mn101  1  0.33321243  0.74850897  0.83281294  1
  Mn  Mn102  1  0.66464571  0.24957063  0.17065281  1
  Mn  Mn103  1  0.66828589  0.25273407  0.50429980  1
  Mn  Mn104  1  0.66816951  0.25290254  0.83721681  1
  Mn  Mn105  1  0.66273219  0.75240363  0.16951851  1
  Mn  Mn106  1  0.67103234  0.74864089  0.50160613  1
  Mn  Mn107  1  0.66578074  0.74876930  0.83515954  1
  Mn  Mn108  1  0.16455922  0.24958558  0.00037746  1
  Mn  Mn109  1  0.16661338  0.25053990  0.33206689  1
  Mn  Mn110  1  0.16806942  0.25220746  0.66638674  1
  Mn  Mn111  1  0.16566507  0.74929447  -0.00005389  1
  Mn  Mn112  1  0.16753717  0.74966740  0.33224869  1
  Mn  Mn113  1  0.16693255  0.74681179  0.66590007  1
  Mn  Mn114  1  0.50015722  0.24879604  -0.00065485  1
  Mn  Mn115  1  0.50078332  0.25065277  0.33411218  1
  Mn  Mn116  1  0.50545299  0.25353973  0.66479542  1
  Mn  Mn117  1  0.49835617  0.75271486  -0.00091493  1
  Mn  Mn118  1  0.50096870  0.75005995  0.33186309  1
  Mn  Mn119  1  0.50233267  0.74829506  0.66711642  1
  Mn  Mn120  1  0.83083824  0.25094529  0.00144017  1
  Mn  Mn121  1  0.83070192  0.25132759  0.33338693  1
  Mn  Mn122  1  0.83419079  0.25442128  0.66832921  1
  Mn  Mn123  1  0.83055891  0.75098437  0.00051693  1
  Mn  Mn124  1  0.83256516  0.75114776  0.33385301  1
  Mn  Mn125  1  0.83432085  0.74690807  0.66670262  1
  Mn  Mn126  1  0.16700077  -0.00075329  0.00048613  1
  Mn  Mn127  1  0.16593655  -0.00164427  0.33110095  1
  Mn  Mn128  1  0.16872121  -0.00145287  0.66582250  1
  Mn  Mn129  1  0.16310396  0.50174449  0.00018836  1
  Mn  Mn130  1  0.16780516  0.50013322  0.33289920  1
  Mn  Mn131  1  0.16654410  0.50122114  0.66746674  1
  Mn  Mn132  1  0.50002451  -0.00290745  -0.00005832  1
  Mn  Mn133  1  0.50138824  0.00061676  0.33294071  1
  Mn  Mn134  1  0.50411568  -0.00100232  0.66679003  1
  Mn  Mn135  1  0.49880473  0.50204147  -0.00235471  1
  Mn  Mn136  1  0.50081757  0.49895849  0.33295087  1
  Mn  Mn137  1  0.50445650  0.49907472  0.66521446  1
  Mn  Mn138  1  0.83198606  0.00030392  0.00168563  1
  Mn  Mn139  1  0.83203081  -0.00215192  0.33283613  1
  Mn  Mn140  1  0.83473215  -0.00113707  0.66670794  1
  Mn  Mn141  1  0.82933272  0.49918658  0.00066307  1
  Mn  Mn142  1  0.83068904  0.49820808  0.33455706  1
  Mn  Mn143  1  0.83399153  0.49997099  0.66856944  1
  O  O144  1  0.17419366  0.12003476  0.02654644  1
  O  O145  1  0.16451708  0.12390861  0.34117169  1
  O  O146  1  0.16973384  0.12862336  0.68613875  1
  O  O147  1  0.17175854  0.62639443  0.01967172  1
  O  O148  1  0.16655677  0.62400162  0.35760325  1
  O  O149  1  0.16765459  0.62336067  0.69166801  1
  O  O150  1  0.50342787  0.11795458  0.02339835  1
  O  O151  1  0.50459980  0.12638180  0.36284810  1
  O  O152  1  0.50866860  0.12649365  0.67610857  1
  O  O153  1  0.50536535  0.63083704  0.02389949  1
  O  O154  1  0.50500013  0.62219388  0.36049386  1
  O  O155  1  0.50849391  0.62228780  0.68510515  1
  O  O156  1  0.82932320  0.12423689  0.03115088  1
  O  O157  1  0.82870630  0.12437900  0.34462479  1
  O  O158  1  0.83105631  0.13304512  0.68972445  1
  O  O159  1  0.83910622  0.62388161  0.01326584  1
  O  O160  1  0.82845143  0.62228411  0.35731725  1
  O  O161  1  0.83678904  0.62087247  0.69306877  1
  O  O162  1  0.16704018  0.37507110  0.31157336  1
  O  O163  1  0.17033142  0.37907911  0.64798850  1
  O  O164  1  0.15651147  0.37990853  0.97463595  1
  O  O165  1  0.16788163  0.87481360  0.31001729  1
  O  O166  1  0.15971203  0.86868717  0.64834301  1
  O  O167  1  0.15892875  0.87404525  0.98538362  1
  O  O168  1  0.51122676  0.37563049  0.31871724  1
  O  O169  1  0.51457562  0.37741178  0.63980572  1
  O  O170  1  0.50505966  0.37824410  0.97793089  1
  O  O171  1  0.50811407  0.87660001  0.31121979  1
  O  O172  1  0.49677905  0.87345586  0.65862570  1
  O  O173  1  0.49763111  0.87423114  0.96963076  1
  O  O174  1  0.82111882  0.37437891  0.31012677  1
  O  O175  1  0.82187419  0.37890850  0.64352686  1
  O  O176  1  0.81789146  0.37639758  0.97610621  1
  O  O177  1  0.82140551  0.87650740  0.30759581  1
  O  O178  1  0.83005275  0.86789832  0.64605483  1
  O  O179  1  0.82063465  0.87656610  0.98722035  1
  O  O180  1  -0.00355572  0.37272587  0.18724785  1
  O  O181  1  0.00081534  0.37914168  0.51374340  1
  O  O182  1  0.00495510  0.37649738  0.85702223  1
  O  O183  1  -0.00208751  0.87528644  0.18585962  1
  O  O184  1  -0.00134655  0.86653039  0.52415895  1
  O  O185  1  0.00107423  0.87368004  0.85511434  1
  O  O186  1  0.32712374  0.37278838  0.18363321  1
  O  O187  1  0.33739253  0.37855710  0.52388217  1
  O  O188  1  0.33873517  0.37582422  0.84520911  1
  O  O189  1  0.33539420  0.87583606  0.19228381  1
  O  O190  1  0.33076880  0.86925358  0.52266891  1
  O  O191  1  0.34225179  0.87359121  0.85348649  1
  O  O192  1  0.66603420  0.37067001  0.19442664  1
  O  O193  1  0.65897528  0.37842299  0.52970775  1
  O  O194  1  0.66469298  0.37646651  0.86525143  1
  O  O195  1  0.65359912  0.87559530  0.19912172  1
  O  O196  1  0.67601633  0.87079261  0.51953333  1
  O  O197  1  0.66222850  0.87202229  0.85672305  1
  O  O198  1  -0.00219150  0.12611406  0.15481550  1
  O  O199  1  0.00136624  0.12902670  0.48874419  1
  O  O200  1  -0.00770726  0.12862055  0.82004778  1
  O  O201  1  -0.00003237  0.62643871  0.14353077  1
  O  O202  1  0.00133928  0.62410462  0.48381187  1
  O  O203  1  -0.00470021  0.62225152  0.81443431  1
  O  O204  1  0.32926245  0.11917717  0.14172986  1
  O  O205  1  0.34429018  0.12892794  0.49127574  1
  O  O206  1  0.32473697  0.12699183  0.82183018  1
  O  O207  1  0.33607181  0.63228017  0.14055231  1
  O  O208  1  0.33747857  0.62316895  0.48710772  1
  O  O209  1  0.32462697  0.62391450  0.82077284  1
  O  O210  1  0.67280809  0.12297643  0.14460059  1
  O  O211  1  0.66479324  0.12812846  0.48001429  1
  O  O212  1  0.67241204  0.13261511  0.81024987  1
  O  O213  1  0.66028272  0.63097485  0.14177883  1
  O  O214  1  0.67422736  0.62214627  0.47525497  1
  O  O215  1  0.66886917  0.62107652  0.81371414  1
  O  O216  1  0.08081387  0.00708048  0.24799030  1
  O  O217  1  0.08573338  0.00051297  0.58131038  1
  O  O218  1  0.08694566  0.01739156  0.91336216  1
  O  O219  1  0.08189797  0.50461697  0.24988612  1
  O  O220  1  0.08267148  0.51689486  0.58518427  1
  O  O221  1  0.07625977  0.52561410  0.92200307  1
  O  O222  1  0.41955936  0.01433639  0.24057715  1
  O  O223  1  0.42508483  0.00956448  0.58006809  1
  O  O224  1  0.40997065  0.01610235  0.92607354  1
  O  O225  1  0.41775015  0.51243103  0.24650539  1
  O  O226  1  0.42673285  0.51051220  0.57466890  1
  O  O227  1  0.41283297  0.51958999  0.91764581  1
  O  O228  1  0.73838921  0.01864937  0.25993953  1
  O  O229  1  0.74566026  0.01556513  0.59122662  1
  O  O230  1  0.74765200  0.02375550  0.92364128  1
  O  O231  1  0.73693130  0.51386159  0.26591419  1
  O  O232  1  0.74550100  0.52482788  0.59260459  1
  O  O233  1  0.74176306  0.52361458  0.92577997  1
  O  O234  1  0.24699751  0.23701522  0.24743714  1
  O  O235  1  0.25703908  0.25125414  0.58634896  1
  O  O236  1  0.24820688  0.23246948  0.92072014  1
  O  O237  1  0.24670311  0.74204598  0.24242776  1
  O  O238  1  0.24006043  0.73409553  0.57284566  1
  O  O239  1  0.24526025  0.73204747  0.91380784  1
  O  O240  1  0.57986569  0.22218559  0.24883462  1
  O  O241  1  0.58764129  0.22770118  0.58429811  1
  O  O242  1  0.58829414  0.23576716  0.92086627  1
  O  O243  1  0.57703333  0.72467851  0.24570913  1
  O  O244  1  0.58575965  0.72760845  0.57978736  1
  O  O245  1  0.58009735  0.73227346  0.91746921  1
  O  O246  1  0.90294043  0.24068269  0.23575172  1
  O  O247  1  0.91348740  0.25253749  0.57870891  1
  O  O248  1  0.90793191  0.24389232  0.90978634  1
  O  O249  1  0.91006314  0.74756929  0.24419270  1
  O  O250  1  0.90721109  0.73108284  0.57211342  1
  O  O251  1  0.91298725  0.73164008  0.90943578  1
  O  O252  1  0.08068698  0.47976159  0.08157092  1
  O  O253  1  0.08904840  0.48018126  0.41936899  1
  O  O254  1  0.09257147  0.48564023  0.76098019  1
  O  O255  1  0.08531788  0.98059204  0.08418935  1
  O  O256  1  0.08532173  0.97431037  0.41522631  1
  O  O257  1  0.08396796  0.99057666  0.74714180  1
  O  O258  1  0.41651193  0.49983182  0.07968379  1
  O  O259  1  0.41866485  0.47658753  0.41297525  1
  O  O260  1  0.42260098  0.47786269  0.74515485  1
  O  O261  1  0.41893816  0.97528889  0.08321272  1
  O  O262  1  0.41495286  0.98083082  0.40907977  1
  O  O263  1  0.42044649  0.98261652  0.75256708  1
  O  O264  1  0.75072043  0.47870174  0.09240409  1
  O  O265  1  0.75587838  0.47580291  0.42918684  1
  O  O266  1  0.75342447  0.47944413  0.76139723  1
  O  O267  1  0.74887938  0.97742507  0.09476425  1
  O  O268  1  0.75897510  0.97782188  0.42335081  1
  O  O269  1  0.75234880  0.99679527  0.75336079  1
  O  O270  1  0.24003956  0.26312055  0.09027980  1
  O  O271  1  0.25146075  0.27260728  0.41897159  1
  O  O272  1  0.24941684  0.27206589  0.75272891  1
  O  O273  1  0.25384325  0.77458597  0.08067932  1
  O  O274  1  0.25283095  0.77122747  0.41352300  1
  O  O275  1  0.25973273  0.76798481  0.73840631  1
  O  O276  1  0.58919976  0.26011513  0.08116282  1
  O  O277  1  0.58817822  0.27071752  0.41997244  1
  O  O278  1  0.58678735  0.27647970  0.75320399  1
  O  O279  1  0.58313642  0.77733816  0.08026184  1
  O  O280  1  0.59764012  0.75991215  0.41016028  1
  O  O281  1  0.58689266  0.76435010  0.75120902  1
  O  O282  1  0.91624624  0.27755688  0.07609696  1
  O  O283  1  0.91922831  0.27399987  0.40793258  1
  O  O284  1  0.91740195  0.27453932  0.74910337  1
  O  O285  1  0.92114796  0.77180213  0.07582833  1
  O  O286  1  0.92169868  0.77388577  0.40955533  1
  O  O287  1  0.92513399  0.76572669  0.73747489  1
  O  O288  1  0.24282141  0.48779711  0.08401515  1
  O  O289  1  0.25272157  0.47638185  0.41447315  1
  O  O290  1  0.25377599  0.47749763  0.74689542  1
  O  O291  1  0.25271776  0.97211961  0.08061669  1
  O  O292  1  0.25143266  0.97900400  0.41362627  1
  O  O293  1  0.25749702  0.98346408  0.74473342  1
  O  O294  1  0.58968571  0.48838852  0.07430747  1
  O  O295  1  0.58899022  0.48252824  0.41723480  1
  O  O296  1  0.58859152  0.47608209  0.75109191  1
  O  O297  1  0.58346116  0.97536497  0.08379092  1
  O  O298  1  0.59772038  0.98771771  0.41061670  1
  O  O299  1  0.58522068  0.98418975  0.75129762  1
  O  O300  1  0.91688347  0.47708936  0.07549061  1
  O  O301  1  0.91952751  0.47725550  0.40924683  1
  O  O302  1  0.91919826  0.47630637  0.74696216  1
  O  O303  1  0.92030424  0.97502968  0.07576012  1
  O  O304  1  0.92180741  0.97407792  0.40765912  1
  O  O305  1  0.92300525  0.98385088  0.74104830  1
  O  O306  1  0.07856787  0.27084830  0.07911987  1
  O  O307  1  0.08464137  0.27376578  0.41332361  1
  O  O308  1  0.08759265  0.26762121  0.75210156  1
  O  O309  1  0.08349507  0.76971792  0.08412199  1
  O  O310  1  0.08694577  0.76980989  0.41969206  1
  O  O311  1  0.08323108  0.75912458  0.74947056  1
  O  O312  1  0.41329552  0.24904513  0.08103510  1
  O  O313  1  0.41615183  0.27619543  0.41270781  1
  O  O314  1  0.42103205  0.27295179  0.74357123  1
  O  O315  1  0.41885767  0.77679128  0.08281635  1
  O  O316  1  0.41581821  0.76653908  0.40853216  1
  O  O317  1  0.42130526  0.76440545  0.75541344  1
  O  O318  1  0.75107742  0.27052308  0.09169240  1
  O  O319  1  0.75233203  0.27582365  0.42672226  1
  O  O320  1  0.75386093  0.27673947  0.76023919  1
  O  O321  1  0.74784038  0.77387873  0.09381220  1
  O  O322  1  0.76152296  0.76707318  0.42719102  1
  O  O323  1  0.75120237  0.75179643  0.75243947  1
  O  O324  1  0.24275714  0.01001518  0.24040039  1
  O  O325  1  0.25240079  -0.00112383  0.58358872  1
  O  O326  1  0.24859482  0.01793197  0.91737065  1
  O  O327  1  0.24635371  0.50879179  0.24798705  1
  O  O328  1  0.24230367  0.51238097  0.57468639  1
  O  O329  1  0.24085590  0.51661304  0.91420605  1
  O  O330  1  0.57818998  0.02883103  0.24577551  1
  O  O331  1  0.58689383  0.01693766  0.58145461  1
  O  O332  1  0.58772237  0.01224812  0.92391467  1
  O  O333  1  0.57870686  0.52515531  0.24682866  1
  O  O334  1  0.58629564  0.52767958  0.58207377  1
  O  O335  1  0.57881697  0.52125314  0.91374071  1
  O  O336  1  0.90079933  0.00883993  0.23710578  1
  O  O337  1  0.91384920  -0.00032203  0.57802532  1
  O  O338  1  0.90925822  0.01506685  0.90935193  1
  O  O339  1  0.90864133  0.50193633  0.24483043  1
  O  O340  1  0.90784783  0.51230148  0.57241857  1
  O  O341  1  0.90958494  0.51025583  0.90994691  1
  O  O342  1  0.08409950  0.24241113  0.24208397  1
  O  O343  1  0.08955980  0.25060849  0.57980657  1
  O  O344  1  0.08935620  0.23401900  0.90885165  1
  O  O345  1  0.08110034  0.74404985  0.24892642  1
  O  O346  1  0.08305568  0.72836418  0.58322893  1
  O  O347  1  0.07749715  0.72674885  0.91853264  1
  O  O348  1  0.41632764  0.23520381  0.24427966  1
  O  O349  1  0.43047482  0.24568406  0.57285382  1
  O  O350  1  0.41535804  0.23589536  0.91753985  1
  O  O351  1  0.42005158  0.73795423  0.23960095  1
  O  O352  1  0.42155053  0.73543830  0.57891723  1
  O  O353  1  0.40842674  0.73014526  0.92604927  1
  O  O354  1  0.74063648  0.22871180  0.25815988  1
  O  O355  1  0.74167118  0.23748657  0.59716925  1
  O  O356  1  0.74836752  0.22492101  0.92245797  1
  O  O357  1  0.73671243  0.73611521  0.26431137  1
  O  O358  1  0.74829085  0.72144888  0.58816004  1
  O  O359  1  0.74240096  0.72909868  0.92367602  1
