# generated using pymatgen
data_Ba17Sr5La8Pr42Mn72O216
_symmetry_space_group_name_H-M   'P 1'
_cell_length_a   16.67950139
_cell_length_b   15.69839989
_cell_length_c   16.82218806
_cell_angle_alpha   90.00774520
_cell_angle_beta   90.07773205
_cell_angle_gamma   90.01775828
_symmetry_Int_Tables_number   1
_chemical_formula_structural   Ba17Sr5La8Pr42Mn72O216
_chemical_formula_sum   'Ba17 Sr5 La8 Pr42 Mn72 O216'
_cell_volume   4404.74235816
_cell_formula_units_Z   1
loop_
 _symmetry_equiv_pos_site_id
 _symmetry_equiv_pos_as_xyz
  1  'x, y, z'
loop_
 _atom_site_type_symbol
 _atom_site_label
 _atom_site_symmetry_multiplicity
 _atom_site_fract_x
 _atom_site_fract_y
 _atom_site_fract_z
 _atom_site_occupancy
  Ba  Ba0  1  0.83845336  0.12555592  0.16348112  1
  Ba  Ba1  1  0.66390127  0.37335331  0.00121915  1
  Ba  Ba2  1  0.66987729  0.87595419  0.33501847  1
  Ba  Ba3  1  0.49794033  0.37355667  0.16991554  1
  Ba  Ba4  1  0.83800911  0.62421872  0.16430610  1
  Ba  Ba5  1  0.66832425  0.62397992  0.99988260  1
  Ba  Ba6  1  0.49968291  0.62655932  0.50212721  1
  Ba  Ba7  1  0.33481569  0.62683833  1.00356404  1
  Ba  Ba8  1  0.33462281  0.87618179  0.00113221  1
  Ba  Ba9  1  0.82830623  0.37432262  0.50125034  1
  Ba  Ba10  1  0.00159368  0.87449517  -0.00384857  1
  Ba  Ba11  1  0.16634540  0.87449488  0.50032447  1
  Ba  Ba12  1  0.49971536  0.62415476  0.16927079  1
  Ba  Ba13  1  0.66639253  0.12342028  0.66851765  1
  Ba  Ba14  1  0.66644837  0.37315450  0.33531005  1
  Ba  Ba15  1  0.83176935  0.87595191  0.50057857  1
  Ba  Ba16  1  0.33065942  0.37621563  0.66701240  1
  Sr  Sr17  1  0.00590318  0.62617168  0.99694324  1
  Sr  Sr18  1  0.67114912  0.12701645  0.99621289  1
  Sr  Sr19  1  0.00279414  0.12581553  0.66522056  1
  Sr  Sr20  1  0.17182705  0.12427904  0.83014967  1
  Sr  Sr21  1  0.33195539  0.87307581  0.67032848  1
  La  La22  1  0.00475966  0.12448253  0.33289926  1
  La  La23  1  0.16153859  0.37664035  0.82881915  1
  La  La24  1  0.49790140  0.37278863  0.49748130  1
  La  La25  1  -0.00516201  0.87716875  0.67196641  1
  La  La26  1  0.17042542  0.12211795  0.16276269  1
  La  La27  1  0.33107189  0.62581778  0.33016226  1
  La  La28  1  0.33506292  0.12427512  0.33564283  1
  La  La29  1  0.50164918  0.12341132  0.83625625  1
  Pr  Pr30  1  0.83092517  0.87526433  0.16298797  1
  Pr  Pr31  1  0.83221925  0.62656459  0.49563732  1
  Pr  Pr32  1  0.15772496  0.37439376  0.49511148  1
  Pr  Pr33  1  0.82280734  0.87387513  0.82917692  1
  Pr  Pr34  1  0.66775047  0.87670910  0.00529383  1
  Pr  Pr35  1  0.49898811  0.62501182  0.84231162  1
  Pr  Pr36  1  0.67085586  0.12439329  0.33438328  1
  Pr  Pr37  1  0.00791992  0.12547207  0.99185307  1
  Pr  Pr38  1  0.33220248  0.37842894  0.33928414  1
  Pr  Pr39  1  0.49878013  0.87345067  0.83613387  1
  Pr  Pr40  1  -0.00964223  0.37456207  0.33276906  1
  Pr  Pr41  1  0.81901807  0.37577645  0.82868047  1
  Pr  Pr42  1  -0.00272414  0.87551539  0.33353223  1
  Pr  Pr43  1  0.84256524  0.62406685  0.84203712  1
  Pr  Pr44  1  -0.01266761  0.37433050  0.66882746  1
  Pr  Pr45  1  0.17075483  0.12445586  0.50454348  1
  Pr  Pr46  1  0.50619430  0.87397439  0.16634355  1
  Pr  Pr47  1  0.65497031  0.37318735  0.66785859  1
  Pr  Pr48  1  0.00336495  0.62622242  0.32794184  1
  Pr  Pr49  1  0.49572411  0.37567825  0.83642803  1
  Pr  Pr50  1  0.16381314  0.37501876  0.16117585  1
  Pr  Pr51  1  -0.00778959  0.37576007  -0.00055168  1
  Pr  Pr52  1  0.84141694  0.12594775  0.83956515  1
  Pr  Pr53  1  0.17084987  0.62566607  0.49865925  1
  Pr  Pr54  1  0.33272787  0.12409891  0.66322230  1
  Pr  Pr55  1  0.67000211  0.62532910  0.66506528  1
  Pr  Pr56  1  0.32997046  0.37485569  0.00333780  1
  Pr  Pr57  1  0.82638411  0.37461250  0.16433795  1
  Pr  Pr58  1  0.16814668  0.62889472  0.16321310  1
  Pr  Pr59  1  0.16661717  0.87250837  0.82556941  1
  Pr  Pr60  1  0.50375060  0.12384666  0.50589691  1
  Pr  Pr61  1  0.65940316  0.87546738  0.66673740  1
  Pr  Pr62  1  0.33591236  0.87322651  0.33823791  1
  Pr  Pr63  1  0.00555908  0.62408949  0.66298939  1
  Pr  Pr64  1  0.66880166  0.62378112  0.32823436  1
  Pr  Pr65  1  0.33036850  0.62553414  0.66606107  1
  Pr  Pr66  1  0.50024456  0.87807262  0.50006536  1
  Pr  Pr67  1  0.17543345  0.62495535  0.83456358  1
  Pr  Pr68  1  0.50427016  0.12402737  0.16822341  1
  Pr  Pr69  1  0.33832988  0.12533657  0.99806663  1
  Pr  Pr70  1  0.16758722  0.87499809  0.16202919  1
  Pr  Pr71  1  0.83720098  0.12403137  0.50060428  1
  Mn  Mn72  1  0.00395030  0.00028957  0.16512982  1
  Mn  Mn73  1  0.00130374  -0.00013518  0.50001859  1
  Mn  Mn74  1  0.00128739  0.00096528  0.83129867  1
  Mn  Mn75  1  0.00321184  0.49845616  0.16522236  1
  Mn  Mn76  1  -0.00107673  0.50134271  0.49786105  1
  Mn  Mn77  1  -0.00093144  0.49975364  0.83156347  1
  Mn  Mn78  1  0.33433630  0.00130385  0.16961635  1
  Mn  Mn79  1  0.33327566  -0.00159439  0.50105857  1
  Mn  Mn80  1  0.33202506  0.00030643  0.83247589  1
  Mn  Mn81  1  0.33052743  0.49791661  0.16955710  1
  Mn  Mn82  1  0.33206760  0.50110876  0.50153934  1
  Mn  Mn83  1  0.33316303  0.49858445  0.83487594  1
  Mn  Mn84  1  0.66905494  0.00256068  0.16685076  1
  Mn  Mn85  1  0.66624165  0.00101399  0.50090178  1
  Mn  Mn86  1  0.66663423  0.00012038  0.83510622  1
  Mn  Mn87  1  0.66729473  0.49982261  0.16787874  1
  Mn  Mn88  1  0.66571223  0.50280253  0.50142136  1
  Mn  Mn89  1  0.66334061  0.49999862  0.82934798  1
  Mn  Mn90  1  0.00370800  0.25097066  0.16450987  1
  Mn  Mn91  1  0.00015445  0.25062431  0.49924565  1
  Mn  Mn92  1  0.00080750  0.25173761  0.83203883  1
  Mn  Mn93  1  0.00273462  0.75081728  0.16579670  1
  Mn  Mn94  1  -0.00045404  0.74870591  0.49888549  1
  Mn  Mn95  1  -0.00001911  0.74907995  0.83050287  1
  Mn  Mn96  1  0.33158789  0.24817145  0.16811898  1
  Mn  Mn97  1  0.33146837  0.24992603  0.49980974  1
  Mn  Mn98  1  0.33246439  0.24861753  0.83409159  1
  Mn  Mn99  1  0.33312324  0.75198640  0.17082172  1
  Mn  Mn100  1  0.33384250  0.75080701  0.50192011  1
  Mn  Mn101  1  0.33299769  0.75201469  0.83264434  1
  Mn  Mn102  1  0.66690763  0.24648455  0.16662209  1
  Mn  Mn103  1  0.66517578  0.24705720  0.50185678  1
  Mn  Mn104  1  0.66498554  0.24888430  0.83275179  1
  Mn  Mn105  1  0.66881143  0.75062718  0.16805313  1
  Mn  Mn106  1  0.66644509  0.74873978  0.50087895  1
  Mn  Mn107  1  0.66513651  0.75054484  0.83173400  1
  Mn  Mn108  1  0.16723916  0.25079540  -0.00368487  1
  Mn  Mn109  1  0.16727326  0.25049603  0.33120736  1
  Mn  Mn110  1  0.16455656  0.25105555  0.66501215  1
  Mn  Mn111  1  0.16736681  0.75043573  -0.00329119  1
  Mn  Mn112  1  0.16644166  0.75100913  0.33089635  1
  Mn  Mn113  1  0.16366634  0.74872216  0.66466581  1
  Mn  Mn114  1  0.49826329  0.24793663  0.00129985  1
  Mn  Mn115  1  0.49815616  0.24630995  0.33569416  1
  Mn  Mn116  1  0.49688378  0.24970721  0.66861936  1
  Mn  Mn117  1  0.50185435  0.75169979  0.00108381  1
  Mn  Mn118  1  0.50041150  0.75223997  0.33599387  1
  Mn  Mn119  1  0.49870126  0.74969596  0.67084582  1
  Mn  Mn120  1  0.83624339  0.25050598  -0.00090848  1
  Mn  Mn121  1  0.83556385  0.24730546  0.33298565  1
  Mn  Mn122  1  0.83204972  0.24783300  0.66805907  1
  Mn  Mn123  1  0.83581555  0.75104262  -0.00246966  1
  Mn  Mn124  1  0.83672300  0.74994271  0.33275697  1
  Mn  Mn125  1  0.83186315  0.74787683  0.66805848  1
  Mn  Mn126  1  0.16903090  0.00077853  -0.00351191  1
  Mn  Mn127  1  0.16758631  0.00136556  0.33187896  1
  Mn  Mn128  1  0.16477551  0.00143232  0.66594175  1
  Mn  Mn129  1  0.16585932  0.49916428  -0.00364207  1
  Mn  Mn130  1  0.16562721  0.49776952  0.33044508  1
  Mn  Mn131  1  0.16289292  0.49919484  0.66384094  1
  Mn  Mn132  1  0.50196740  0.00014075  0.00253990  1
  Mn  Mn133  1  0.49949952  0.00119989  0.33521152  1
  Mn  Mn134  1  0.49674530  -0.00216830  0.66944438  1
  Mn  Mn135  1  0.49838677  0.49956770  0.00162685  1
  Mn  Mn136  1  0.49920958  0.49961337  0.33723808  1
  Mn  Mn137  1  0.49883178  0.50195282  0.67021617  1
  Mn  Mn138  1  0.83624516  -0.00028174  -0.00199291  1
  Mn  Mn139  1  0.83767936  0.00222865  0.33279336  1
  Mn  Mn140  1  0.83310572  0.00078086  0.66787788  1
  Mn  Mn141  1  0.83590589  0.49991430  -0.00129944  1
  Mn  Mn142  1  0.83531378  0.50086021  0.33316096  1
  Mn  Mn143  1  0.83050513  0.50241310  0.66820306  1
  O  O144  1  0.16360795  0.12785466  0.01941796  1
  O  O145  1  0.16380546  0.12942519  0.36157764  1
  O  O146  1  0.17134911  0.12617732  0.68050166  1
  O  O147  1  0.16348075  0.62209572  0.01831380  1
  O  O148  1  0.16417141  0.62148808  0.35682205  1
  O  O149  1  0.16349456  0.62219775  0.68979224  1
  O  O150  1  0.49203683  0.12231911  0.02354509  1
  O  O151  1  0.49886907  0.12230059  0.36258212  1
  O  O152  1  0.49215697  0.12062189  0.69145456  1
  O  O153  1  0.50054900  0.62909638  0.00741671  1
  O  O154  1  0.50491866  0.62678214  0.34410175  1
  O  O155  1  0.50536706  0.62633015  0.69739193  1
  O  O156  1  0.84391733  0.12529433  0.00617551  1
  O  O157  1  0.84884705  0.12484749  0.35274598  1
  O  O158  1  0.83606046  0.12578856  0.69515573  1
  O  O159  1  0.83863112  0.62483974  0.00510386  1
  O  O160  1  0.84717686  0.62533515  0.34917069  1
  O  O161  1  0.82415545  0.62564749  0.69867727  1
  O  O162  1  0.17503904  0.37326371  0.30372319  1
  O  O163  1  0.16020491  0.37807525  0.64009906  1
  O  O164  1  0.17342149  0.37411845  0.97178021  1
  O  O165  1  0.16766232  0.87556021  0.30580688  1
  O  O166  1  0.15789057  0.87383018  0.65849459  1
  O  O167  1  0.16840050  0.87659225  0.97273750  1
  O  O168  1  0.48922402  0.37095317  0.32868306  1
  O  O169  1  0.50178497  0.37892421  0.64235193  1
  O  O170  1  0.48942819  0.37066533  0.98069851  1
  O  O171  1  0.48971692  0.87991349  0.30997610  1
  O  O172  1  0.49991186  0.87409345  0.64328948  1
  O  O173  1  0.50780651  0.87727601  0.98122559  1
  O  O174  1  0.83747155  0.37242161  0.31172275  1
  O  O175  1  0.83586360  0.37525150  0.65582872  1
  O  O176  1  0.84022949  0.37517983  0.97452963  1
  O  O177  1  0.84023810  0.87763070  0.31004170  1
  O  O178  1  0.83556400  0.87320692  0.65484640  1
  O  O179  1  0.82659025  0.87589289  0.97497671  1
  O  O180  1  0.01569096  0.37377642  0.19166207  1
  O  O181  1  0.00720272  0.37614079  0.52512292  1
  O  O182  1  0.00974563  0.37608117  0.85481537  1
  O  O183  1  0.01500137  0.87571986  0.19051528  1
  O  O184  1  0.00116270  0.87051865  0.52733982  1
  O  O185  1  0.01351393  0.87383151  0.83806516  1
  O  O186  1  0.32397720  0.37112574  0.19395547  1
  O  O187  1  0.33947395  0.37423890  0.51103853  1
  O  O188  1  0.33651615  0.37165636  0.85842837  1
  O  O189  1  0.32622415  0.87926412  0.19528115  1
  O  O190  1  0.34013171  0.87585742  0.52081417  1
  O  O191  1  0.32440612  0.87602581  0.84440625  1
  O  O192  1  0.67537464  0.37029635  0.17649484  1
  O  O193  1  0.66365947  0.37495372  0.52160089  1
  O  O194  1  0.66951946  0.37371480  0.84441932  1
  O  O195  1  0.67357548  0.87787283  0.17758332  1
  O  O196  1  0.66499968  0.87473747  0.52175428  1
  O  O197  1  0.67051928  0.87670337  0.86024133  1
  O  O198  1  0.00633453  0.12837957  0.13625715  1
  O  O199  1  -0.00257874  0.12791393  0.47719233  1
  O  O200  1  -0.01010387  0.12810647  0.81618813  1
  O  O201  1  0.00613601  0.62282613  0.14626463  1
  O  O202  1  -0.00558214  0.62473139  0.47222570  1
  O  O203  1  -0.01015817  0.62292519  0.80667916  1
  O  O204  1  0.33223947  0.12466504  0.14121627  1
  O  O205  1  0.32610572  0.12419089  0.47984022  1
  O  O206  1  0.33678576  0.12428663  0.80706412  1
  O  O207  1  0.32841312  0.62360366  0.15981832  1
  O  O208  1  0.32445215  0.62598709  0.47717261  1
  O  O209  1  0.33402225  0.62651865  0.81110802  1
  O  O210  1  0.65910420  0.12277599  0.14826889  1
  O  O211  1  0.65135765  0.12316462  0.48241437  1
  O  O212  1  0.66103602  0.12527533  0.82299538  1
  O  O213  1  0.66608773  0.62782260  0.16326270  1
  O  O214  1  0.66316473  0.62672335  0.47816271  1
  O  O215  1  0.65317389  0.62495622  0.80744595  1
  O  O216  1  0.08909974  0.02488530  0.24483823  1
  O  O217  1  0.08856488  0.02022770  0.57591139  1
  O  O218  1  0.08525777  0.01968159  0.91156132  1
  O  O219  1  0.09055469  0.52218446  0.24241903  1
  O  O220  1  0.08675580  0.52537779  0.57200105  1
  O  O221  1  0.09112400  0.51752344  0.89969392  1
  O  O222  1  0.41562594  0.02528262  0.25433350  1
  O  O223  1  0.41475425  0.02252066  0.58346793  1
  O  O224  1  0.41947117  0.01710016  0.91807311  1
  O  O225  1  0.40917322  0.50732524  0.25982860  1
  O  O226  1  0.41292159  0.52119781  0.59459126  1
  O  O227  1  0.42066602  0.51209323  0.91365093  1
  O  O228  1  0.75014519  0.01777765  0.25270104  1
  O  O229  1  0.75538543  0.01850991  0.57848166  1
  O  O230  1  0.75895548  0.01653288  0.90698649  1
  O  O231  1  0.75337646  0.51247398  0.25329880  1
  O  O232  1  0.75518965  0.52646132  0.57800964  1
  O  O233  1  0.75683496  0.51209236  0.89734949  1
  O  O234  1  0.25509265  0.22339687  0.25639328  1
  O  O235  1  0.25457943  0.23131454  0.58549031  1
  O  O236  1  0.26050096  0.23194483  0.92681506  1
  O  O237  1  0.24601642  0.72954866  0.24910955  1
  O  O238  1  0.24761827  0.72889402  0.58457117  1
  O  O239  1  0.24788107  0.73483459  0.91061307  1
  O  O240  1  0.58410748  0.22717205  0.25957191  1
  O  O241  1  0.58083896  0.23884904  0.58598138  1
  O  O242  1  0.58111782  0.23589140  0.91686384  1
  O  O243  1  0.58325442  0.74733066  0.25392197  1
  O  O244  1  0.59036648  0.73794526  0.59645206  1
  O  O245  1  0.58253957  0.74009357  0.91070312  1
  O  O246  1  0.93063384  0.23955097  0.25547095  1
  O  O247  1  0.92028304  0.23574479  0.58907380  1
  O  O248  1  0.92979718  0.23750838  0.92545447  1
  O  O249  1  0.92886762  0.74097770  0.25682524  1
  O  O250  1  0.91681065  0.72310740  0.58990046  1
  O  O251  1  0.92171449  0.73758920  0.91513339  1
  O  O252  1  0.08036634  0.47618577  0.07363943  1
  O  O253  1  0.08113105  0.47498013  0.40581795  1
  O  O254  1  0.06902026  0.48289433  0.73613974  1
  O  O255  1  0.08862426  0.98704822  0.08455205  1
  O  O256  1  0.07899678  0.98567100  0.40685312  1
  O  O257  1  0.07626662  0.98999426  0.74214085  1
  O  O258  1  0.40603172  0.48252445  0.08226603  1
  O  O259  1  0.41255744  0.48791451  0.41834927  1
  O  O260  1  0.41860056  0.48550056  0.75667418  1
  O  O261  1  0.42464119  0.98406702  0.09621732  1
  O  O262  1  0.41648874  0.98093692  0.41920249  1
  O  O263  1  0.41716709  0.97871539  0.75365796  1
  O  O264  1  0.75580654  0.48680577  0.08351779  1
  O  O265  1  0.74846292  0.50394094  0.41385774  1
  O  O266  1  0.73688274  0.48208526  0.73660373  1
  O  O267  1  0.75142528  0.98396032  0.07734403  1
  O  O268  1  0.75102979  1.00711564  0.41600683  1
  O  O269  1  0.74364108  0.97741148  0.74670617  1
  O  O270  1  0.24027747  0.26920340  0.08770095  1
  O  O271  1  0.24194364  0.27202482  0.42128016  1
  O  O272  1  0.24132445  0.26609024  0.76090781  1
  O  O273  1  0.24848318  0.76364238  0.09094306  1
  O  O274  1  0.25390887  0.76374824  0.40775169  1
  O  O275  1  0.24211721  0.75981992  0.75106169  1
  O  O276  1  0.57451796  0.25242239  0.08790338  1
  O  O277  1  0.57096467  0.26079483  0.42744205  1
  O  O278  1  0.57736412  0.26938216  0.75369951  1
  O  O279  1  0.58638970  0.77162183  0.08365630  1
  O  O280  1  0.57822891  0.76995437  0.42436354  1
  O  O281  1  0.57991864  0.78006213  0.75357724  1
  O  O282  1  0.91617753  0.27739873  0.09004702  1
  O  O283  1  0.91803429  0.26626078  0.41711845  1
  O  O284  1  0.90891497  0.27222638  0.76101408  1
  O  O285  1  0.91415894  0.77066841  0.09360473  1
  O  O286  1  0.91978625  0.76776157  0.41534895  1
  O  O287  1  0.90883064  0.76897877  0.75591888  1
  O  O288  1  0.24448808  0.47842594  0.08707242  1
  O  O289  1  0.24344938  0.47864353  0.41672385  1
  O  O290  1  0.24016353  0.48787720  0.75664240  1
  O  O291  1  0.24803676  0.98748634  0.09046391  1
  O  O292  1  0.25525410  0.98613695  0.41154793  1
  O  O293  1  0.24169772  0.98558096  0.75258568  1
  O  O294  1  0.57932982  0.49270200  0.08357263  1
  O  O295  1  0.57514602  0.48358963  0.42827235  1
  O  O296  1  0.57688950  0.47238386  0.75299751  1
  O  O297  1  0.58480977  0.98004653  0.08555900  1
  O  O298  1  0.57724960  0.98342063  0.42186360  1
  O  O299  1  0.58014605  0.97715505  0.75438907  1
  O  O300  1  0.91792380  0.47262152  0.09212578  1
  O  O301  1  0.91660202  0.48276470  0.41766071  1
  O  O302  1  0.90624832  0.47996403  0.76069694  1
  O  O303  1  0.91354690  0.97939786  0.09181472  1
  O  O304  1  0.92097687  0.98429664  0.41524531  1
  O  O305  1  0.91023333  0.98032220  0.75756217  1
  O  O306  1  0.07840575  0.27313578  0.07174098  1
  O  O307  1  0.07936946  0.27480474  0.40530709  1
  O  O308  1  0.07262284  0.27081318  0.74101756  1
  O  O309  1  0.08892164  0.76344974  0.08587995  1
  O  O310  1  0.08039134  0.76425207  0.40568120  1
  O  O311  1  0.07178540  0.75822508  0.73716675  1
  O  O312  1  0.40285209  0.26311052  0.07450610  1
  O  O313  1  0.40477404  0.25933928  0.40984556  1
  O  O314  1  0.41630262  0.26616456  0.75407636  1
  O  O315  1  0.42255474  0.76911931  0.09713510  1
  O  O316  1  0.41974878  0.77151413  0.42151717  1
  O  O317  1  0.41855707  0.76908140  0.75526076  1
  O  O318  1  0.75591471  0.25926312  0.08060532  1
  O  O319  1  0.74575892  0.24190665  0.41582766  1
  O  O320  1  0.74249050  0.26888447  0.74307159  1
  O  O321  1  0.75064189  0.76931648  0.07935986  1
  O  O322  1  0.75349174  0.74733196  0.41612117  1
  O  O323  1  0.74015355  0.77213358  0.74212900  1
  O  O324  1  0.25180220  0.02541775  0.25162774  1
  O  O325  1  0.25199238  0.01792344  0.58487397  1
  O  O326  1  0.25601738  0.02300904  0.92030659  1
  O  O327  1  0.24858271  0.52134665  0.25296004  1
  O  O328  1  0.24884829  0.52227429  0.58457303  1
  O  O329  1  0.25037837  0.51456859  0.91563176  1
  O  O330  1  0.58061911  0.01900869  0.25241529  1
  O  O331  1  0.57675885  0.00915545  0.58312482  1
  O  O332  1  0.58468780  0.01571598  0.91852600  1
  O  O333  1  0.58785376  0.50826357  0.26108964  1
  O  O334  1  0.59240212  0.51531349  0.59693975  1
  O  O335  1  0.58059340  0.50839047  0.90880523  1
  O  O336  1  0.92988462  0.01197564  0.25504956  1
  O  O337  1  0.91872399  0.01805038  0.58527475  1
  O  O338  1  0.92360085  0.01600561  0.91922037  1
  O  O339  1  0.92925746  0.50809616  0.25784816  1
  O  O340  1  0.92000997  0.51913702  0.59497222  1
  O  O341  1  0.92686290  0.51313546  0.92118931  1
  O  O342  1  0.09297684  0.22782365  0.24048593  1
  O  O343  1  0.09192091  0.23388024  0.56812997  1
  O  O344  1  0.09015507  0.23261022  0.90830099  1
  O  O345  1  0.08772761  0.72619255  0.24630704  1
  O  O346  1  0.08550169  0.72254457  0.57670308  1
  O  O347  1  0.08809214  0.73074243  0.90197962  1
  O  O348  1  0.42247805  0.22411064  0.24754363  1
  O  O349  1  0.41774943  0.22734026  0.58046761  1
  O  O350  1  0.41980317  0.22447551  0.91324201  1
  O  O351  1  0.40587729  0.74074310  0.26338820  1
  O  O352  1  0.41170139  0.73088527  0.59642096  1
  O  O353  1  0.42155699  0.74392240  0.91282824  1
  O  O354  1  0.75125033  0.23147914  0.25391410  1
  O  O355  1  0.75663192  0.22907563  0.57662512  1
  O  O356  1  0.76057578  0.23735131  0.90541664  1
  O  O357  1  0.75213916  0.73747719  0.25326680  1
  O  O358  1  0.75321414  0.72549094  0.58142592  1
  O  O359  1  0.75675483  0.73518077  0.90062840  1
