# generated using pymatgen
data_Ba17Sr5La8Pr42Mn72O216
_symmetry_space_group_name_H-M   'P 1'
_cell_length_a   16.66933843
_cell_length_b   15.70446444
_cell_length_c   16.81807500
_cell_angle_alpha   89.99356466
_cell_angle_beta   89.97933737
_cell_angle_gamma   90.00720942
_symmetry_Int_Tables_number   1
_chemical_formula_structural   Ba17Sr5La8Pr42Mn72O216
_chemical_formula_sum   'Ba17 Sr5 La8 Pr42 Mn72 O216'
_cell_volume   4402.68632973
_cell_formula_units_Z   1
loop_
 _symmetry_equiv_pos_site_id
 _symmetry_equiv_pos_as_xyz
  1  'x, y, z'
loop_
 _atom_site_type_symbol
 _atom_site_label
 _atom_site_symmetry_multiplicity
 _atom_site_fract_x
 _atom_site_fract_y
 _atom_site_fract_z
 _atom_site_occupancy
  Ba  Ba0  1  0.49879955  0.12395225  0.16441399  1
  Ba  Ba1  1  0.83560500  0.87478699  0.16650933  1
  Ba  Ba2  1  0.33332350  0.12665523  0.33216721  1
  Ba  Ba3  1  0.16649570  0.12616041  0.83440247  1
  Ba  Ba4  1  0.83272973  0.12573172  0.16378153  1
  Ba  Ba5  1  0.33478657  0.12633280  0.99696612  1
  Ba  Ba6  1  0.16635616  0.87604680  0.83138590  1
  Ba  Ba7  1  0.33349699  0.87302821  0.66566630  1
  Ba  Ba8  1  0.66505920  0.37708561  -0.00033253  1
  Ba  Ba9  1  0.49939579  0.87442500  0.16618759  1
  Ba  Ba10  1  0.17037053  0.62285599  0.16868849  1
  Ba  Ba11  1  -0.00221375  0.87336663  0.66992635  1
  Ba  Ba12  1  -0.00388927  0.37582354  0.33483302  1
  Ba  Ba13  1  -0.00076906  0.87434246  0.33665227  1
  Ba  Ba14  1  0.16777028  0.12744139  0.50068852  1
  Ba  Ba15  1  0.83434870  0.62440304  0.16703657  1
  Ba  Ba16  1  0.66726716  0.12614120  0.66711728  1
  Sr  Sr17  1  0.50071656  0.12355126  0.83481293  1
  Sr  Sr18  1  0.16476766  0.37613962  0.16715066  1
  Sr  Sr19  1  0.83155507  0.37526707  0.16423811  1
  Sr  Sr20  1  0.83516552  0.12738938  0.83625131  1
  Sr  Sr21  1  -0.00418987  0.37417616  0.66937288  1
  La  La22  1  0.82871345  0.87677513  0.49779548  1
  La  La23  1  0.16883344  0.87563761  0.16481756  1
  La  La24  1  0.50311959  0.62560497  0.83295424  1
  La  La25  1  0.66529916  0.87637955  -0.00050782  1
  La  La26  1  0.00393368  0.62421818  0.33014504  1
  La  La27  1  0.67049580  0.62623731  0.32953318  1
  La  La28  1  0.50039381  0.87577662  0.49585016  1
  La  La29  1  0.32945098  0.37319456  0.33161718  1
  Pr  Pr30  1  0.66349642  0.87359349  0.66837546  1
  Pr  Pr31  1  0.00666262  0.62438537  1.00480605  1
  Pr  Pr32  1  0.33610880  0.87521914  0.33490049  1
  Pr  Pr33  1  0.33924822  0.62369253  0.32738986  1
  Pr  Pr34  1  0.82276921  0.37462490  0.83180203  1
  Pr  Pr35  1  0.66570325  0.37364244  0.32772289  1
  Pr  Pr36  1  0.16960961  0.62922469  0.83698298  1
  Pr  Pr37  1  0.50381460  0.62505510  0.50220733  1
  Pr  Pr38  1  0.00307862  0.87840486  0.00525304  1
  Pr  Pr39  1  0.33371976  0.87853202  -0.00240326  1
  Pr  Pr40  1  0.65888518  0.37399338  0.67064966  1
  Pr  Pr41  1  0.49468044  0.37288015  0.82943187  1
  Pr  Pr42  1  0.00297603  0.12439444  0.66775205  1
  Pr  Pr43  1  0.49827407  0.87755428  0.82955336  1
  Pr  Pr44  1  0.32491653  0.37552392  0.66802213  1
  Pr  Pr45  1  0.49815064  0.37350661  0.49728096  1
  Pr  Pr46  1  0.84331580  0.62402512  0.50280675  1
  Pr  Pr47  1  0.84112523  0.12550177  0.50530399  1
  Pr  Pr48  1  0.16548257  0.12801841  0.17159653  1
  Pr  Pr49  1  0.33571533  0.62542182  0.99813747  1
  Pr  Pr50  1  0.83049170  0.87546101  0.83125602  1
  Pr  Pr51  1  0.66615169  0.12448540  0.32963524  1
  Pr  Pr52  1  0.15913899  0.37446298  0.49569269  1
  Pr  Pr53  1  0.66863956  0.87701218  0.33019318  1
  Pr  Pr54  1  0.50499855  0.62349654  0.16766097  1
  Pr  Pr55  1  0.33284097  0.62687775  0.66298224  1
  Pr  Pr56  1  0.67465547  0.62856018  0.99966879  1
  Pr  Pr57  1  0.49895208  0.12441850  0.50368938  1
  Pr  Pr58  1  0.67297831  0.62105523  0.66206613  1
  Pr  Pr59  1  0.49585613  0.37271011  0.16103054  1
  Pr  Pr60  1  0.16809794  0.87811762  0.49804094  1
  Pr  Pr61  1  0.00718680  0.62402230  0.66935037  1
  Pr  Pr62  1  0.33228554  0.12206633  0.66386134  1
  Pr  Pr63  1  0.66650793  0.12009015  0.99270217  1
  Pr  Pr64  1  -0.00211288  0.37251613  0.00930665  1
  Pr  Pr65  1  0.00383868  0.12616266  0.33259403  1
  Pr  Pr66  1  0.32944484  0.37354607  0.00077687  1
  Pr  Pr67  1  0.16628573  0.62346751  0.50068623  1
  Pr  Pr68  1  0.00273618  0.12688258  1.00081144  1
  Pr  Pr69  1  0.82370903  0.37313611  0.49713501  1
  Pr  Pr70  1  0.84057655  0.62202977  0.83747963  1
  Pr  Pr71  1  0.16090465  0.37459811  0.83397723  1
  Mn  Mn72  1  0.00162717  0.00120975  0.16816758  1
  Mn  Mn73  1  0.00016811  -0.00021541  0.50278692  1
  Mn  Mn74  1  -0.00306214  0.00228556  0.83562500  1
  Mn  Mn75  1  -0.00040564  0.49936209  0.16878085  1
  Mn  Mn76  1  -0.00116876  0.49997259  0.50376084  1
  Mn  Mn77  1  -0.00016260  0.49851034  0.83635763  1
  Mn  Mn78  1  0.33187162  -0.00118022  0.16644009  1
  Mn  Mn79  1  0.33429130  -0.00034862  0.49973173  1
  Mn  Mn80  1  0.33486766  0.00106925  0.83110862  1
  Mn  Mn81  1  0.33524007  0.49983708  0.16463017  1
  Mn  Mn82  1  0.33396043  0.50019588  0.49909434  1
  Mn  Mn83  1  0.33330913  0.50042676  0.83204874  1
  Mn  Mn84  1  0.66710675  -0.00001374  0.16379894  1
  Mn  Mn85  1  0.66607270  0.00028812  0.49913759  1
  Mn  Mn86  1  0.66751737  -0.00215116  0.83141453  1
  Mn  Mn87  1  0.66582192  0.50041743  0.16573169  1
  Mn  Mn88  1  0.66592254  0.49977740  0.49847144  1
  Mn  Mn89  1  0.66514249  0.50157686  0.83118339  1
  Mn  Mn90  1  -0.00061179  0.25042295  0.16798088  1
  Mn  Mn91  1  -0.00199501  0.25146740  0.50362606  1
  Mn  Mn92  1  -0.00288038  0.25343933  0.83603274  1
  Mn  Mn93  1  0.00224089  0.74925501  0.16894384  1
  Mn  Mn94  1  0.00080467  0.74873250  0.50261896  1
  Mn  Mn95  1  -0.00134399  0.74746563  0.83650124  1
  Mn  Mn96  1  0.33129177  0.25203726  0.16553374  1
  Mn  Mn97  1  0.33484505  0.25303233  0.50216907  1
  Mn  Mn98  1  0.33351518  0.25394170  0.83173415  1
  Mn  Mn99  1  0.33501331  0.74969719  0.16532405  1
  Mn  Mn100  1  0.33376015  0.74734662  0.49708012  1
  Mn  Mn101  1  0.33599901  0.74665667  0.83183505  1
  Mn  Mn102  1  0.66565775  0.24969562  0.16432002  1
  Mn  Mn103  1  0.66501142  0.25087997  0.49787468  1
  Mn  Mn104  1  0.66551647  0.25038679  0.83320163  1
  Mn  Mn105  1  0.66712748  0.75104011  0.16449340  1
  Mn  Mn106  1  0.66676144  0.74762325  0.49982085  1
  Mn  Mn107  1  0.66743468  0.74766718  0.83055402  1
  Mn  Mn108  1  0.16615713  0.25246636  0.00158979  1
  Mn  Mn109  1  0.16566043  0.25218610  0.33392161  1
  Mn  Mn110  1  0.16539906  0.25335321  0.66764434  1
  Mn  Mn111  1  0.16795715  0.74955248  0.00082725  1
  Mn  Mn112  1  0.17062970  0.74994115  0.33563961  1
  Mn  Mn113  1  0.16671425  0.74672929  0.66711278  1
  Mn  Mn114  1  0.50066906  0.25116427  -0.00377350  1
  Mn  Mn115  1  0.50128510  0.25273715  0.33246723  1
  Mn  Mn116  1  0.49723345  0.25081491  0.66536152  1
  Mn  Mn117  1  0.50032968  0.74716060  -0.00212619  1
  Mn  Mn118  1  0.50102186  0.74792441  0.33366660  1
  Mn  Mn119  1  0.50160272  0.74730471  0.66569595  1
  Mn  Mn120  1  0.83234874  0.25023680  -0.00182379  1
  Mn  Mn121  1  0.83038364  0.24983045  0.33493325  1
  Mn  Mn122  1  0.83320305  0.25155842  0.66727730  1
  Mn  Mn123  1  0.83755126  0.74944298  -0.00282939  1
  Mn  Mn124  1  0.83197533  0.75001478  0.33722478  1
  Mn  Mn125  1  0.83205149  0.74688680  0.66808851  1
  Mn  Mn126  1  0.16747433  -0.00073307  0.00148767  1
  Mn  Mn127  1  0.16692564  -0.00071893  0.33226560  1
  Mn  Mn128  1  0.16620554  0.00064352  0.66596527  1
  Mn  Mn129  1  0.16707674  0.50102515  -0.00099148  1
  Mn  Mn130  1  0.16922681  0.49950367  0.33611936  1
  Mn  Mn131  1  0.16582436  0.49901493  0.66805710  1
  Mn  Mn132  1  0.50047742  -0.00092672  -0.00387086  1
  Mn  Mn133  1  0.50102472  -0.00023773  0.33464343  1
  Mn  Mn134  1  0.49981544  0.00020994  0.66584013  1
  Mn  Mn135  1  0.49954349  0.50248440  -0.00101312  1
  Mn  Mn136  1  0.50143208  0.49925607  0.33243952  1
  Mn  Mn137  1  0.49825930  0.50068435  0.66490633  1
  Mn  Mn138  1  0.83515909  -0.00002338  -0.00405862  1
  Mn  Mn139  1  0.83164445  0.00200196  0.33654867  1
  Mn  Mn140  1  0.83249576  0.00078016  0.66776139  1
  Mn  Mn141  1  0.83550757  0.50031951  -0.00041024  1
  Mn  Mn142  1  0.83081394  0.49888311  0.33586233  1
  Mn  Mn143  1  0.83320120  0.49856793  0.66725520  1
  O  O144  1  0.16252930  0.12574840  0.02421666  1
  O  O145  1  0.16273518  0.12527968  0.34281765  1
  O  O146  1  0.16907556  0.13177911  0.67650946  1
  O  O147  1  0.17109183  0.62512513  0.01354818  1
  O  O148  1  0.17665083  0.62401191  0.35704025  1
  O  O149  1  0.16696200  0.61988730  0.69283465  1
  O  O150  1  0.50576692  0.12359593  0.00563114  1
  O  O151  1  0.50767274  0.12694863  0.35950928  1
  O  O152  1  0.49163207  0.12905205  0.68319264  1
  O  O153  1  0.49211056  0.62484009  0.02554344  1
  O  O154  1  0.49694354  0.62242054  0.36021512  1
  O  O155  1  0.49760584  0.62288863  0.68893393  1
  O  O156  1  0.81792148  0.12488259  0.00447900  1
  O  O157  1  0.82074523  0.12596273  0.36141627  1
  O  O158  1  0.83671437  0.13025929  0.68613350  1
  O  O159  1  0.82340915  0.62506882  0.00927263  1
  O  O160  1  0.82346577  0.62418639  0.35916954  1
  O  O161  1  0.82301283  0.62260566  0.69397261  1
  O  O162  1  0.17086488  0.37753494  0.32053988  1
  O  O163  1  0.17089212  0.37864645  0.63843156  1
  O  O164  1  0.16413926  0.38019159  0.97675935  1
  O  O165  1  0.17271288  0.87398447  0.31185858  1
  O  O166  1  0.16520150  0.86851087  0.64400376  1
  O  O167  1  0.16175168  0.87158471  0.98736905  1
  O  O168  1  0.50745430  0.37988376  0.30437548  1
  O  O169  1  0.50467107  0.37867346  0.64077451  1
  O  O170  1  0.49640531  0.38138892  0.97336733  1
  O  O171  1  0.49718903  0.87049371  0.32369552  1
  O  O172  1  0.50730573  0.86949638  0.64084529  1
  O  O173  1  0.50208652  0.86844615  0.97312838  1
  O  O174  1  0.82878788  0.37422869  0.31610722  1
  O  O175  1  0.83303134  0.37689558  0.63963265  1
  O  O176  1  0.84619673  0.37758830  0.97725491  1
  O  O177  1  0.82848529  0.87588131  0.32550568  1
  O  O178  1  0.82812796  0.86868190  0.64068108  1
  O  O179  1  0.84827033  0.87210485  0.97486831  1
  O  O180  1  -0.00366197  0.37518296  0.17608908  1
  O  O181  1  0.00319423  0.37824779  0.51886792  1
  O  O182  1  0.00671634  0.37843543  0.86429239  1
  O  O183  1  0.00577245  0.87538956  0.17696159  1
  O  O184  1  0.00191293  0.87213543  0.51297817  1
  O  O185  1  -0.00916870  0.86980161  0.85925955  1
  O  O186  1  0.34039913  0.37886314  0.18620510  1
  O  O187  1  0.34423947  0.37866711  0.52670322  1
  O  O188  1  0.33927419  0.38068587  0.85699199  1
  O  O189  1  0.32860404  0.87170189  0.18980276  1
  O  O190  1  0.34022033  0.87111994  0.51041312  1
  O  O191  1  0.34223792  0.86535169  0.85276146  1
  O  O192  1  0.65888945  0.37675460  0.18419558  1
  O  O193  1  0.66945669  0.37801410  0.52789436  1
  O  O194  1  0.66030856  0.37722446  0.84228313  1
  O  O195  1  0.66605118  0.87389637  0.18442838  1
  O  O196  1  0.66790127  0.86824125  0.52683241  1
  O  O197  1  0.66344412  0.86833937  0.85471974  1
  O  O198  1  0.00927516  0.12585208  0.14678997  1
  O  O199  1  -0.00687115  0.12614020  0.47884391  1
  O  O200  1  -0.00454398  0.13371701  0.81006665  1
  O  O201  1  0.00237982  0.62374755  0.15153445  1
  O  O202  1  -0.00211138  0.62396314  0.47695270  1
  O  O203  1  -0.00428659  0.62015059  0.81007153  1
  O  O204  1  0.32381016  0.12749829  0.15527863  1
  O  O205  1  0.33952523  0.12798840  0.48927142  1
  O  O206  1  0.33751632  0.13452525  0.80881115  1
  O  O207  1  0.33999771  0.62350474  0.14232217  1
  O  O208  1  0.32902781  0.62255185  0.46995988  1
  O  O209  1  0.33188917  0.62081160  0.80626663  1
  O  O210  1  0.66571707  0.12401355  0.14166117  1
  O  O211  1  0.65712706  0.12962459  0.47341859  1
  O  O212  1  0.67090205  0.12540915  0.82593121  1
  O  O213  1  0.66130657  0.62604707  0.14465987  1
  O  O214  1  0.65773206  0.62281099  0.47164701  1
  O  O215  1  0.66904889  0.62560642  0.80473805  1
  O  O216  1  0.08038732  0.01973614  0.25363590  1
  O  O217  1  0.07916756  0.01463800  0.58673382  1
  O  O218  1  0.07667760  0.01195879  0.92863280  1
  O  O219  1  0.08476512  0.51360681  0.25764778  1
  O  O220  1  0.08632985  0.52314619  0.58416711  1
  O  O221  1  0.08879348  0.52486227  0.91137141  1
  O  O222  1  0.41230457  0.00352344  0.25495464  1
  O  O223  1  0.41545431  0.01824166  0.58517129  1
  O  O224  1  0.42091668  0.00294122  0.91142084  1
  O  O225  1  0.42496144  0.52194222  0.24497587  1
  O  O226  1  0.41960690  0.52609414  0.57770179  1
  O  O227  1  0.42075671  0.52501845  0.91205967  1
  O  O228  1  0.74563069  0.01230441  0.25579924  1
  O  O229  1  0.75664902  0.01492656  0.57500897  1
  O  O230  1  0.75247332  -0.00034674  0.91071283  1
  O  O231  1  0.74549545  0.51051629  0.25394109  1
  O  O232  1  0.75325467  0.52338306  0.57398938  1
  O  O233  1  0.75764345  0.51219142  0.90691154  1
  O  O234  1  0.24618713  0.24546293  0.24613674  1
  O  O235  1  0.26108410  0.24236361  0.59402891  1
  O  O236  1  0.25127241  0.25065015  0.91697383  1
  O  O237  1  0.26078114  0.73446272  0.25916806  1
  O  O238  1  0.25132143  0.72469478  0.57955095  1
  O  O239  1  0.25518232  0.72997422  0.91751530  1
  O  O240  1  0.58847239  0.23468745  0.25798902  1
  O  O241  1  0.57962246  0.23885117  0.57746944  1
  O  O242  1  0.59109016  0.23440483  0.92077793  1
  O  O243  1  0.58282871  0.72908009  0.25392364  1
  O  O244  1  0.58751403  0.72333680  0.58496624  1
  O  O245  1  0.58824951  0.72308330  0.91515199  1
  O  O246  1  0.92043216  0.23018325  0.26181045  1
  O  O247  1  0.92072287  0.22979619  0.59044746  1
  O  O248  1  0.92175581  0.23177197  0.92360341  1
  O  O249  1  0.92014476  0.73440580  0.26211746  1
  O  O250  1  0.91925157  0.72246364  0.59447533  1
  O  O251  1  0.92197963  0.71983179  0.92029990  1
  O  O252  1  0.07920906  0.48810669  0.07390319  1
  O  O253  1  0.08698315  0.49185541  0.42509361  1
  O  O254  1  0.07951389  0.48021236  0.75002470  1
  O  O255  1  0.09075116  0.98362569  0.08945210  1
  O  O256  1  0.09040871  0.98609706  0.42163352  1
  O  O257  1  0.07756618  0.99670282  0.75160370  1
  O  O258  1  0.41252457  0.47833023  0.07591861  1
  O  O259  1  0.41484155  0.47680619  0.40843356  1
  O  O260  1  0.41172514  0.47862678  0.74428103  1
  O  O261  1  0.41350568  0.98391437  0.07555062  1
  O  O262  1  0.42234604  0.98587195  0.42185477  1
  O  O263  1  0.42330793  0.98411626  0.75134291  1
  O  O264  1  0.74690693  0.49293328  0.07970173  1
  O  O265  1  0.74219633  0.47611410  0.41360783  1
  O  O266  1  0.74267365  0.47791179  0.73795946  1
  O  O267  1  0.74959034  0.98226547  0.07228438  1
  O  O268  1  0.74388113  0.97927676  0.41533052  1
  O  O269  1  0.74504125  0.97488921  0.74491481  1
  O  O270  1  0.24966571  0.27280677  0.08155311  1
  O  O271  1  0.25096873  0.27299845  0.42348517  1
  O  O272  1  0.24597891  0.27822099  0.75365307  1
  O  O273  1  0.24968449  0.77005852  0.08348881  1
  O  O274  1  0.25131469  0.77520557  0.41857011  1
  O  O275  1  0.25170155  0.75218939  0.74859883  1
  O  O276  1  0.57408303  0.26606071  0.08863100  1
  O  O277  1  0.58168415  0.27917733  0.41730631  1
  O  O278  1  0.57626587  0.26889758  0.75037765  1
  O  O279  1  0.58573077  0.76006145  0.07548509  1
  O  O280  1  0.58189615  0.76843848  0.42116075  1
  O  O281  1  0.58349156  0.76899015  0.75169336  1
  O  O282  1  0.91915595  0.25857920  0.08204507  1
  O  O283  1  0.90423590  0.26262297  0.43036742  1
  O  O284  1  0.91021006  0.27720162  0.76049856  1
  O  O285  1  0.92266683  0.75802749  0.07688802  1
  O  O286  1  0.90586797  0.75810273  0.43058391  1
  O  O287  1  0.90459141  0.75942817  0.76237689  1
  O  O288  1  0.25015324  0.48184612  0.07975660  1
  O  O289  1  0.24830975  0.47511530  0.42499708  1
  O  O290  1  0.24494513  0.47529585  0.75285579  1
  O  O291  1  0.25236417  0.97639725  0.08046859  1
  O  O292  1  0.25475902  0.97904219  0.41167556  1
  O  O293  1  0.25524775  0.99759575  0.74536834  1
  O  O294  1  0.57056641  0.48942147  0.09300629  1
  O  O295  1  0.57877503  0.47615772  0.42119424  1
  O  O296  1  0.57573549  0.48358882  0.75107505  1
  O  O297  1  0.58740868  0.98600684  0.07385930  1
  O  O298  1  0.58527174  0.97521975  0.41652659  1
  O  O299  1  0.58385787  0.97835292  0.74823970  1
  O  O300  1  0.91549710  0.48801031  0.08236544  1
  O  O301  1  0.90372206  0.48862271  0.43220853  1
  O  O302  1  0.90753115  0.48251085  0.76400211  1
  O  O303  1  0.92550440  0.99281116  0.07723255  1
  O  O304  1  0.90702915  0.99048470  0.42928244  1
  O  O305  1  0.90557017  0.98389845  0.75809354  1
  O  O306  1  0.08316757  0.26762712  0.08354100  1
  O  O307  1  0.08264538  0.26305611  0.42197306  1
  O  O308  1  0.08225378  0.27227608  0.75442301  1
  O  O309  1  0.08425696  0.76322582  0.08154330  1
  O  O310  1  0.09422396  0.75871030  0.42472700  1
  O  O311  1  0.07904512  0.75081993  0.75323195  1
  O  O312  1  0.41278083  0.27076655  0.07718651  1
  O  O313  1  0.41785269  0.27436408  0.41483443  1
  O  O314  1  0.41070174  0.27909045  0.74209425  1
  O  O315  1  0.40892567  0.76623375  0.07282272  1
  O  O316  1  0.41468556  0.76262396  0.41269825  1
  O  O317  1  0.42363570  0.75981961  0.75443851  1
  O  O318  1  0.75082113  0.26351444  0.08151182  1
  O  O319  1  0.74202512  0.27449493  0.41252088  1
  O  O320  1  0.74384062  0.27358954  0.74315333  1
  O  O321  1  0.74752184  0.76457846  0.06923626  1
  O  O322  1  0.74353271  0.77073497  0.41615059  1
  O  O323  1  0.74382073  0.77283807  0.74317243  1
  O  O324  1  0.23840753  0.01087976  0.23998713  1
  O  O325  1  0.25094221  0.00621056  0.57929763  1
  O  O326  1  0.25237506  0.00265088  0.91829090  1
  O  O327  1  0.26310178  0.51113676  0.25954152  1
  O  O328  1  0.25338405  0.52288419  0.58864713  1
  O  O329  1  0.25402979  0.52130631  0.91680707  1
  O  O330  1  0.58591269  0.01171483  0.25778114  1
  O  O331  1  0.57751889  0.01382666  0.57633294  1
  O  O332  1  0.58862168  0.00891657  0.91565073  1
  O  O333  1  0.58628894  0.52520660  0.25579094  1
  O  O334  1  0.58725021  0.52207214  0.58475460  1
  O  O335  1  0.58689105  0.52791044  0.92306758  1
  O  O336  1  0.91948479  0.01868208  0.26122302  1
  O  O337  1  0.91924172  0.02117190  0.59115802  1
  O  O338  1  0.92004980  0.02374174  0.92013344  1
  O  O339  1  0.91969431  0.51743271  0.26396294  1
  O  O340  1  0.92132716  0.52460758  0.59381225  1
  O  O341  1  0.92503227  0.52441435  0.92367192  1
  O  O342  1  0.08135049  0.23292762  0.24943347  1
  O  O343  1  0.07910436  0.23944591  0.58916244  1
  O  O344  1  0.07968775  0.23727454  0.92392013  1
  O  O345  1  0.08539287  0.73449614  0.25844273  1
  O  O346  1  0.08535501  0.72238912  0.58512240  1
  O  O347  1  0.08478620  0.72644023  0.91755226  1
  O  O348  1  0.41811393  0.24812432  0.24862176  1
  O  O349  1  0.42070224  0.23273519  0.57952393  1
  O  O350  1  0.42506948  0.24540810  0.90507780  1
  O  O351  1  0.42134063  0.72657719  0.24685429  1
  O  O352  1  0.41730370  0.72453384  0.57851041  1
  O  O353  1  0.41923019  0.72213243  0.91361352  1
  O  O354  1  0.74534567  0.23766563  0.25411639  1
  O  O355  1  0.75619400  0.23594135  0.57070028  1
  O  O356  1  0.75566254  0.24945765  0.90867414  1
  O  O357  1  0.74627602  0.73942286  0.25537842  1
  O  O358  1  0.75203461  0.72157121  0.57760481  1
  O  O359  1  0.75569734  0.73311746  0.90596717  1
