# generated using pymatgen
data_Ba17Sr5La8Pr42Mn72O216
_symmetry_space_group_name_H-M   'P 1'
_cell_length_a   16.67283882
_cell_length_b   15.70517006
_cell_length_c   16.82158020
_cell_angle_alpha   90.00262575
_cell_angle_beta   89.97197930
_cell_angle_gamma   89.99745102
_symmetry_Int_Tables_number   1
_chemical_formula_structural   Ba17Sr5La8Pr42Mn72O216
_chemical_formula_sum   'Ba17 Sr5 La8 Pr42 Mn72 O216'
_cell_volume   4404.72635388
_cell_formula_units_Z   1
loop_
 _symmetry_equiv_pos_site_id
 _symmetry_equiv_pos_as_xyz
  1  'x, y, z'
loop_
 _atom_site_type_symbol
 _atom_site_label
 _atom_site_symmetry_multiplicity
 _atom_site_fract_x
 _atom_site_fract_y
 _atom_site_fract_z
 _atom_site_occupancy
  Ba  Ba0  1  0.16673216  0.12584283  0.50295548  1
  Ba  Ba1  1  -0.00005486  0.37356097  0.67028954  1
  Ba  Ba2  1  0.50082415  0.62611771  0.49889101  1
  Ba  Ba3  1  -0.00300459  0.12173376  1.00056325  1
  Ba  Ba4  1  0.83115575  0.37395357  0.83150141  1
  Ba  Ba5  1  0.66804245  0.62546189  0.33401927  1
  Ba  Ba6  1  0.83290104  0.62588103  0.49730006  1
  Ba  Ba7  1  0.49574652  0.12453925  0.83492223  1
  Ba  Ba8  1  0.83596592  0.37406086  0.49880865  1
  Ba  Ba9  1  0.66801016  0.37465261  -0.00169796  1
  Ba  Ba10  1  0.33478609  0.62524567  1.00007031  1
  Ba  Ba11  1  0.16423851  0.62464878  0.83799459  1
  Ba  Ba12  1  0.33582991  0.37277802  0.33272418  1
  Ba  Ba13  1  0.49844847  0.87606332  0.49896233  1
  Ba  Ba14  1  0.83519701  0.87591397  0.49658688  1
  Ba  Ba15  1  0.00244731  0.87564255  0.33481107  1
  Ba  Ba16  1  0.16701306  0.62433863  0.50277320  1
  Sr  Sr17  1  0.50061677  0.62627072  0.83356623  1
  Sr  Sr18  1  0.32979885  0.12514461  0.99617825  1
  Sr  Sr19  1  0.00471237  0.37502367  0.33647225  1
  Sr  Sr20  1  0.16586737  0.37529438  0.83718157  1
  Sr  Sr21  1  0.16634791  0.62540446  0.17313413  1
  La  La22  1  0.66298510  0.37900246  0.67072326  1
  La  La23  1  0.66483429  0.87754492  -0.00149690  1
  La  La24  1  0.49321955  0.87474316  0.82901862  1
  La  La25  1  0.33045301  0.87264374  0.66526309  1
  La  La26  1  0.33517935  0.87486348  -0.00083096  1
  La  La27  1  0.33509203  0.62550532  0.32914963  1
  La  La28  1  0.00620849  0.37480126  0.00186324  1
  La  La29  1  0.83280554  0.62254198  0.16897633  1
  Pr  Pr30  1  0.50113605  0.37582293  0.49796562  1
  Pr  Pr31  1  0.66756345  0.37582162  0.33325411  1
  Pr  Pr32  1  -0.00266993  0.62591199  0.99926159  1
  Pr  Pr33  1  0.32744109  0.37524603  0.66812865  1
  Pr  Pr34  1  0.83510104  0.87265212  0.16070936  1
  Pr  Pr35  1  -0.00423988  0.61996739  0.66441735  1
  Pr  Pr36  1  0.83519939  0.88073993  0.82556096  1
  Pr  Pr37  1  0.82759679  0.12931128  0.83336724  1
  Pr  Pr38  1  0.49329541  0.37629812  0.83192571  1
  Pr  Pr39  1  0.33093225  0.87333734  0.33632061  1
  Pr  Pr40  1  0.16205334  0.12637451  0.17398569  1
  Pr  Pr41  1  0.66670022  0.12582976  0.66200310  1
  Pr  Pr42  1  0.66799551  0.12261409  0.33239455  1
  Pr  Pr43  1  0.66739942  0.62428907  0.99812942  1
  Pr  Pr44  1  0.83222731  0.62209459  0.83060538  1
  Pr  Pr45  1  0.66706124  0.62329653  0.65906421  1
  Pr  Pr46  1  0.17064520  0.87549068  0.83824422  1
  Pr  Pr47  1  0.82843200  0.12693474  0.16483910  1
  Pr  Pr48  1  0.50237073  0.37831470  0.16233519  1
  Pr  Pr49  1  0.66678390  0.87386611  0.33669447  1
  Pr  Pr50  1  0.84179282  0.37800137  0.15956464  1
  Pr  Pr51  1  0.33128067  0.62429052  0.66459499  1
  Pr  Pr52  1  0.50348006  0.62233087  0.17214158  1
  Pr  Pr53  1  -0.00711382  0.62386732  0.33354707  1
  Pr  Pr54  1  -0.00890859  0.12558861  0.33102953  1
  Pr  Pr55  1  0.17761968  0.37391971  0.16459891  1
  Pr  Pr56  1  0.00570298  0.87257239  0.66667110  1
  Pr  Pr57  1  0.17473061  0.87598277  0.16641246  1
  Pr  Pr58  1  0.33432737  0.12225508  0.32935024  1
  Pr  Pr59  1  0.16170665  0.12715850  0.83829878  1
  Pr  Pr60  1  0.50202819  0.12818441  0.16554705  1
  Pr  Pr61  1  0.66556357  0.12648014  0.99341369  1
  Pr  Pr62  1  0.33684506  0.37612269  0.00066124  1
  Pr  Pr63  1  0.16466039  0.37581016  0.49891537  1
  Pr  Pr64  1  0.33109855  0.12355965  0.66555396  1
  Pr  Pr65  1  0.49910917  0.12705332  0.50391142  1
  Pr  Pr66  1  -0.00662766  0.12688714  0.66765035  1
  Pr  Pr67  1  0.66525607  0.86961176  0.66748582  1
  Pr  Pr68  1  0.00796140  0.87511540  0.00621510  1
  Pr  Pr69  1  0.83772582  0.12450849  0.49774062  1
  Pr  Pr70  1  0.16791001  0.87547336  0.49806748  1
  Pr  Pr71  1  0.50117393  0.87291081  0.16554112  1
  Mn  Mn72  1  -0.00051163  -0.00007936  0.16793261  1
  Mn  Mn73  1  0.00162906  0.00215652  0.50136106  1
  Mn  Mn74  1  -0.00114458  -0.00286579  0.83324079  1
  Mn  Mn75  1  0.00409065  0.49972994  0.16846593  1
  Mn  Mn76  1  0.00136082  0.49921444  0.49937461  1
  Mn  Mn77  1  -0.00108356  0.50165751  0.83529525  1
  Mn  Mn78  1  0.33649008  0.00150196  0.16512211  1
  Mn  Mn79  1  0.33342239  0.00170088  0.49867486  1
  Mn  Mn80  1  0.32982860  0.00038581  0.83342594  1
  Mn  Mn81  1  0.33509125  0.50003760  0.16595645  1
  Mn  Mn82  1  0.33421673  0.49873931  0.50101566  1
  Mn  Mn83  1  0.33204665  0.49889091  0.83359886  1
  Mn  Mn84  1  0.66662773  0.00008821  0.16513771  1
  Mn  Mn85  1  0.66577881  0.00161826  0.49760670  1
  Mn  Mn86  1  0.66542943  -0.00146089  0.83241521  1
  Mn  Mn87  1  0.66838317  0.49870404  0.16556402  1
  Mn  Mn88  1  0.66717844  0.49734271  0.50090917  1
  Mn  Mn89  1  0.66304821  0.50292306  0.83183651  1
  Mn  Mn90  1  0.00148096  0.24985139  0.16977263  1
  Mn  Mn91  1  0.00154233  0.24929689  0.49939260  1
  Mn  Mn92  1  -0.00052478  0.24809371  0.83554023  1
  Mn  Mn93  1  0.00166577  0.75039313  0.16712473  1
  Mn  Mn94  1  0.00132473  0.74938201  0.50145897  1
  Mn  Mn95  1  -0.00313491  0.75291675  0.83593097  1
  Mn  Mn96  1  0.33565717  0.24776615  0.16395625  1
  Mn  Mn97  1  0.33462555  0.24994484  0.50138916  1
  Mn  Mn98  1  0.32941910  0.25029714  0.83397365  1
  Mn  Mn99  1  0.33654372  0.75176829  0.16730321  1
  Mn  Mn100  1  0.33264274  0.74959263  0.49985033  1
  Mn  Mn101  1  0.33287243  0.74931469  0.83380287  1
  Mn  Mn102  1  0.66731360  0.24833340  0.16639678  1
  Mn  Mn103  1  0.66634208  0.24963092  0.49814678  1
  Mn  Mn104  1  0.66174897  0.25014346  0.83061287  1
  Mn  Mn105  1  0.66778710  0.75336394  0.16397810  1
  Mn  Mn106  1  0.66668715  0.75185495  0.50050341  1
  Mn  Mn107  1  0.66700960  0.74996877  0.83406076  1
  Mn  Mn108  1  0.16751279  0.24915200  0.00236108  1
  Mn  Mn109  1  0.16756869  0.25039610  0.33510603  1
  Mn  Mn110  1  0.16650588  0.24913009  0.67108044  1
  Mn  Mn111  1  0.16629466  0.75001498  0.00443369  1
  Mn  Mn112  1  0.16786445  0.74859013  0.33488511  1
  Mn  Mn113  1  0.16576443  0.75024962  0.67027168  1
  Mn  Mn114  1  0.49900812  0.24959912  -0.00004257  1
  Mn  Mn115  1  0.50240812  0.24797614  0.33373660  1
  Mn  Mn116  1  0.49749535  0.24941381  0.66634873  1
  Mn  Mn117  1  0.50227666  0.75155902  -0.00107764  1
  Mn  Mn118  1  0.50065328  0.75135122  0.33016485  1
  Mn  Mn119  1  0.49868640  0.75029536  0.66879805  1
  Mn  Mn120  1  0.83480040  0.24996500  0.00007958  1
  Mn  Mn121  1  0.83218736  0.25007882  0.32998620  1
  Mn  Mn122  1  0.83008173  0.24735015  0.66518661  1
  Mn  Mn123  1  0.83236680  0.75087910  -0.00472443  1
  Mn  Mn124  1  0.83396501  0.75080559  0.32895382  1
  Mn  Mn125  1  0.83336232  0.75301599  0.66715493  1
  Mn  Mn126  1  0.16753609  0.00076718  0.00292217  1
  Mn  Mn127  1  0.16842985  0.00201773  0.33497941  1
  Mn  Mn128  1  0.16557852  -0.00151073  0.67078428  1
  Mn  Mn129  1  0.16659885  0.49939298  0.00383034  1
  Mn  Mn130  1  0.16786252  0.49973155  0.33390178  1
  Mn  Mn131  1  0.16613855  0.49950444  0.66987536  1
  Mn  Mn132  1  0.49942699  -0.00099944  0.00014104  1
  Mn  Mn133  1  0.50065371  0.00249082  0.33079535  1
  Mn  Mn134  1  0.49958349  0.00010975  0.66631118  1
  Mn  Mn135  1  0.50153262  0.50198986  -0.00168079  1
  Mn  Mn136  1  0.50123245  0.49755255  0.33234650  1
  Mn  Mn137  1  0.49687103  0.50007826  0.66757767  1
  Mn  Mn138  1  0.83118754  -0.00200049  -0.00463161  1
  Mn  Mn139  1  0.83182063  0.00117999  0.32964593  1
  Mn  Mn140  1  0.83235914  0.00004208  0.66406910  1
  Mn  Mn141  1  0.83577277  0.50192563  -0.00080497  1
  Mn  Mn142  1  0.83421443  0.49728305  0.32955320  1
  Mn  Mn143  1  0.83134157  0.49983015  0.66639168  1
  O  O144  1  0.16970412  0.12328193  0.02806095  1
  O  O145  1  0.18143288  0.12600208  0.34657656  1
  O  O146  1  0.17596456  0.12085281  0.69582212  1
  O  O147  1  0.15797484  0.62717209  0.02088573  1
  O  O148  1  0.17942823  0.62478852  0.34545198  1
  O  O149  1  0.17414800  0.62636925  0.68197901  1
  O  O150  1  0.50330013  0.12272637  0.02187627  1
  O  O151  1  0.50321935  0.12574287  0.36046033  1
  O  O152  1  0.50440691  0.12410069  0.68066021  1
  O  O153  1  0.50714731  0.63045897  0.02690795  1
  O  O154  1  0.49413661  0.62502735  0.33884217  1
  O  O155  1  0.50168647  0.62665225  0.68533100  1
  O  O156  1  0.82413605  0.12392859  0.02187011  1
  O  O157  1  0.82892167  0.12581995  0.35332549  1
  O  O158  1  0.83067951  0.12046350  0.68886754  1
  O  O159  1  0.83295337  0.62866016  0.02569225  1
  O  O160  1  0.83815926  0.62328771  0.33682300  1
  O  O161  1  0.83070780  0.63125557  0.68617488  1
  O  O162  1  0.16317769  0.37345496  0.30853941  1
  O  O163  1  0.17041511  0.37367831  0.64392603  1
  O  O164  1  0.16343105  0.37242521  0.98786173  1
  O  O165  1  0.17348722  0.87715522  0.30998252  1
  O  O166  1  0.16213666  0.87560334  0.64168428  1
  O  O167  1  0.16522299  0.87597402  0.98372054  1
  O  O168  1  0.50805950  0.36881019  0.30593345  1
  O  O169  1  0.49588819  0.37139620  0.64104827  1
  O  O170  1  0.49637871  0.37431560  0.97826728  1
  O  O171  1  0.50093766  0.87953478  0.30812259  1
  O  O172  1  0.49664186  0.87703292  0.65576788  1
  O  O173  1  0.50421230  0.87486167  0.97414945  1
  O  O174  1  0.82839543  0.37063642  0.30411552  1
  O  O175  1  0.82414290  0.36883951  0.65754067  1
  O  O176  1  0.84287673  0.37618479  0.98899126  1
  O  O177  1  0.82712117  0.87923309  0.30609021  1
  O  O178  1  0.82915105  0.87885728  0.65179801  1
  O  O179  1  0.82550457  0.87181674  0.96740089  1
  O  O180  1  -0.00764014  0.37303154  0.18738573  1
  O  O181  1  0.00700463  0.37229850  0.51154918  1
  O  O182  1  -0.00218143  0.37317372  0.85631472  1
  O  O183  1  -0.01099476  0.87667862  0.17953479  1
  O  O184  1  0.00628137  0.87722147  0.52163236  1
  O  O185  1  -0.01398683  0.87465755  0.86347756  1
  O  O186  1  0.33584634  0.37293268  0.17659524  1
  O  O187  1  0.34335299  0.37217367  0.52470762  1
  O  O188  1  0.33749657  0.37428968  0.85626730  1
  O  O189  1  0.33687434  0.87924673  0.19344446  1
  O  O190  1  0.32927596  0.87709707  0.51966183  1
  O  O191  1  0.33227905  0.87736973  0.85434191  1
  O  O192  1  0.66250908  0.36852036  0.18939072  1
  O  O193  1  0.66175049  0.37032787  0.52475515  1
  O  O194  1  0.65960924  0.37615414  0.84148906  1
  O  O195  1  0.66578136  0.87918078  0.19397124  1
  O  O196  1  0.66763474  0.87960038  0.52036477  1
  O  O197  1  0.67407824  0.87449537  0.85755333  1
  O  O198  1  0.00675277  0.12379937  0.15498889  1
  O  O199  1  -0.00269390  0.12598375  0.47743333  1
  O  O200  1  0.01036720  0.11816636  0.81188909  1
  O  O201  1  0.00004800  0.62642082  0.14182769  1
  O  O202  1  0.00196268  0.62431649  0.48088492  1
  O  O203  1  -0.00366564  0.63334077  0.80883111  1
  O  O204  1  0.33642684  0.12352729  0.14353978  1
  O  O205  1  0.33724363  0.12550017  0.47405034  1
  O  O206  1  0.32270291  0.12421227  0.80936882  1
  O  O207  1  0.34191089  0.62562816  0.15726988  1
  O  O208  1  0.33220340  0.62531227  0.47592935  1
  O  O209  1  0.33401850  0.62250828  0.80974332  1
  O  O210  1  0.66803952  0.12282396  0.13564759  1
  O  O211  1  0.65763868  0.12638761  0.47423363  1
  O  O212  1  0.66772251  0.12131069  0.80891061  1
  O  O213  1  0.66614229  0.63054680  0.14227711  1
  O  O214  1  0.66540108  0.62537809  0.49492845  1
  O  O215  1  0.66585060  0.62968441  0.80486456  1
  O  O216  1  0.08471414  0.02099237  0.25885394  1
  O  O217  1  0.07556905  0.01652070  0.59959375  1
  O  O218  1  0.08072241  0.00633915  0.91717537  1
  O  O219  1  0.07665897  0.52107914  0.25711877  1
  O  O220  1  0.08059682  0.51319485  0.59194722  1
  O  O221  1  0.07295620  0.51094449  0.93255617  1
  O  O222  1  0.42029500  0.02686188  0.24620645  1
  O  O223  1  0.41620136  0.02211748  0.57800135  1
  O  O224  1  0.40943407  0.00747239  0.91968039  1
  O  O225  1  0.41989556  0.51139123  0.24598620  1
  O  O226  1  0.41313145  0.51849152  0.58849574  1
  O  O227  1  0.42267831  0.50981920  0.91021821  1
  O  O228  1  0.74876433  0.02582918  0.24493232  1
  O  O229  1  0.74891523  0.02616977  0.57823695  1
  O  O230  1  0.74641859  0.02296697  0.91645103  1
  O  O231  1  0.75295018  0.50948739  0.24291452  1
  O  O232  1  0.74698080  0.51032786  0.58632829  1
  O  O233  1  0.75017990  0.52246452  0.91440971  1
  O  O234  1  0.24823302  0.23328295  0.24264857  1
  O  O235  1  0.25704623  0.23567939  0.59209900  1
  O  O236  1  0.24274742  0.23161458  0.91180429  1
  O  O237  1  0.25849270  0.74006806  0.25615708  1
  O  O238  1  0.25399056  0.74090564  0.59040361  1
  O  O239  1  0.24871133  0.74722623  0.92001851  1
  O  O240  1  0.58527616  0.22174932  0.25063080  1
  O  O241  1  0.58343730  0.23000190  0.58234642  1
  O  O242  1  0.58466381  0.23404703  0.92145287  1
  O  O243  1  0.58160774  0.73906548  0.24208221  1
  O  O244  1  0.58760184  0.74339051  0.59538068  1
  O  O245  1  0.59086643  0.73283905  0.92323624  1
  O  O246  1  0.91148157  0.22586475  0.24451418  1
  O  O247  1  0.91353929  0.22745265  0.58100532  1
  O  O248  1  0.90997091  0.22955173  0.91052419  1
  O  O249  1  0.91730440  0.73048514  0.24355789  1
  O  O250  1  0.92012321  0.73795232  0.59078623  1
  O  O251  1  0.91036199  0.72304809  0.91231183  1
  O  O252  1  0.09052945  0.47559586  0.09512268  1
  O  O253  1  0.08902175  0.48395615  0.42123451  1
  O  O254  1  0.08271919  0.49195003  0.75723736  1
  O  O255  1  0.08897132  0.97872830  0.09135101  1
  O  O256  1  0.09092735  0.98650897  0.42662372  1
  O  O257  1  0.08520346  0.97084442  0.75774595  1
  O  O258  1  0.41878425  0.48133719  0.08042279  1
  O  O259  1  0.42319192  0.48333830  0.42044251  1
  O  O260  1  0.41241851  0.47586342  0.74690633  1
  O  O261  1  0.42009644  0.97545129  0.08566691  1
  O  O262  1  0.41008369  0.98804577  0.40380298  1
  O  O263  1  0.41039788  0.98511522  0.74906788  1
  O  O264  1  0.75924193  0.48820333  0.08613296  1
  O  O265  1  0.74814039  0.48246789  0.40791939  1
  O  O266  1  0.73877187  0.49336047  0.74362463  1
  O  O267  1  0.74969179  0.97494495  0.08487386  1
  O  O268  1  0.74416828  0.98878171  0.40721540  1
  O  O269  1  0.74899908  0.98171310  0.74891439  1
  O  O270  1  0.25625143  0.27035807  0.07682498  1
  O  O271  1  0.24937847  0.26956354  0.42445989  1
  O  O272  1  0.25118558  0.27183159  0.74916801  1
  O  O273  1  0.25315411  0.77174913  0.08962243  1
  O  O274  1  0.24938590  0.77395445  0.41852048  1
  O  O275  1  0.24780555  0.77334958  0.75112719  1
  O  O276  1  0.57932160  0.26282656  0.09062873  1
  O  O277  1  0.58514317  0.27492752  0.41583719  1
  O  O278  1  0.57567863  0.27122067  0.74951309  1
  O  O279  1  0.58436298  0.77731707  0.08343829  1
  O  O280  1  0.58433571  0.76602811  0.40974194  1
  O  O281  1  0.58181552  0.77474895  0.75683331  1
  O  O282  1  0.92406368  0.26579615  0.08284511  1
  O  O283  1  0.91823342  0.25522322  0.40784604  1
  O  O284  1  0.91539169  0.24593968  0.74932932  1
  O  O285  1  0.91746050  0.77167227  0.07338824  1
  O  O286  1  0.91942338  0.75503240  0.41025699  1
  O  O287  1  0.91681779  0.77562482  0.75030571  1
  O  O288  1  0.25311302  0.48124992  0.08322718  1
  O  O289  1  0.24917730  0.47887532  0.42440781  1
  O  O290  1  0.25123123  0.47982975  0.74954500  1
  O  O291  1  0.25581597  0.97563845  0.08402461  1
  O  O292  1  0.25110201  0.97858431  0.41630498  1
  O  O293  1  0.24789219  0.97216982  0.75095139  1
  O  O294  1  0.58085260  0.48668327  0.08760856  1
  O  O295  1  0.58454505  0.47700676  0.41637857  1
  O  O296  1  0.57290497  0.48064911  0.75406688  1
  O  O297  1  0.58354176  0.97794206  0.08701650  1
  O  O298  1  0.58666005  0.98426317  0.40829499  1
  O  O299  1  0.58554073  0.97552750  0.75264044  1
  O  O300  1  0.92705621  0.48536960  0.07868392  1
  O  O301  1  0.92180996  0.49163551  0.40617919  1
  O  O302  1  0.91125121  0.49977848  0.75151645  1
  O  O303  1  0.91425564  0.97797612  0.07241377  1
  O  O304  1  0.91636364  0.99853190  0.41161870  1
  O  O305  1  0.92391921  0.98176429  0.74270523  1
  O  O306  1  0.09316066  0.26633597  0.09744007  1
  O  O307  1  0.08953666  0.26482856  0.42201964  1
  O  O308  1  0.08809169  0.25613402  0.75978578  1
  O  O309  1  0.08796567  0.77506487  0.09173919  1
  O  O310  1  0.09146344  0.76541007  0.42558418  1
  O  O311  1  0.08396543  0.77795931  0.76024297  1
  O  O312  1  0.42172615  0.26946122  0.08650663  1
  O  O313  1  0.42659637  0.26306350  0.42510922  1
  O  O314  1  0.41259566  0.26847053  0.74943302  1
  O  O315  1  0.41826978  0.77564214  0.08033930  1
  O  O316  1  0.40959588  0.76336348  0.40471781  1
  O  O317  1  0.41324074  0.76866059  0.74826233  1
  O  O318  1  0.75904174  0.26508366  0.09172359  1
  O  O319  1  0.74395509  0.26404051  0.40769576  1
  O  O320  1  0.73782181  0.25466321  0.73954706  1
  O  O321  1  0.74943751  0.77501375  0.07817383  1
  O  O322  1  0.74752726  0.76530403  0.40708101  1
  O  O323  1  0.74982252  0.77301935  0.75221592  1
  O  O324  1  0.25230023  0.01942296  0.24639421  1
  O  O325  1  0.25470814  0.01224262  0.59142609  1
  O  O326  1  0.24242288  0.01510330  0.91194535  1
  O  O327  1  0.25177892  0.51072789  0.24902136  1
  O  O328  1  0.25669035  0.50912107  0.59022605  1
  O  O329  1  0.25078827  0.50323497  0.92026664  1
  O  O330  1  0.58372675  0.02623858  0.24691650  1
  O  O331  1  0.58557420  0.01987245  0.58127892  1
  O  O332  1  0.58834349  0.01305259  0.92268681  1
  O  O333  1  0.58118952  0.51126627  0.24587785  1
  O  O334  1  0.58585790  0.50799003  0.59339555  1
  O  O335  1  0.58792510  0.52253669  0.92102276  1
  O  O336  1  0.91163159  0.02374290  0.24516453  1
  O  O337  1  0.91456448  0.02380640  0.58002805  1
  O  O338  1  0.90494868  0.01793440  0.89957164  1
  O  O339  1  0.91466290  0.51663207  0.24107395  1
  O  O340  1  0.91844758  0.51300397  0.58660375  1
  O  O341  1  0.91425309  0.52690497  0.91625755  1
  O  O342  1  0.07899470  0.22750855  0.25767377  1
  O  O343  1  0.07922122  0.23087420  0.59584897  1
  O  O344  1  0.08161342  0.23648213  0.92321622  1
  O  O345  1  0.08273400  0.73212080  0.25794833  1
  O  O346  1  0.07632623  0.73561329  0.59922710  1
  O  O347  1  0.06948994  0.74181517  0.92810373  1
  O  O348  1  0.41770772  0.22499307  0.25253767  1
  O  O349  1  0.41639905  0.22360237  0.58507339  1
  O  O350  1  0.40945135  0.24059341  0.92132660  1
  O  O351  1  0.42382247  0.73759801  0.24170003  1
  O  O352  1  0.41162536  0.73677048  0.58751537  1
  O  O353  1  0.42277276  0.74268713  0.91295000  1
  O  O354  1  0.74706706  0.22317459  0.24848009  1
  O  O355  1  0.74966936  0.22221714  0.57652167  1
  O  O356  1  0.74648360  0.23111531  0.91400991  1
  O  O357  1  0.75706585  0.74019452  0.23682664  1
  O  O358  1  0.74567084  0.74128306  0.59194470  1
  O  O359  1  0.74923128  0.72124187  0.91544370  1
