# generated using pymatgen
data_Ba17Sr5La8Pr42Mn72O216
_symmetry_space_group_name_H-M   'P 1'
_cell_length_a   16.67282406
_cell_length_b   15.69656751
_cell_length_c   16.81828740
_cell_angle_alpha   90.00287381
_cell_angle_beta   90.00200988
_cell_angle_gamma   89.98561375
_symmetry_Int_Tables_number   1
_chemical_formula_structural   Ba17Sr5La8Pr42Mn72O216
_chemical_formula_sum   'Ba17 Sr5 La8 Pr42 Mn72 O216'
_cell_volume   4401.44839824
_cell_formula_units_Z   1
loop_
 _symmetry_equiv_pos_site_id
 _symmetry_equiv_pos_as_xyz
  1  'x, y, z'
loop_
 _atom_site_type_symbol
 _atom_site_label
 _atom_site_symmetry_multiplicity
 _atom_site_fract_x
 _atom_site_fract_y
 _atom_site_fract_z
 _atom_site_occupancy
  Ba  Ba0  1  0.67213028  0.87381048  0.66877103  1
  Ba  Ba1  1  -0.00162905  0.12531711  0.99855028  1
  Ba  Ba2  1  0.16741320  0.62645374  0.16742386  1
  Ba  Ba3  1  0.16861375  0.37342516  0.49729108  1
  Ba  Ba4  1  0.66630255  0.12449511  0.67040163  1
  Ba  Ba5  1  0.66740190  0.62479482  0.66924319  1
  Ba  Ba6  1  0.66276331  0.37538761  0.33327033  1
  Ba  Ba7  1  0.50111780  0.62349710  0.83629834  1
  Ba  Ba8  1  0.16655349  0.37504319  0.16576777  1
  Ba  Ba9  1  0.49702107  0.12522377  0.16804534  1
  Ba  Ba10  1  0.83153709  0.12456962  0.83542160  1
  Ba  Ba11  1  0.66800434  0.87491751  0.33420709  1
  Ba  Ba12  1  0.16652137  0.62546312  0.83103329  1
  Ba  Ba13  1  0.00033807  0.37555910  0.33358693  1
  Ba  Ba14  1  -0.00177030  0.62470783  0.33125990  1
  Ba  Ba15  1  -0.00366199  0.12568840  0.33045303  1
  Ba  Ba16  1  0.16847370  0.87538237  0.16562090  1
  Sr  Sr17  1  0.16067146  0.12425868  0.16633142  1
  Sr  Sr18  1  0.50139444  0.37521574  0.83410713  1
  Sr  Sr19  1  0.83855969  0.87545011  0.83132871  1
  Sr  Sr20  1  0.66351579  0.62296627  0.99696680  1
  Sr  Sr21  1  0.33047750  0.62342423  0.33485657  1
  La  La22  1  0.82956265  0.12686303  0.50137027  1
  La  La23  1  0.66191322  0.12569655  0.99613691  1
  La  La24  1  0.50987494  0.87360749  0.83489845  1
  La  La25  1  0.00024794  0.62541517  0.99879546  1
  La  La26  1  0.34090905  0.87535928  0.66931437  1
  La  La27  1  0.00385804  0.87614656  -0.00360125  1
  La  La28  1  0.83057220  0.37568479  0.49609569  1
  La  La29  1  0.50092658  0.62488720  0.50507288  1
  Pr  Pr30  1  0.49941162  0.37414382  0.16371630  1
  Pr  Pr31  1  0.16070099  0.12480116  0.83427268  1
  Pr  Pr32  1  0.83929941  0.87520982  0.49802642  1
  Pr  Pr33  1  0.49755128  0.62492559  0.16985760  1
  Pr  Pr34  1  0.83876589  0.87355687  0.16436162  1
  Pr  Pr35  1  0.17417041  0.87615715  0.49290262  1
  Pr  Pr36  1  0.50515083  0.87591899  0.16594381  1
  Pr  Pr37  1  0.00826584  0.87453474  0.33192241  1
  Pr  Pr38  1  0.66025814  0.12509791  0.33218412  1
  Pr  Pr39  1  0.32495701  0.12579161  0.32861485  1
  Pr  Pr40  1  0.32356182  0.12520797  0.99982518  1
  Pr  Pr41  1  0.66696971  0.37506387  0.67078209  1
  Pr  Pr42  1  -0.00119910  0.62763791  0.66178514  1
  Pr  Pr43  1  0.32860195  0.62463410  0.99848523  1
  Pr  Pr44  1  0.82716099  0.12535703  0.16884153  1
  Pr  Pr45  1  0.17189017  0.87726367  0.83050065  1
  Pr  Pr46  1  0.33458256  0.37534151  0.67074121  1
  Pr  Pr47  1  0.83076004  0.62789344  0.83638706  1
  Pr  Pr48  1  0.82767758  0.62510838  0.16891401  1
  Pr  Pr49  1  0.33857496  0.87376373  0.33389503  1
  Pr  Pr50  1  0.51068571  0.87467461  0.50076425  1
  Pr  Pr51  1  0.83841132  0.37637890  0.16596916  1
  Pr  Pr52  1  0.32974876  0.12641037  0.66318345  1
  Pr  Pr53  1  0.33215120  0.37466742  0.33311871  1
  Pr  Pr54  1  0.33897615  0.87010713  0.00319953  1
  Pr  Pr55  1  0.00736525  0.87573681  0.66989228  1
  Pr  Pr56  1  0.67410974  0.87168546  0.00292637  1
  Pr  Pr57  1  0.16646725  0.37290337  0.82906404  1
  Pr  Pr58  1  0.83398202  0.37400207  0.83320530  1
  Pr  Pr59  1  0.50047874  0.37586982  0.50050831  1
  Pr  Pr60  1  0.67122789  0.37771938  0.00444394  1
  Pr  Pr61  1  0.49989931  0.12480446  0.50130817  1
  Pr  Pr62  1  0.00337283  0.37503886  0.00231879  1
  Pr  Pr63  1  0.00109716  0.37505956  0.66676168  1
  Pr  Pr64  1  0.16111195  0.62061573  0.50147364  1
  Pr  Pr65  1  0.83181736  0.62419809  0.50041918  1
  Pr  Pr66  1  0.66295211  0.62469271  0.33300356  1
  Pr  Pr67  1  0.49692913  0.12328174  0.84060737  1
  Pr  Pr68  1  0.15626389  0.12624656  0.49869976  1
  Pr  Pr69  1  0.33363155  0.62294296  0.66125686  1
  Pr  Pr70  1  0.33572946  0.38013075  0.00155121  1
  Pr  Pr71  1  -0.00548861  0.12382098  0.66306166  1
  Mn  Mn72  1  -0.00292650  -0.00045074  0.16521515  1
  Mn  Mn73  1  0.00020330  -0.00135162  0.50013397  1
  Mn  Mn74  1  0.00164882  -0.00140815  0.83080866  1
  Mn  Mn75  1  -0.00182418  0.50027118  0.16396884  1
  Mn  Mn76  1  -0.00100535  0.50090695  0.50080545  1
  Mn  Mn77  1  -0.00098267  0.49994797  0.83232424  1
  Mn  Mn78  1  0.33376196  -0.00048499  0.16654313  1
  Mn  Mn79  1  0.33490969  0.00067409  0.50004637  1
  Mn  Mn80  1  0.33421193  0.00078475  0.83355689  1
  Mn  Mn81  1  0.33472364  0.50046835  0.16821217  1
  Mn  Mn82  1  0.33438919  0.49966288  0.49923742  1
  Mn  Mn83  1  0.33356992  0.49925821  0.83339778  1
  Mn  Mn84  1  0.66653994  -0.00039842  0.16652596  1
  Mn  Mn85  1  0.66801031  0.00042427  0.50029682  1
  Mn  Mn86  1  0.66731962  -0.00048190  0.83573431  1
  Mn  Mn87  1  0.66491036  0.50137861  0.16671929  1
  Mn  Mn88  1  0.66591253  0.50003178  0.50160168  1
  Mn  Mn89  1  0.66810758  0.49820214  0.83617284  1
  Mn  Mn90  1  -0.00216709  0.24986804  0.16452088  1
  Mn  Mn91  1  -0.00175848  0.24943235  0.50000895  1
  Mn  Mn92  1  -0.00052273  0.25326978  0.83207679  1
  Mn  Mn93  1  -0.00203547  0.75075229  0.16443930  1
  Mn  Mn94  1  0.00156607  0.75169473  0.50002951  1
  Mn  Mn95  1  0.00124929  0.74910738  0.83060125  1
  Mn  Mn96  1  0.33207031  0.24950421  0.16595846  1
  Mn  Mn97  1  0.33488240  0.24749241  0.49879221  1
  Mn  Mn98  1  0.33308768  0.24872099  0.83282880  1
  Mn  Mn99  1  0.33667754  0.74990734  0.16881379  1
  Mn  Mn100  1  0.33455161  0.75080205  0.50116040  1
  Mn  Mn101  1  0.33499021  0.75103497  0.83381059  1
  Mn  Mn102  1  0.66581829  0.25117241  0.16649076  1
  Mn  Mn103  1  0.66478750  0.24995326  0.50160645  1
  Mn  Mn104  1  0.66427848  0.25257901  0.83577554  1
  Mn  Mn105  1  0.66594825  0.74797286  0.16686981  1
  Mn  Mn106  1  0.66870650  0.74995427  0.50065235  1
  Mn  Mn107  1  0.67001748  0.74883519  0.83708718  1
  Mn  Mn108  1  0.16734683  0.25012497  -0.00354594  1
  Mn  Mn109  1  0.16664000  0.24936351  0.33123490  1
  Mn  Mn110  1  0.16665761  0.24917917  0.66557906  1
  Mn  Mn111  1  0.16757387  0.75009309  -0.00234675  1
  Mn  Mn112  1  0.16933766  0.75063252  0.33411622  1
  Mn  Mn113  1  0.16983054  0.75143866  0.66305847  1
  Mn  Mn114  1  0.49760483  0.25115725  -0.00050000  1
  Mn  Mn115  1  0.49648647  0.25099171  0.33531387  1
  Mn  Mn116  1  0.49838393  0.24917210  0.66875852  1
  Mn  Mn117  1  0.50102596  0.74947059  0.00272119  1
  Mn  Mn118  1  0.49837910  0.74826406  0.33552760  1
  Mn  Mn119  1  0.49977439  0.75079052  0.66901328  1
  Mn  Mn120  1  0.83183634  0.25183119  0.00104264  1
  Mn  Mn121  1  0.82898576  0.24961509  0.33339356  1
  Mn  Mn122  1  0.83424858  0.25211609  0.66574838  1
  Mn  Mn123  1  0.83410487  0.74923157  -0.00024922  1
  Mn  Mn124  1  0.83313245  0.75064691  0.33276917  1
  Mn  Mn125  1  0.83743125  0.74931482  0.66704036  1
  Mn  Mn126  1  0.16777442  -0.00031769  -0.00230173  1
  Mn  Mn127  1  0.16788665  -0.00034141  0.33174789  1
  Mn  Mn128  1  0.16915844  0.00051335  0.66355857  1
  Mn  Mn129  1  0.16672763  0.50073430  -0.00323433  1
  Mn  Mn130  1  0.16784788  0.50079108  0.33367195  1
  Mn  Mn131  1  0.16692378  0.49924757  0.66616541  1
  Mn  Mn132  1  0.49871790  -0.00047826  0.00065781  1
  Mn  Mn133  1  0.49759648  -0.00064160  0.33576003  1
  Mn  Mn134  1  0.49916877  0.00150341  0.66955520  1
  Mn  Mn135  1  0.49993236  0.49846246  0.00169297  1
  Mn  Mn136  1  0.49685519  0.50058794  0.33473211  1
  Mn  Mn137  1  0.49947663  0.49799770  0.66787105  1
  Mn  Mn138  1  0.83231412  -0.00219897  0.00089698  1
  Mn  Mn139  1  0.83274655  -0.00094917  0.33273017  1
  Mn  Mn140  1  0.83582387  -0.00053968  0.66552310  1
  Mn  Mn141  1  0.83416844  0.50171037  -0.00084499  1
  Mn  Mn142  1  0.82988668  0.50109240  0.33321864  1
  Mn  Mn143  1  0.83567257  0.49887913  0.66703773  1
  O  O144  1  0.17319504  0.12409902  0.01559363  1
  O  O145  1  0.17361927  0.12151681  0.35355686  1
  O  O146  1  0.17013493  0.12540913  0.69238706  1
  O  O147  1  0.17189014  0.62681846  0.00941920  1
  O  O148  1  0.17001460  0.63051720  0.35530891  1
  O  O149  1  0.16691563  0.62579668  0.67735239  1
  O  O150  1  0.50740237  0.12510671  0.01209987  1
  O  O151  1  0.49911317  0.12651533  0.35678192  1
  O  O152  1  0.49169170  0.12585505  0.69612303  1
  O  O153  1  0.49932220  0.62356259  0.02496959  1
  O  O154  1  0.49977398  0.62441581  0.36091553  1
  O  O155  1  0.49039918  0.62328037  0.67786163  1
  O  O156  1  0.82823613  0.12518124  0.02296810  1
  O  O157  1  0.82773701  0.12440548  0.35599536  1
  O  O158  1  0.84321415  0.12686781  0.67807851  1
  O  O159  1  0.84362063  0.62526576  0.02580381  1
  O  O160  1  0.82843864  0.62733325  0.35557473  1
  O  O161  1  0.84428960  0.62057252  0.69267076  1
  O  O162  1  0.17558410  0.37229416  0.32524730  1
  O  O163  1  0.16833686  0.37343520  0.65181058  1
  O  O164  1  0.16579122  0.37501711  0.97478570  1
  O  O165  1  0.16624447  0.87657360  0.32511885  1
  O  O166  1  0.16794422  0.87630451  0.63571767  1
  O  O167  1  0.16666388  0.87549035  0.97604790  1
  O  O168  1  0.49265998  0.37672416  0.30772153  1
  O  O169  1  0.49521745  0.37212133  0.64330581  1
  O  O170  1  0.48735582  0.37321262  0.98240880  1
  O  O171  1  0.49351916  0.87165235  0.31010592  1
  O  O172  1  0.49417046  0.87852144  0.64480420  1
  O  O173  1  0.48886374  0.87736618  0.97820498  1
  O  O174  1  0.82949190  0.37511849  0.31300591  1
  O  O175  1  0.83491734  0.37660133  0.63976732  1
  O  O176  1  0.82656710  0.37922792  0.97731236  1
  O  O177  1  0.83549867  0.87336923  0.30901900  1
  O  O178  1  0.84486919  0.87416505  0.64383965  1
  O  O179  1  0.82304623  0.87111972  0.98115431  1
  O  O180  1  -0.00759269  0.37591892  0.17498641  1
  O  O181  1  -0.00594630  0.37676042  0.52158520  1
  O  O182  1  0.00125396  0.37852456  0.85802807  1
  O  O183  1  -0.00995527  0.87469947  0.18787815  1
  O  O184  1  -0.00026683  0.87513862  0.52740884  1
  O  O185  1  0.00489842  0.87468425  0.84984699  1
  O  O186  1  0.34098231  0.37451191  0.18815829  1
  O  O187  1  0.33704788  0.37118451  0.52736061  1
  O  O188  1  0.32594530  0.37036456  0.85747253  1
  O  O189  1  0.34258192  0.87474826  0.18878308  1
  O  O190  1  0.32315047  0.87821482  0.52842832  1
  O  O191  1  0.32665702  0.87972722  0.85906948  1
  O  O192  1  0.66707475  0.37792925  0.17909644  1
  O  O193  1  0.66415985  0.37499219  0.52484115  1
  O  O194  1  0.67591696  0.37558660  0.85770557  1
  O  O195  1  0.66665514  0.87310347  0.17967541  1
  O  O196  1  0.66268500  0.87649274  0.51095945  1
  O  O197  1  0.66831631  0.87444827  0.85546938  1
  O  O198  1  -0.00922413  0.12361498  0.15460635  1
  O  O199  1  -0.00084090  0.12135919  0.48818552  1
  O  O200  1  0.00713861  0.12571057  0.80855220  1
  O  O201  1  -0.01082097  0.62579767  0.14390781  1
  O  O202  1  0.00230940  0.62828225  0.48838381  1
  O  O203  1  -0.00645764  0.62161703  0.80524578  1
  O  O204  1  0.33144475  0.12423039  0.14428884  1
  O  O205  1  0.34854206  0.12225732  0.47138468  1
  O  O206  1  0.33840094  0.12436868  0.80548544  1
  O  O207  1  0.34313587  0.62611188  0.14241923  1
  O  O208  1  0.34712006  0.62768042  0.48383036  1
  O  O209  1  0.33457795  0.62573697  0.80671996  1
  O  O210  1  0.67070478  0.12473736  0.14044528  1
  O  O211  1  0.66816847  0.12482096  0.47869531  1
  O  O212  1  0.65823796  0.12759964  0.82862153  1
  O  O213  1  0.66205803  0.62448837  0.14443834  1
  O  O214  1  0.66800194  0.62458615  0.48025475  1
  O  O215  1  0.67178591  0.62129265  0.82515313  1
  O  O216  1  0.07594359  0.00359697  0.25289736  1
  O  O217  1  0.07915096  0.02162955  0.58947405  1
  O  O218  1  0.08692412  0.01178399  0.90966543  1
  O  O219  1  0.08009378  0.50758537  0.24637691  1
  O  O220  1  0.08195565  0.51742454  0.58515125  1
  O  O221  1  0.07634946  0.51529908  0.91717963  1
  O  O222  1  0.40658709  0.01306084  0.26428579  1
  O  O223  1  0.40876598  0.02053469  0.59180916  1
  O  O224  1  0.40948265  0.02328132  0.92322121  1
  O  O225  1  0.41994036  0.52042037  0.24827307  1
  O  O226  1  0.41593835  0.51418703  0.58340005  1
  O  O227  1  0.41089995  0.51423894  0.92529080  1
  O  O228  1  0.74129629  0.02441936  0.25425363  1
  O  O229  1  0.75272276  0.01166131  0.58237340  1
  O  O230  1  0.73806165  0.01217273  0.93215187  1
  O  O231  1  0.74400180  0.52478564  0.24999434  1
  O  O232  1  0.75935475  0.51524393  0.57972266  1
  O  O233  1  0.75690817  0.51891461  0.91641743  1
  O  O234  1  0.24668827  0.23183801  0.24514052  1
  O  O235  1  0.24874342  0.22283484  0.57615522  1
  O  O236  1  0.24706044  0.22523507  0.90855357  1
  O  O237  1  0.25546598  0.74363948  0.25288923  1
  O  O238  1  0.24682609  0.72542930  0.57591254  1
  O  O239  1  0.25232974  0.73909683  0.91419959  1
  O  O240  1  0.58089138  0.23621778  0.25442851  1
  O  O241  1  0.57519436  0.23324888  0.58079662  1
  O  O242  1  0.57292979  0.23911153  0.91212279  1
  O  O243  1  0.57934415  0.72758606  0.24828442  1
  O  O244  1  0.57540488  0.73951129  0.57724811  1
  O  O245  1  0.58279795  0.74710627  0.92282407  1
  O  O246  1  0.90185643  0.24006623  0.24092639  1
  O  O247  1  0.91888306  0.23455554  0.58609148  1
  O  O248  1  0.91209569  0.24857183  0.91341290  1
  O  O249  1  0.90330251  0.73571902  0.23782317  1
  O  O250  1  0.91432703  0.72808088  0.57811491  1
  O  O251  1  0.91104864  0.73096995  0.91263279  1
  O  O252  1  0.07769221  0.49101570  0.07482336  1
  O  O253  1  0.08459445  0.49718797  0.42086185  1
  O  O254  1  0.08161783  0.47716637  0.75053009  1
  O  O255  1  0.08056825  0.98615896  0.07869848  1
  O  O256  1  0.09120699  0.98467597  0.42653013  1
  O  O257  1  0.09305494  0.97765987  0.75011652  1
  O  O258  1  0.41999968  0.47885808  0.08810529  1
  O  O259  1  0.41485121  0.47393799  0.41664707  1
  O  O260  1  0.41301214  0.47909500  0.74795436  1
  O  O261  1  0.42386732  0.97880367  0.08972596  1
  O  O262  1  0.42174506  0.97199597  0.42775796  1
  O  O263  1  0.42134749  0.97718648  0.75998750  1
  O  O264  1  0.75280237  0.48422557  0.08312705  1
  O  O265  1  0.74822689  0.48812369  0.41999001  1
  O  O266  1  0.75252439  0.47662371  0.74704400  1
  O  O267  1  0.75679064  0.98047121  0.09201457  1
  O  O268  1  0.76292376  0.98559480  0.42440201  1
  O  O269  1  0.75972382  0.98970516  0.75430177  1
  O  O270  1  0.25922587  0.26498724  0.06901094  1
  O  O271  1  0.26144683  0.25751024  0.40783886  1
  O  O272  1  0.25158745  0.26890132  0.74694780  1
  O  O273  1  0.26218720  0.76215760  0.07657005  1
  O  O274  1  0.25633488  0.77148150  0.41727963  1
  O  O275  1  0.25487367  0.77349583  0.74128465  1
  O  O276  1  0.58650645  0.27185179  0.07751371  1
  O  O277  1  0.57613299  0.26224208  0.42274407  1
  O  O278  1  0.58662178  0.27208863  0.74528841  1
  O  O279  1  0.58567820  0.77294928  0.08271145  1
  O  O280  1  0.58131066  0.75982429  0.41631274  1
  O  O281  1  0.58483077  0.76239451  0.75476627  1
  O  O282  1  0.91641881  0.27225410  0.07758388  1
  O  O283  1  0.90905951  0.26162942  0.42144640  1
  O  O284  1  0.91824012  0.27521124  0.74739046  1
  O  O285  1  0.92014817  0.77500615  0.07430838  1
  O  O286  1  0.92424435  0.77409924  0.41365920  1
  O  O287  1  0.93065479  0.76580660  0.73849191  1
  O  O288  1  0.25869572  0.48837291  0.07734742  1
  O  O289  1  0.25581982  0.49213295  0.41684730  1
  O  O290  1  0.25070386  0.47879772  0.74895137  1
  O  O291  1  0.26154371  0.98509324  0.06931970  1
  O  O292  1  0.26002030  0.98148433  0.41184287  1
  O  O293  1  0.25658771  0.98011434  0.74221918  1
  O  O294  1  0.58103625  0.47733349  0.08611068  1
  O  O295  1  0.57415906  0.48711227  0.42276292  1
  O  O296  1  0.58521912  0.47919676  0.74716889  1
  O  O297  1  0.58884068  0.97782117  0.07671722  1
  O  O298  1  0.58159880  0.99171162  0.41731238  1
  O  O299  1  0.58227870  0.98622562  0.75231918  1
  O  O300  1  0.91674338  0.47704902  0.07673413  1
  O  O301  1  0.90957836  0.49072227  0.42593578  1
  O  O302  1  0.91673684  0.47073781  0.75025836  1
  O  O303  1  0.91787070  0.97558183  0.07814160  1
  O  O304  1  0.92555771  0.97455246  0.41240703  1
  O  O305  1  0.93040275  0.98680748  0.73781934  1
  O  O306  1  0.08153603  0.26323354  0.07332392  1
  O  O307  1  0.08667084  0.25101315  0.41984838  1
  O  O308  1  0.08217910  0.27291377  0.74889663  1
  O  O309  1  0.08060306  0.76123417  0.07878922  1
  O  O310  1  0.08834614  0.77151357  0.42366528  1
  O  O311  1  0.09344965  0.77382131  0.74881702  1
  O  O312  1  0.42037280  0.26883405  0.08774199  1
  O  O313  1  0.41920103  0.27589640  0.42184333  1
  O  O314  1  0.41404962  0.27153328  0.74991591  1
  O  O315  1  0.42592694  0.77072956  0.09200710  1
  O  O316  1  0.41926390  0.77704288  0.42490743  1
  O  O317  1  0.42078682  0.77470032  0.75847141  1
  O  O318  1  0.75618054  0.27211292  0.08907524  1
  O  O319  1  0.75034034  0.26332739  0.42083435  1
  O  O320  1  0.75295470  0.27187594  0.75085276  1
  O  O321  1  0.75679269  0.76354372  0.08947841  1
  O  O322  1  0.76173491  0.76331510  0.42556832  1
  O  O323  1  0.76410221  0.75599928  0.75726104  1
  O  O324  1  0.24708340  0.01618615  0.24552479  1
  O  O325  1  0.24510320  0.02816799  0.57404420  1
  O  O326  1  0.24634396  0.02348966  0.90554970  1
  O  O327  1  0.25600036  0.50882767  0.25157151  1
  O  O328  1  0.25219084  0.52092444  0.58135619  1
  O  O329  1  0.25388793  0.51212637  0.91728667  1
  O  O330  1  0.58127463  0.01201364  0.24975208  1
  O  O331  1  0.57280957  0.01522679  0.57771807  1
  O  O332  1  0.57276255  0.01035320  0.91271721  1
  O  O333  1  0.58047463  0.52285688  0.25346714  1
  O  O334  1  0.58015286  0.51034747  0.58214212  1
  O  O335  1  0.58617252  0.50172730  0.92559628  1
  O  O336  1  0.90151705  0.01226801  0.23925362  1
  O  O337  1  0.91267888  0.01727455  0.57542568  1
  O  O338  1  0.91413500  0.00191793  0.91439483  1
  O  O339  1  0.90501691  0.51201179  0.23929783  1
  O  O340  1  0.92053482  0.52114976  0.58854995  1
  O  O341  1  0.91561213  0.52158492  0.91395434  1
  O  O342  1  0.08128182  0.24085295  0.24628687  1
  O  O343  1  0.08182059  0.22877302  0.58714989  1
  O  O344  1  0.08892373  0.23867989  0.90720730  1
  O  O345  1  0.07724752  0.74755872  0.25367683  1
  O  O346  1  0.08113160  0.73242831  0.58632816  1
  O  O347  1  0.07363453  0.73670725  0.91939263  1
  O  O348  1  0.40604957  0.23567169  0.26176766  1
  O  O349  1  0.41351066  0.22537067  0.58624562  1
  O  O350  1  0.41004755  0.22608351  0.91964941  1
  O  O351  1  0.41784420  0.72841560  0.25329262  1
  O  O352  1  0.40762037  0.73820627  0.59165547  1
  O  O353  1  0.41064931  0.73501615  0.93064747  1
  O  O354  1  0.74360929  0.22543484  0.25416415  1
  O  O355  1  0.75395366  0.23898205  0.58170008  1
  O  O356  1  0.73927512  0.23896343  0.92992121  1
  O  O357  1  0.74201499  0.72592360  0.25357416  1
  O  O358  1  0.75588712  0.73553586  0.58421770  1
  O  O359  1  0.74991263  0.72977731  0.92358157  1
