# generated using pymatgen
data_Ba17Sr5La8Pr42Mn72O216
_symmetry_space_group_name_H-M   'P 1'
_cell_length_a   16.69156349
_cell_length_b   15.71064625
_cell_length_c   16.82302848
_cell_angle_alpha   89.99188034
_cell_angle_beta   89.99216195
_cell_angle_gamma   89.99520934
_symmetry_Int_Tables_number   1
_chemical_formula_structural   Ba17Sr5La8Pr42Mn72O216
_chemical_formula_sum   'Ba17 Sr5 La8 Pr42 Mn72 O216'
_cell_volume   4411.59096821
_cell_formula_units_Z   1
loop_
 _symmetry_equiv_pos_site_id
 _symmetry_equiv_pos_as_xyz
  1  'x, y, z'
loop_
 _atom_site_type_symbol
 _atom_site_label
 _atom_site_symmetry_multiplicity
 _atom_site_fract_x
 _atom_site_fract_y
 _atom_site_fract_z
 _atom_site_occupancy
  Ba  Ba0  1  0.49924376  0.12431877  0.16494491  1
  Ba  Ba1  1  0.66872414  0.87401940  0.66803517  1
  Ba  Ba2  1  0.50242815  0.37459801  0.83200606  1
  Ba  Ba3  1  0.16561276  0.12533641  0.16530922  1
  Ba  Ba4  1  -0.00200697  0.12719749  0.67043023  1
  Ba  Ba5  1  0.16175561  0.62481643  0.83279572  1
  Ba  Ba6  1  0.16704171  0.87744308  0.50124635  1
  Ba  Ba7  1  0.50185854  0.37565971  0.49797714  1
  Ba  Ba8  1  0.83368605  0.87618911  0.49958909  1
  Ba  Ba9  1  0.49969142  0.87518786  0.83133586  1
  Ba  Ba10  1  0.50123938  0.87477531  0.49849898  1
  Ba  Ba11  1  0.49625424  0.12392728  0.83538119  1
  Ba  Ba12  1  0.33256049  0.62517871  0.33317856  1
  Ba  Ba13  1  -0.00263777  0.62476646  0.33547663  1
  Ba  Ba14  1  0.00259176  0.87380719  0.33691949  1
  Ba  Ba15  1  0.50320544  0.37567265  0.16527813  1
  Ba  Ba16  1  0.66906886  0.37316973  0.33454578  1
  Sr  Sr17  1  0.33041639  0.12438511  0.99773405  1
  Sr  Sr18  1  0.49683182  0.62495036  0.49707836  1
  Sr  Sr19  1  0.33590955  0.87479595  -0.00286953  1
  Sr  Sr20  1  -0.00638800  0.62201628  0.66379046  1
  Sr  Sr21  1  0.66785563  0.87721406  0.33927003  1
  La  La22  1  0.50019912  0.12534713  0.49833242  1
  La  La23  1  0.01060726  0.37703149  0.00214925  1
  La  La24  1  0.67042037  0.37159061  0.00629155  1
  La  La25  1  0.67248711  0.37563755  0.66910167  1
  La  La26  1  0.33309260  0.12490024  0.66689589  1
  La  La27  1  0.66152079  0.62740030  0.33616870  1
  La  La28  1  0.83973955  0.37410424  0.49857037  1
  La  La29  1  0.65766323  0.62512553  1.00027127  1
  Pr  Pr30  1  0.33837887  0.87238851  0.66941016  1
  Pr  Pr31  1  0.33272146  0.12275061  0.32665341  1
  Pr  Pr32  1  0.66054342  0.12358142  0.66834492  1
  Pr  Pr33  1  0.66871092  0.87851795  0.00235881  1
  Pr  Pr34  1  0.17320309  0.37588762  0.50040415  1
  Pr  Pr35  1  0.17648729  0.37725306  0.16630446  1
  Pr  Pr36  1  0.82496985  0.62496822  0.83301294  1
  Pr  Pr37  1  -0.00582886  0.12150886  0.33459160  1
  Pr  Pr38  1  0.33545488  0.87871121  0.33412448  1
  Pr  Pr39  1  0.16034027  0.12405183  0.84322454  1
  Pr  Pr40  1  0.17510943  0.87226879  0.16871644  1
  Pr  Pr41  1  0.00488394  0.87307702  0.66903250  1
  Pr  Pr42  1  0.16138651  0.62564070  0.17099174  1
  Pr  Pr43  1  0.50484737  0.87201057  0.16381291  1
  Pr  Pr44  1  0.84195854  0.37599223  0.83154544  1
  Pr  Pr45  1  0.66302556  0.12241883  0.33568659  1
  Pr  Pr46  1  0.34152281  0.37673886  0.66818846  1
  Pr  Pr47  1  -0.00975385  0.12548879  0.99295166  1
  Pr  Pr48  1  0.33173941  0.62358649  0.99692838  1
  Pr  Pr49  1  0.84246011  0.37665886  0.16337633  1
  Pr  Pr50  1  0.15960960  0.62838036  0.50679815  1
  Pr  Pr51  1  0.82730853  0.62838777  0.50042237  1
  Pr  Pr52  1  0.17425747  0.87503641  0.82919629  1
  Pr  Pr53  1  0.82971564  0.12503039  0.16751481  1
  Pr  Pr54  1  0.82505107  0.62517426  0.17100531  1
  Pr  Pr55  1  0.82157001  0.12492839  0.83714047  1
  Pr  Pr56  1  -0.01322336  0.62510933  0.99594951  1
  Pr  Pr57  1  0.65498756  0.12498034  0.99853514  1
  Pr  Pr58  1  0.65722037  0.62591970  0.66325069  1
  Pr  Pr59  1  0.00951602  0.37350764  0.33362955  1
  Pr  Pr60  1  0.17667993  0.37522302  0.83116723  1
  Pr  Pr61  1  0.49394775  0.62576396  0.17140256  1
  Pr  Pr62  1  0.16219711  0.12438841  0.50162208  1
  Pr  Pr63  1  0.33823643  0.37349162  0.00001616  1
  Pr  Pr64  1  0.84325102  0.87406068  0.16673511  1
  Pr  Pr65  1  0.83895560  0.87395098  0.82714516  1
  Pr  Pr66  1  0.01078641  0.87334929  0.00408130  1
  Pr  Pr67  1  0.01271935  0.37527269  0.67024587  1
  Pr  Pr68  1  0.82736197  0.12271515  0.50101501  1
  Pr  Pr69  1  0.49448013  0.62807460  0.82992880  1
  Pr  Pr70  1  0.34064556  0.37096702  0.33224910  1
  Pr  Pr71  1  0.33055249  0.62685162  0.65697471  1
  Mn  Mn72  1  0.00107994  0.00046471  0.16470360  1
  Mn  Mn73  1  -0.00056749  0.00277553  0.50196953  1
  Mn  Mn74  1  -0.00121755  -0.00163456  0.83715903  1
  Mn  Mn75  1  0.00092562  0.50022675  0.16547720  1
  Mn  Mn76  1  -0.00089184  0.49721882  0.50160416  1
  Mn  Mn77  1  -0.00151245  0.50120766  0.83358919  1
  Mn  Mn78  1  0.33377330  -0.00133983  0.16450728  1
  Mn  Mn79  1  0.33232443  0.00325382  0.49818161  1
  Mn  Mn80  1  0.32950218  -0.00043596  0.83256662  1
  Mn  Mn81  1  0.33288200  0.50099351  0.16348664  1
  Mn  Mn82  1  0.33086472  0.49938165  0.49777094  1
  Mn  Mn83  1  0.33344863  0.50250474  0.83101565  1
  Mn  Mn84  1  0.66913340  -0.00186668  0.16882041  1
  Mn  Mn85  1  0.66687348  0.00149711  0.50025698  1
  Mn  Mn86  1  0.66757946  -0.00079941  0.83581252  1
  Mn  Mn87  1  0.66945789  0.50083925  0.16615434  1
  Mn  Mn88  1  0.66798463  0.50029078  0.50209368  1
  Mn  Mn89  1  0.66797181  0.50048579  0.83423360  1
  Mn  Mn90  1  0.00108946  0.24913098  0.16595219  1
  Mn  Mn91  1  0.00030330  0.25158321  0.50047623  1
  Mn  Mn92  1  -0.00048504  0.25226684  0.83500283  1
  Mn  Mn93  1  0.00098639  0.75006145  0.16481048  1
  Mn  Mn94  1  -0.00153401  0.74774163  0.50304396  1
  Mn  Mn95  1  -0.00231198  0.74832218  0.83539690  1
  Mn  Mn96  1  0.33357674  0.24933990  0.16499603  1
  Mn  Mn97  1  0.33161069  0.24803247  0.49819629  1
  Mn  Mn98  1  0.33053695  0.25016543  0.83237243  1
  Mn  Mn99  1  0.33323145  0.75113759  0.16384014  1
  Mn  Mn100  1  0.33158961  0.75162615  0.49782717  1
  Mn  Mn101  1  0.33127837  0.74732742  0.83178014  1
  Mn  Mn102  1  0.67088393  0.24799763  0.16789989  1
  Mn  Mn103  1  0.66911118  0.24904747  0.50269896  1
  Mn  Mn104  1  0.66881327  0.25272540  0.83586993  1
  Mn  Mn105  1  0.66845643  0.75230055  0.16741710  1
  Mn  Mn106  1  0.66612723  0.74977801  0.49912016  1
  Mn  Mn107  1  0.66723134  0.74753626  0.83482469  1
  Mn  Mn108  1  0.16547312  0.25148238  0.00054678  1
  Mn  Mn109  1  0.16730608  0.25082079  0.33498499  1
  Mn  Mn110  1  0.16955615  0.24894647  0.66838825  1
  Mn  Mn111  1  0.16753645  0.74887360  0.00137611  1
  Mn  Mn112  1  0.16752937  0.74853334  0.33483137  1
  Mn  Mn113  1  0.16462656  0.75054884  0.66784039  1
  Mn  Mn114  1  0.49864234  0.25052382  -0.00120016  1
  Mn  Mn115  1  0.50029735  0.24881203  0.33295451  1
  Mn  Mn116  1  0.50085027  0.24883627  0.66490783  1
  Mn  Mn117  1  0.49970763  0.74971052  0.00018640  1
  Mn  Mn118  1  0.50034645  0.75062609  0.33139467  1
  Mn  Mn119  1  0.49847170  0.74856731  0.66473806  1
  Mn  Mn120  1  0.83361645  0.25026789  0.00008005  1
  Mn  Mn121  1  0.83621754  0.25067146  0.33196149  1
  Mn  Mn122  1  0.83328867  0.25055745  0.66737802  1
  Mn  Mn123  1  0.83105479  0.75159768  -0.00050800  1
  Mn  Mn124  1  0.83140362  0.74878165  0.33350063  1
  Mn  Mn125  1  0.83502310  0.74816525  0.66825870  1
  Mn  Mn126  1  0.16568728  -0.00269687  0.00105943  1
  Mn  Mn127  1  0.16700232  0.00218639  0.33374339  1
  Mn  Mn128  1  0.16705718  0.00210912  0.66913092  1
  Mn  Mn129  1  0.16698747  0.50171853  0.00158742  1
  Mn  Mn130  1  0.16732353  0.49884832  0.33421000  1
  Mn  Mn131  1  0.16726661  0.49879598  0.66621794  1
  Mn  Mn132  1  0.49770112  -0.00347159  0.00021968  1
  Mn  Mn133  1  0.50004485  0.00046891  0.33206159  1
  Mn  Mn134  1  0.49889615  0.00245306  0.66535652  1
  Mn  Mn135  1  0.50025883  0.50220831  -0.00189670  1
  Mn  Mn136  1  0.50063977  0.50110584  0.33251720  1
  Mn  Mn137  1  0.49974446  0.49958783  0.66466324  1
  Mn  Mn138  1  0.83238386  -0.00233685  -0.00060601  1
  Mn  Mn139  1  0.83315695  0.00176144  0.33239255  1
  Mn  Mn140  1  0.83513618  0.00120203  0.66906263  1
  Mn  Mn141  1  0.83182915  0.50067109  -0.00014041  1
  Mn  Mn142  1  0.83387108  0.49823649  0.33304065  1
  Mn  Mn143  1  0.83350153  0.49904137  0.66610111  1
  O  O144  1  0.16534870  0.12535379  0.00617614  1
  O  O145  1  0.17851804  0.13043585  0.35713485  1
  O  O146  1  0.17477376  0.12840790  0.69780193  1
  O  O147  1  0.17649161  0.62476920  0.02793124  1
  O  O148  1  0.16874740  0.61831387  0.35964451  1
  O  O149  1  0.17471383  0.62341645  0.67524529  1
  O  O150  1  0.50230331  0.12288492  0.00764255  1
  O  O151  1  0.49228410  0.12472272  0.34976183  1
  O  O152  1  0.50353709  0.12675304  0.67844569  1
  O  O153  1  0.50021279  0.62658071  0.02691473  1
  O  O154  1  0.50248651  0.62548340  0.34285130  1
  O  O155  1  0.49896962  0.62261876  0.68499031  1
  O  O156  1  0.84242038  0.12475944  0.02417478  1
  O  O157  1  0.84281476  0.12959058  0.35489683  1
  O  O158  1  0.83025794  0.12801324  0.69412288  1
  O  O159  1  0.83822427  0.62796821  0.02765568  1
  O  O160  1  0.82959996  0.61939731  0.35378838  1
  O  O161  1  0.83644009  0.62140445  0.69133682  1
  O  O162  1  0.15985835  0.37449323  0.30852903  1
  O  O163  1  0.16643414  0.37260496  0.64517669  1
  O  O164  1  0.16427142  0.37857923  0.97536162  1
  O  O165  1  0.17035853  0.87701331  0.31312678  1
  O  O166  1  0.15697237  0.87584351  0.65827533  1
  O  O167  1  0.15949696  0.87050436  0.97370721  1
  O  O168  1  0.49554830  0.37554636  0.32371671  1
  O  O169  1  0.49676463  0.37313625  0.65468491  1
  O  O170  1  0.49983957  0.37827436  0.98897193  1
  O  O171  1  0.50138093  0.87526094  0.31030026  1
  O  O172  1  0.49055295  0.87679299  0.65660322  1
  O  O173  1  0.50686954  0.87118516  0.98742010  1
  O  O174  1  0.83653177  0.37390821  0.30683837  1
  O  O175  1  0.82243845  0.37432233  0.64281891  1
  O  O176  1  0.82307671  0.37433022  0.97544016  1
  O  O177  1  0.83001317  0.87799089  0.31159982  1
  O  O178  1  0.83796920  0.87501267  0.65816751  1
  O  O179  1  0.82306870  0.87326618  0.96996064  1
  O  O180  1  -0.00691831  0.37666904  0.18964909  1
  O  O181  1  -0.00666293  0.37336142  0.52727270  1
  O  O182  1  -0.00641687  0.37828255  0.85817802  1
  O  O183  1  -0.00741094  0.87524086  0.17966306  1
  O  O184  1  -0.00086672  0.87601732  0.52367171  1
  O  O185  1  -0.01024145  0.87284796  0.86139225  1
  O  O186  1  0.32719856  0.37700864  0.18613698  1
  O  O187  1  0.32713405  0.37069356  0.52599943  1
  O  O188  1  0.32841064  0.37891353  0.85469213  1
  O  O189  1  0.32708698  0.87337480  0.18968510  1
  O  O190  1  0.33377992  0.88042383  0.52544180  1
  O  O191  1  0.32752177  0.87136995  0.84525971  1
  O  O192  1  0.67638241  0.37491550  0.17573280  1
  O  O193  1  0.67150209  0.37358199  0.52394603  1
  O  O194  1  0.67356302  0.37842796  0.86049342  1
  O  O195  1  0.65973659  0.87447553  0.19016931  1
  O  O196  1  0.66682200  0.87692336  0.50799221  1
  O  O197  1  0.67439368  0.87190981  0.85632579  1
  O  O198  1  -0.00410730  0.12346230  0.13616215  1
  O  O199  1  0.00575872  0.13196372  0.47945271  1
  O  O200  1  0.00873279  0.12590814  0.82768815  1
  O  O201  1  0.00884176  0.62442562  0.13889152  1
  O  O202  1  0.00571994  0.61819795  0.49341761  1
  O  O203  1  -0.00730221  0.62283324  0.81521558  1
  O  O204  1  0.33216800  0.12317566  0.14977496  1
  O  O205  1  0.32637207  0.12715609  0.47003046  1
  O  O206  1  0.31824704  0.12593373  0.81491809  1
  O  O207  1  0.33666226  0.62702043  0.14120703  1
  O  O208  1  0.32209906  0.62433602  0.49100728  1
  O  O209  1  0.33425127  0.62361997  0.80445284  1
  O  O210  1  0.67829191  0.12090961  0.14039947  1
  O  O211  1  0.67668879  0.12692877  0.48262775  1
  O  O212  1  0.67419777  0.12801836  0.81505621  1
  O  O213  1  0.67586903  0.62835734  0.14197106  1
  O  O214  1  0.67651598  0.62332377  0.48445213  1
  O  O215  1  0.67526132  0.62189621  0.80850294  1
  O  O216  1  0.07780897  0.01916412  0.25954016  1
  O  O217  1  0.08541972  0.01786901  0.58813939  1
  O  O218  1  0.06852539  0.01125259  0.93216209  1
  O  O219  1  0.08192173  0.51296821  0.25167069  1
  O  O220  1  0.07704364  0.50741179  0.59187090  1
  O  O221  1  0.07286580  0.51778192  0.93343351  1
  O  O222  1  0.41072968  0.00896371  0.25404397  1
  O  O223  1  0.41361974  0.02641126  0.57789551  1
  O  O224  1  0.40419713  0.00720593  0.91876932  1
  O  O225  1  0.41690818  0.51268199  0.24146285  1
  O  O226  1  0.40476509  0.51320437  0.58709132  1
  O  O227  1  0.41328400  0.52568622  0.91327600  1
  O  O228  1  0.75058691  0.02421623  0.25133028  1
  O  O229  1  0.74686678  0.02078679  0.58971108  1
  O  O230  1  0.74369213  0.02348778  0.92763323  1
  O  O231  1  0.74374862  0.52142492  0.25464533  1
  O  O232  1  0.74046254  0.51847533  0.59784980  1
  O  O233  1  0.74186952  0.52402211  0.92689187  1
  O  O234  1  0.25065032  0.24213466  0.25083765  1
  O  O235  1  0.24752427  0.22639670  0.57926653  1
  O  O236  1  0.23471304  0.24190903  0.90461866  1
  O  O237  1  0.24387794  0.73430019  0.23850870  1
  O  O238  1  0.24579352  0.73691800  0.58120764  1
  O  O239  1  0.25000875  0.73349993  0.91820951  1
  O  O240  1  0.58865356  0.23404922  0.25085436  1
  O  O241  1  0.58229142  0.22888917  0.57904949  1
  O  O242  1  0.58546123  0.24020304  0.91593306  1
  O  O243  1  0.58041853  0.72913258  0.24055999  1
  O  O244  1  0.58150829  0.73252743  0.58277278  1
  O  O245  1  0.57840246  0.72514816  0.91283965  1
  O  O246  1  0.91122143  0.22957326  0.23756107  1
  O  O247  1  0.90462546  0.23543940  0.56916187  1
  O  O248  1  0.90490107  0.23274216  0.90777197  1
  O  O249  1  0.90747092  0.73605627  0.23536866  1
  O  O250  1  0.90999078  0.72975347  0.58118043  1
  O  O251  1  0.90462890  0.72811150  0.90866712  1
  O  O252  1  0.09187679  0.47818439  0.09255461  1
  O  O253  1  0.08851381  0.47537941  0.42505311  1
  O  O254  1  0.09080411  0.47724610  0.75600463  1
  O  O255  1  0.09046864  0.97510124  0.09067915  1
  O  O256  1  0.08766711  1.00251369  0.42048028  1
  O  O257  1  0.08878571  0.98289243  0.76669978  1
  O  O258  1  0.41101521  0.48864441  0.07521173  1
  O  O259  1  0.41213585  0.48832438  0.41547053  1
  O  O260  1  0.41708228  0.48727566  0.74814382  1
  O  O261  1  0.42175565  0.97728034  0.08999620  1
  O  O262  1  0.41392846  0.98698565  0.41239717  1
  O  O263  1  0.40929983  0.99452986  0.74257201  1
  O  O264  1  0.76368144  0.48475406  0.09237461  1
  O  O265  1  0.76134918  0.48540323  0.43275286  1
  O  O266  1  0.76180752  0.48051809  0.76201537  1
  O  O267  1  0.75689549  0.97385792  0.08891591  1
  O  O268  1  0.74948007  0.99911915  0.41432378  1
  O  O269  1  0.76254641  0.98887458  0.76436392  1
  O  O270  1  0.25269104  0.27223310  0.07622108  1
  O  O271  1  0.25163897  0.27782809  0.41441131  1
  O  O272  1  0.25551302  0.27691668  0.74359200  1
  O  O273  1  0.25297772  0.77096306  0.08074543  1
  O  O274  1  0.25628109  0.76917440  0.40899037  1
  O  O275  1  0.25062412  0.76855278  0.74559169  1
  O  O276  1  0.59671147  0.25749385  0.07712486  1
  O  O277  1  0.58777415  0.24683102  0.41600542  1
  O  O278  1  0.59873121  0.26243128  0.74219894  1
  O  O279  1  0.59351122  0.76810997  0.07968701  1
  O  O280  1  0.58639458  0.75346359  0.40841048  1
  O  O281  1  0.58493872  0.75021560  0.74895635  1
  O  O282  1  0.92333272  0.27421703  0.06992344  1
  O  O283  1  0.92784390  0.26965837  0.40333208  1
  O  O284  1  0.92313365  0.27498814  0.74101379  1
  O  O285  1  0.92288697  0.76959714  0.07008690  1
  O  O286  1  0.91603179  0.75217949  0.41886902  1
  O  O287  1  0.92432105  0.76981777  0.74578236  1
  O  O288  1  0.25299932  0.47721483  0.07779362  1
  O  O289  1  0.25354410  0.47077413  0.41056090  1
  O  O290  1  0.25511330  0.47780108  0.74396857  1
  O  O291  1  0.25115940  0.97955815  0.07868052  1
  O  O292  1  0.25703061  0.98535266  0.40917228  1
  O  O293  1  0.25349154  0.97667007  0.74301750  1
  O  O294  1  0.59928298  0.49047336  0.07284503  1
  O  O295  1  0.59258817  0.49880458  0.41329413  1
  O  O296  1  0.59802068  0.48786016  0.74190362  1
  O  O297  1  0.58998831  0.98192292  0.08462841  1
  O  O298  1  0.58345120  1.00334844  0.41631347  1
  O  O299  1  0.59158542  0.99590291  0.75002431  1
  O  O300  1  0.92587398  0.48080572  0.07052780  1
  O  O301  1  0.92554196  0.47549583  0.40873037  1
  O  O302  1  0.92263663  0.47420044  0.73734419  1
  O  O303  1  0.92023093  0.97598622  0.07084890  1
  O  O304  1  0.91844502  0.99825260  0.41223396  1
  O  O305  1  0.92680542  0.97982884  0.74664250  1
  O  O306  1  0.09039521  0.27457124  0.09305257  1
  O  O307  1  0.09040159  0.27283237  0.42513473  1
  O  O308  1  0.09098238  0.27209006  0.75942536  1
  O  O309  1  0.09113201  0.77111969  0.09070034  1
  O  O310  1  0.08727249  0.75193645  0.42617722  1
  O  O311  1  0.08476524  0.77040709  0.76066684  1
  O  O312  1  0.41364365  0.26416006  0.08115264  1
  O  O313  1  0.41112722  0.26175774  0.41477011  1
  O  O314  1  0.41199213  0.25839345  0.74475846  1
  O  O315  1  0.42243670  0.76858545  0.08718410  1
  O  O316  1  0.41411606  0.76531241  0.41083014  1
  O  O317  1  0.41251423  0.75724272  0.74483536  1
  O  O318  1  0.76392110  0.26523425  0.09235497  1
  O  O319  1  0.76314092  0.26167666  0.42954297  1
  O  O320  1  0.76046817  0.27068295  0.76417239  1
  O  O321  1  0.75783709  0.77577560  0.09044469  1
  O  O322  1  0.74937020  0.75479216  0.41746388  1
  O  O323  1  0.76271785  0.75961588  0.76247503  1
  O  O324  1  0.25060780  0.01177185  0.24970619  1
  O  O325  1  0.24925517  0.02593058  0.57906052  1
  O  O326  1  0.23356073  0.00809306  0.90471790  1
  O  O327  1  0.24193080  0.51433789  0.23799171  1
  O  O328  1  0.23926335  0.51142481  0.57365079  1
  O  O329  1  0.25086469  0.51565476  0.91819255  1
  O  O330  1  0.58826221  0.01755855  0.25464451  1
  O  O331  1  0.58292308  0.02079572  0.58101459  1
  O  O332  1  0.58702037  0.00800321  0.92114626  1
  O  O333  1  0.58242486  0.52117120  0.23981115  1
  O  O334  1  0.58012203  0.51854680  0.58037109  1
  O  O335  1  0.57757050  0.52575959  0.90723117  1
  O  O336  1  0.91196157  0.01985162  0.24131210  1
  O  O337  1  0.90962527  0.01983669  0.57883056  1
  O  O338  1  0.90575779  0.02068765  0.90774368  1
  O  O339  1  0.90730305  0.51658109  0.23204633  1
  O  O340  1  0.90140488  0.51344800  0.57131481  1
  O  O341  1  0.90341683  0.51864752  0.90982432  1
  O  O342  1  0.07364004  0.23345603  0.26600109  1
  O  O343  1  0.08550213  0.23837971  0.58756216  1
  O  O344  1  0.07177806  0.23933047  0.93128517  1
  O  O345  1  0.08580747  0.73577754  0.24914339  1
  O  O346  1  0.07789930  0.73535408  0.59231966  1
  O  O347  1  0.06929939  0.73192330  0.93093003  1
  O  O348  1  0.41016009  0.24007598  0.25411054  1
  O  O349  1  0.41166146  0.22794660  0.57920720  1
  O  O350  1  0.40378378  0.24330436  0.91938060  1
  O  O351  1  0.41959816  0.74045973  0.24265898  1
  O  O352  1  0.41062789  0.73363685  0.58473346  1
  O  O353  1  0.41281771  0.72593267  0.91553659  1
  O  O354  1  0.74842885  0.22457689  0.25631772  1
  O  O355  1  0.74263410  0.22963456  0.59611514  1
  O  O356  1  0.74378608  0.22612517  0.92898053  1
  O  O357  1  0.74496556  0.72960192  0.25168093  1
  O  O358  1  0.74784862  0.72871267  0.59119489  1
  O  O359  1  0.74249777  0.72501094  0.92698889  1
