# generated using pymatgen
data_Ba17Sr5La8Pr42Mn72O216
_symmetry_space_group_name_H-M   'P 1'
_cell_length_a   16.67283159
_cell_length_b   15.69934692
_cell_length_c   16.82435429
_cell_angle_alpha   90.00314944
_cell_angle_beta   90.00453672
_cell_angle_gamma   89.95536927
_symmetry_Int_Tables_number   1
_chemical_formula_structural   Ba17Sr5La8Pr42Mn72O216
_chemical_formula_sum   'Ba17 Sr5 La8 Pr42 Mn72 O216'
_cell_volume   4403.81657219
_cell_formula_units_Z   1
loop_
 _symmetry_equiv_pos_site_id
 _symmetry_equiv_pos_as_xyz
  1  'x, y, z'
loop_
 _atom_site_type_symbol
 _atom_site_label
 _atom_site_symmetry_multiplicity
 _atom_site_fract_x
 _atom_site_fract_y
 _atom_site_fract_z
 _atom_site_occupancy
  Ba  Ba0  1  0.33524593  0.87493245  0.66856651  1
  Ba  Ba1  1  0.49973843  0.62376784  0.16582847  1
  Ba  Ba2  1  0.16296305  0.37674787  0.50125835  1
  Ba  Ba3  1  0.33346421  0.87633666  0.33456112  1
  Ba  Ba4  1  0.66551109  0.62413754  0.32975744  1
  Ba  Ba5  1  0.16825016  0.12425641  0.83623111  1
  Ba  Ba6  1  0.49910435  0.37154804  0.49899649  1
  Ba  Ba7  1  0.16517048  0.62435961  0.50179784  1
  Ba  Ba8  1  0.33428216  0.37309358  0.00062785  1
  Ba  Ba9  1  0.33343167  0.62720672  0.66792003  1
  Ba  Ba10  1  0.50336140  0.87509353  0.83222442  1
  Ba  Ba11  1  0.00192569  0.87281616  0.00190559  1
  Ba  Ba12  1  -0.00242324  0.37680956  -0.00083411  1
  Ba  Ba13  1  0.66775337  0.87476281  0.33146235  1
  Ba  Ba14  1  0.16827473  0.12473798  0.16716623  1
  Ba  Ba15  1  0.00176954  0.62563579  1.00060666  1
  Ba  Ba16  1  0.83327327  0.12678761  0.16741503  1
  Sr  Sr17  1  0.66799671  0.12414846  0.66180994  1
  Sr  Sr18  1  0.33505994  0.12694461  0.99842968  1
  Sr  Sr19  1  0.49815681  0.62568190  0.83423447  1
  Sr  Sr20  1  0.50357786  0.12196418  0.50003217  1
  Sr  Sr21  1  0.83323832  0.12262134  0.50168945  1
  La  La22  1  0.33323977  0.12721441  0.33522850  1
  La  La23  1  0.82911696  0.62599358  0.49929219  1
  La  La24  1  0.83701038  0.62539966  0.16773927  1
  La  La25  1  0.33719390  0.87927476  0.00329612  1
  La  La26  1  0.83266251  0.87466310  0.16470207  1
  La  La27  1  0.17059676  0.62589666  0.83556775  1
  La  La28  1  -0.00455420  0.37490194  0.66878027  1
  La  La29  1  0.00106984  0.87522265  0.66958805  1
  Pr  Pr30  1  0.16183613  0.37428885  0.16453968  1
  Pr  Pr31  1  0.50529027  0.87422023  0.16178383  1
  Pr  Pr32  1  0.33033068  0.37293595  0.33640080  1
  Pr  Pr33  1  0.00155313  0.12858167  0.33250597  1
  Pr  Pr34  1  0.33230875  0.62059813  0.33506389  1
  Pr  Pr35  1  0.15914967  0.37436885  0.83134373  1
  Pr  Pr36  1  0.17126530  0.87364802  0.16509348  1
  Pr  Pr37  1  -0.00326852  0.62544974  0.66329099  1
  Pr  Pr38  1  0.66425101  0.62643061  0.99541838  1
  Pr  Pr39  1  0.34187747  0.12336507  0.66614937  1
  Pr  Pr40  1  0.49937868  0.12278756  0.83427785  1
  Pr  Pr41  1  0.83650888  0.87328281  0.83189396  1
  Pr  Pr42  1  0.66766433  0.37521505  0.33279125  1
  Pr  Pr43  1  0.00423555  0.12526177  0.99614761  1
  Pr  Pr44  1  0.16921934  0.87470803  0.83437077  1
  Pr  Pr45  1  0.50138435  0.87723848  0.49767093  1
  Pr  Pr46  1  0.49548435  0.12621147  0.16577436  1
  Pr  Pr47  1  0.83005461  0.37725227  0.82821759  1
  Pr  Pr48  1  0.00298481  0.12425956  0.66445435  1
  Pr  Pr49  1  0.83149919  0.62519097  0.83528460  1
  Pr  Pr50  1  0.50009005  0.37678518  0.16475560  1
  Pr  Pr51  1  0.83298730  0.87768851  0.49712139  1
  Pr  Pr52  1  0.32584687  0.37683596  0.67239503  1
  Pr  Pr53  1  0.66839102  0.87551009  0.00224385  1
  Pr  Pr54  1  0.66247237  0.62540453  0.66089200  1
  Pr  Pr55  1  0.49696969  0.62946284  0.49964792  1
  Pr  Pr56  1  -0.00005750  0.87974403  0.33450779  1
  Pr  Pr57  1  0.66848037  0.12468828  0.99353630  1
  Pr  Pr58  1  0.83451180  0.12492258  0.83689772  1
  Pr  Pr59  1  0.17036296  0.87135681  0.49919901  1
  Pr  Pr60  1  0.66999093  0.87900019  0.66516440  1
  Pr  Pr61  1  0.00346926  0.62116871  0.33084908  1
  Pr  Pr62  1  0.82838171  0.37649989  0.16362606  1
  Pr  Pr63  1  -0.00653156  0.37159712  0.33426525  1
  Pr  Pr64  1  0.17030700  0.12276600  0.50615005  1
  Pr  Pr65  1  0.66537254  0.37645477  -0.00264320  1
  Pr  Pr66  1  0.16942073  0.62412188  0.16824548  1
  Pr  Pr67  1  0.66122754  0.12784043  0.33073088  1
  Pr  Pr68  1  0.82940820  0.37140384  0.49949959  1
  Pr  Pr69  1  0.49376383  0.37398163  0.82493511  1
  Pr  Pr70  1  0.33603201  0.62483389  0.99580248  1
  Pr  Pr71  1  0.65960415  0.37123209  0.66731966  1
  Mn  Mn72  1  0.00083144  0.00056369  0.16847411  1
  Mn  Mn73  1  -0.00019786  -0.00037123  0.50140452  1
  Mn  Mn74  1  -0.00085508  -0.00122548  0.83345048  1
  Mn  Mn75  1  0.00013396  0.49952717  0.16832514  1
  Mn  Mn76  1  -0.00485716  0.49921922  0.49984291  1
  Mn  Mn77  1  -0.00150946  0.50131590  0.83157967  1
  Mn  Mn78  1  0.33520452  0.00176923  0.16883575  1
  Mn  Mn79  1  0.33424199  0.00125037  0.50176819  1
  Mn  Mn80  1  0.33446611  0.00073876  0.83551776  1
  Mn  Mn81  1  0.33300114  0.49924164  0.16769739  1
  Mn  Mn82  1  0.33377977  0.49814557  0.50128347  1
  Mn  Mn83  1  0.33332122  0.49967125  0.83545342  1
  Mn  Mn84  1  0.66614873  0.00307239  0.16465787  1
  Mn  Mn85  1  0.66786218  0.00126155  0.49920272  1
  Mn  Mn86  1  0.66995803  0.00052640  0.83080144  1
  Mn  Mn87  1  0.66739288  0.49801904  0.16418186  1
  Mn  Mn88  1  0.66593679  0.49861917  0.49862346  1
  Mn  Mn89  1  0.66554654  0.50028475  0.83006513  1
  Mn  Mn90  1  -0.00031053  0.25001710  0.16676792  1
  Mn  Mn91  1  -0.00177492  0.24829218  0.50113334  1
  Mn  Mn92  1  -0.00308538  0.24982735  0.83294483  1
  Mn  Mn93  1  0.00074834  0.74953013  0.17084087  1
  Mn  Mn94  1  -0.00350841  0.75171472  0.49979651  1
  Mn  Mn95  1  0.00069689  0.74990891  0.83164675  1
  Mn  Mn96  1  0.33378981  0.24976720  0.16901784  1
  Mn  Mn97  1  0.33287566  0.24876002  0.50247253  1
  Mn  Mn98  1  0.33331827  0.25000996  0.83385280  1
  Mn  Mn99  1  0.33488151  0.75035156  0.16692719  1
  Mn  Mn100  1  0.33419245  0.75134138  0.49980094  1
  Mn  Mn101  1  0.33445846  0.75004047  0.83608193  1
  Mn  Mn102  1  0.66454321  0.25069022  0.16348629  1
  Mn  Mn103  1  0.66818628  0.24949750  0.49918208  1
  Mn  Mn104  1  0.66708965  0.24895565  0.83092243  1
  Mn  Mn105  1  0.66828861  0.75027516  0.16398086  1
  Mn  Mn106  1  0.66586405  0.74946083  0.49972642  1
  Mn  Mn107  1  0.66835966  0.74964238  0.83024702  1
  Mn  Mn108  1  0.16699639  0.25104496  0.00040456  1
  Mn  Mn109  1  0.16494128  0.25038920  0.33590629  1
  Mn  Mn110  1  0.16592442  0.24846304  0.66804647  1
  Mn  Mn111  1  0.17080524  0.74957657  0.00182925  1
  Mn  Mn112  1  0.16540381  0.75050404  0.33311783  1
  Mn  Mn113  1  0.16403962  0.75187040  0.66767627  1
  Mn  Mn114  1  0.50290747  0.25078059  -0.00202952  1
  Mn  Mn115  1  0.49862600  0.24912642  0.33108901  1
  Mn  Mn116  1  0.49991879  0.24873137  0.66494434  1
  Mn  Mn117  1  0.50154708  0.74969229  -0.00174285  1
  Mn  Mn118  1  0.49858205  0.75089972  0.33210799  1
  Mn  Mn119  1  0.50285885  0.74942274  0.66619389  1
  Mn  Mn120  1  0.83257816  0.25070306  -0.00079102  1
  Mn  Mn121  1  0.83140400  0.24874050  0.33425123  1
  Mn  Mn122  1  0.83258429  0.24847532  0.66598512  1
  Mn  Mn123  1  0.83198313  0.74932081  -0.00112969  1
  Mn  Mn124  1  0.83608271  0.75073879  0.33403342  1
  Mn  Mn125  1  0.83204934  0.74987841  0.66573363  1
  Mn  Mn126  1  0.16843087  -0.00067884  0.00182598  1
  Mn  Mn127  1  0.16468573  0.00004569  0.33729444  1
  Mn  Mn128  1  0.16680796  0.00036983  0.66831417  1
  Mn  Mn129  1  0.16827503  0.49945257  0.00132742  1
  Mn  Mn130  1  0.16586564  0.49971170  0.33178803  1
  Mn  Mn131  1  0.16337788  0.49934948  0.66888166  1
  Mn  Mn132  1  0.50247506  0.00241194  -0.00029199  1
  Mn  Mn133  1  0.50021948  0.00184398  0.33248488  1
  Mn  Mn134  1  0.50390396  0.00108562  0.66538551  1
  Mn  Mn135  1  0.50149322  0.49868103  -0.00328347  1
  Mn  Mn136  1  0.49768791  0.49763929  0.33291041  1
  Mn  Mn137  1  0.49939674  0.50062563  0.66485807  1
  Mn  Mn138  1  0.83361934  0.00088987  -0.00017934  1
  Mn  Mn139  1  0.83349774  0.00258515  0.33375577  1
  Mn  Mn140  1  0.83416966  0.00066180  0.66678080  1
  Mn  Mn141  1  0.83089802  0.50012912  -0.00168532  1
  Mn  Mn142  1  0.83466035  0.49812948  0.33374007  1
  Mn  Mn143  1  0.83037171  0.50089895  0.66515424  1
  O  O144  1  0.15826532  0.12429165  0.01037244  1
  O  O145  1  0.15999883  0.12343455  0.36148481  1
  O  O146  1  0.15880747  0.12439114  0.68145775  1
  O  O147  1  0.17676130  0.62488572  0.02384259  1
  O  O148  1  0.16570559  0.62534158  0.34596789  1
  O  O149  1  0.15484670  0.62302110  0.68926803  1
  O  O150  1  0.50952791  0.12782838  0.02231830  1
  O  O151  1  0.50894065  0.12628872  0.35118993  1
  O  O152  1  0.50038745  0.12736067  0.68931895  1
  O  O153  1  0.50234831  0.62360045  0.00981181  1
  O  O154  1  0.49481108  0.62156589  0.35472415  1
  O  O155  1  0.51096078  0.62385878  0.68445137  1
  O  O156  1  0.82903166  0.12577431  0.01228273  1
  O  O157  1  0.83321171  0.12681957  0.35293774  1
  O  O158  1  0.83435512  0.12335760  0.69377604  1
  O  O159  1  0.82421633  0.62354320  0.02299733  1
  O  O160  1  0.84113680  0.61977747  0.35599750  1
  O  O161  1  0.82769252  0.62455917  0.69290561  1
  O  O162  1  0.16929587  0.37735141  0.30892700  1
  O  O163  1  0.16829494  0.37290006  0.65818424  1
  O  O164  1  0.16617052  0.37746868  0.97682336  1
  O  O165  1  0.15910664  0.87432399  0.30916803  1
  O  O166  1  0.15907109  0.87949738  0.64283030  1
  O  O167  1  0.17350911  0.87294646  0.97952586  1
  O  O168  1  0.48915630  0.37128318  0.30863257  1
  O  O169  1  0.50093556  0.37374911  0.65561433  1
  O  O170  1  0.50823533  0.37363159  0.96881321  1
  O  O171  1  0.49810003  0.88063764  0.30653642  1
  O  O172  1  0.51000746  0.87438416  0.64355170  1
  O  O173  1  0.50232072  0.87668046  0.98862411  1
  O  O174  1  0.83316012  0.37305269  0.30790416  1
  O  O175  1  0.84017573  0.37776843  0.64170566  1
  O  O176  1  0.82661744  0.37540215  0.97215007  1
  O  O177  1  0.83988781  0.88003690  0.30869655  1
  O  O178  1  0.83503995  0.87330627  0.64036927  1
  O  O179  1  0.82604030  0.87616417  0.97523943  1
  O  O180  1  0.00480914  0.37557315  0.19000943  1
  O  O181  1  -0.00984277  0.37047455  0.52626911  1
  O  O182  1  -0.00361994  0.37540979  0.84333351  1
  O  O183  1  0.00092822  0.87275366  0.19015641  1
  O  O184  1  -0.00870690  0.87578154  0.52807545  1
  O  O185  1  -0.00621036  0.87399452  0.84572283  1
  O  O186  1  0.33992306  0.37318811  0.19299186  1
  O  O187  1  0.33380559  0.36987333  0.52678893  1
  O  O188  1  0.34212002  0.37462254  0.84370337  1
  O  O189  1  0.33846459  0.87663562  0.17924023  1
  O  O190  1  0.33340036  0.87799531  0.51125040  1
  O  O191  1  0.32830269  0.87306779  0.85587859  1
  O  O192  1  0.67189409  0.37319877  0.18891659  1
  O  O193  1  0.67368515  0.37508842  0.52349333  1
  O  O194  1  0.66919337  0.37392043  0.85537745  1
  O  O195  1  0.66488039  0.87615743  0.17432890  1
  O  O196  1  0.66722508  0.87240927  0.52123003  1
  O  O197  1  0.67428120  0.87649601  0.85865193  1
  O  O198  1  -0.00031590  0.12696912  0.14117339  1
  O  O199  1  0.00401677  0.12314442  0.47517433  1
  O  O200  1  -0.00815071  0.12475725  0.80902902  1
  O  O201  1  -0.00454571  0.62416781  0.15698561  1
  O  O202  1  -0.00906870  0.62985898  0.47323776  1
  O  O203  1  -0.00036298  0.62542033  0.80784536  1
  O  O204  1  0.33828454  0.12561226  0.14752534  1
  O  O205  1  0.32501940  0.12474041  0.48021603  1
  O  O206  1  0.33898493  0.12798029  0.81192452  1
  O  O207  1  0.32511922  0.62579342  0.14001955  1
  O  O208  1  0.34009408  0.62624637  0.48010666  1
  O  O209  1  0.32960796  0.62383572  0.82540385  1
  O  O210  1  0.65987874  0.12934790  0.13696893  1
  O  O211  1  0.66865199  0.12837310  0.47518770  1
  O  O212  1  0.67393731  0.12573976  0.80998207  1
  O  O213  1  0.67421134  0.62321287  0.14231479  1
  O  O214  1  0.66814848  0.62342377  0.48572535  1
  O  O215  1  0.67468966  0.62267358  0.80296659  1
  O  O216  1  0.07796465  0.01620063  0.26198593  1
  O  O217  1  0.08503965  0.02003231  0.58119644  1
  O  O218  1  0.07845090  0.00997843  0.92093370  1
  O  O219  1  0.08865063  0.51895560  0.24440104  1
  O  O220  1  0.07166317  0.51182056  0.58663082  1
  O  O221  1  0.09244934  0.51424673  0.90827845  1
  O  O222  1  0.41666013  0.02572610  0.25202515  1
  O  O223  1  0.41720577  0.01730376  0.58564338  1
  O  O224  1  0.42228612  0.01948892  0.91809294  1
  O  O225  1  0.40972814  0.51679873  0.25455721  1
  O  O226  1  0.42481073  0.51748648  0.57773197  1
  O  O227  1  0.41802528  0.51474153  0.91676529  1
  O  O228  1  0.74290076  0.01745269  0.25319587  1
  O  O229  1  0.75186357  0.01014485  0.58610371  1
  O  O230  1  0.75102930  0.02139454  0.91479114  1
  O  O231  1  0.76227051  0.51175321  0.24188142  1
  O  O232  1  0.75106214  0.51981084  0.58278496  1
  O  O233  1  0.74902487  0.52155648  0.91014192  1
  O  O234  1  0.25691302  0.23687705  0.26166796  1
  O  O235  1  0.25393651  0.22765968  0.59060111  1
  O  O236  1  0.25453236  0.24086183  0.91972484  1
  O  O237  1  0.24359617  0.73537484  0.24105658  1
  O  O238  1  0.24384638  0.74634482  0.58284897  1
  O  O239  1  0.25176735  0.72919005  0.92112776  1
  O  O240  1  0.57740181  0.23368636  0.23943329  1
  O  O241  1  0.58860983  0.23973664  0.58563232  1
  O  O242  1  0.58905649  0.22532733  0.91487391  1
  O  O243  1  0.58087500  0.74504809  0.24286599  1
  O  O244  1  0.58180274  0.72851615  0.57855547  1
  O  O245  1  0.58600176  0.73229414  0.91170328  1
  O  O246  1  0.92260670  0.23828511  0.25923400  1
  O  O247  1  0.92397901  0.22774662  0.59184707  1
  O  O248  1  0.91683528  0.22781905  0.91816524  1
  O  O249  1  0.91918404  0.72997066  0.25526340  1
  O  O250  1  0.90764804  0.72584744  0.57884838  1
  O  O251  1  0.90921612  0.73556157  0.90801447  1
  O  O252  1  0.08485480  0.48824760  0.08571375  1
  O  O253  1  0.07297284  0.48696639  0.40459201  1
  O  O254  1  0.07863931  0.47842440  0.74794226  1
  O  O255  1  0.09065749  0.98146858  0.09091859  1
  O  O256  1  0.08088890  0.97203512  0.42121437  1
  O  O257  1  0.08114382  0.98081302  0.74947653  1
  O  O258  1  0.42047807  0.48404527  0.08860952  1
  O  O259  1  0.41048315  0.48339317  0.41043218  1
  O  O260  1  0.41292075  0.48333581  0.74562546  1
  O  O261  1  0.42394559  0.98667305  0.08676944  1
  O  O262  1  0.42079217  0.99185521  0.42077242  1
  O  O263  1  0.41993967  0.99674306  0.75070959  1
  O  O264  1  0.74587511  0.47531275  0.07784235  1
  O  O265  1  0.74980255  0.47743668  0.41339897  1
  O  O266  1  0.74688275  0.47278584  0.74487811  1
  O  O267  1  0.74901395  0.98224081  0.07978925  1
  O  O268  1  0.75617612  0.98458145  0.42206846  1
  O  O269  1  0.75464667  0.97473617  0.75112806  1
  O  O270  1  0.24673037  0.26738452  0.09474911  1
  O  O271  1  0.24827926  0.26378592  0.41956670  1
  O  O272  1  0.24748146  0.27030615  0.75569448  1
  O  O273  1  0.25704906  0.77413012  0.08020574  1
  O  O274  1  0.24648783  0.76179893  0.41669822  1
  O  O275  1  0.24443226  0.76215706  0.76122847  1
  O  O276  1  0.58549348  0.27916219  0.07938825  1
  O  O277  1  0.58957016  0.26629637  0.40214135  1
  O  O278  1  0.57942171  0.26907239  0.75466318  1
  O  O279  1  0.58973476  0.76409522  0.07483573  1
  O  O280  1  0.58081594  0.76415261  0.42127939  1
  O  O281  1  0.59768807  0.76529689  0.73789349  1
  O  O282  1  0.91040962  0.26909441  0.09039644  1
  O  O283  1  0.91185803  0.26918864  0.42211646  1
  O  O284  1  0.90869112  0.26991539  0.75469821  1
  O  O285  1  0.91234372  0.76179547  0.09291057  1
  O  O286  1  0.91851869  0.77820157  0.41682641  1
  O  O287  1  0.91940189  0.76522305  0.74027880  1
  O  O288  1  0.24387335  0.48053750  0.09433730  1
  O  O289  1  0.25176971  0.48671190  0.41115950  1
  O  O290  1  0.24336690  0.48234788  0.76130995  1
  O  O291  1  0.25229390  0.98054473  0.08734991  1
  O  O292  1  0.23897245  0.98740327  0.42836345  1
  O  O293  1  0.24352079  0.98415676  0.75636378  1
  O  O294  1  0.58342755  0.47727513  0.07900673  1
  O  O295  1  0.58548699  0.48128976  0.41047671  1
  O  O296  1  0.58177529  0.47677978  0.75121748  1
  O  O297  1  0.58655039  0.98165662  0.07903064  1
  O  O298  1  0.58104091  0.98502208  0.41729673  1
  O  O299  1  0.59327011  0.98622406  0.74392964  1
  O  O300  1  0.90753536  0.48722995  0.09653067  1
  O  O301  1  0.91086268  0.47282367  0.42087715  1
  O  O302  1  0.91122260  0.48367981  0.74777410  1
  O  O303  1  0.91129758  0.98321863  0.08642384  1
  O  O304  1  0.91757423  0.98021700  0.41988800  1
  O  O305  1  0.91439128  0.97882103  0.75061238  1
  O  O306  1  0.08430181  0.26713824  0.08694231  1
  O  O307  1  0.07207655  0.26702026  0.41024573  1
  O  O308  1  0.07685678  0.26662751  0.74700849  1
  O  O309  1  0.09479786  0.76043851  0.09437530  1
  O  O310  1  0.08163333  0.77421670  0.42220238  1
  O  O311  1  0.08533637  0.77341763  0.75243466  1
  O  O312  1  0.42507971  0.26346659  0.09023334  1
  O  O313  1  0.40815198  0.25908500  0.41001879  1
  O  O314  1  0.41127405  0.26605106  0.74387668  1
  O  O315  1  0.42300934  0.76805517  0.08931328  1
  O  O316  1  0.42426040  0.76444021  0.42412244  1
  O  O317  1  0.42177580  0.75566717  0.75353562  1
  O  O318  1  0.74768470  0.27287178  0.08058326  1
  O  O319  1  0.74939915  0.27433721  0.41520002  1
  O  O320  1  0.74594763  0.27545460  0.74582888  1
  O  O321  1  0.74963013  0.77168425  0.07991207  1
  O  O322  1  0.75869973  0.76152048  0.42526655  1
  O  O323  1  0.75757745  0.77484555  0.75369989  1
  O  O324  1  0.25170673  0.01412424  0.26018027  1
  O  O325  1  0.25287919  0.02166578  0.59008469  1
  O  O326  1  0.25587768  0.00805489  0.92522128  1
  O  O327  1  0.25136462  0.52149243  0.25139384  1
  O  O328  1  0.25122027  0.50507903  0.59152580  1
  O  O329  1  0.25467043  0.51859554  0.92399252  1
  O  O330  1  0.58061221  0.02310988  0.24421198  1
  O  O331  1  0.58487149  0.01251076  0.58041608  1
  O  O332  1  0.58635345  0.02269922  0.91365309  1
  O  O333  1  0.58269810  0.49913909  0.24737088  1
  O  O334  1  0.58640731  0.51528216  0.58508824  1
  O  O335  1  0.59048742  0.51858840  0.91666106  1
  O  O336  1  0.92123098  0.01715305  0.25808183  1
  O  O337  1  0.92226212  0.02062259  0.58911814  1
  O  O338  1  0.91598056  0.02133252  0.91702673  1
  O  O339  1  0.92590571  0.51199053  0.26117027  1
  O  O340  1  0.91128567  0.52648148  0.58573867  1
  O  O341  1  0.91177010  0.51674327  0.91136467  1
  O  O342  1  0.08117712  0.23639468  0.25316977  1
  O  O343  1  0.08485699  0.22949286  0.57881904  1
  O  O344  1  0.07646966  0.23828882  0.91654418  1
  O  O345  1  0.07969035  0.72897146  0.25500129  1
  O  O346  1  0.06847930  0.73655794  0.59011863  1
  O  O347  1  0.09147030  0.73678509  0.91399049  1
  O  O348  1  0.41676977  0.22459816  0.25094276  1
  O  O349  1  0.41721440  0.22623069  0.58294413  1
  O  O350  1  0.42538038  0.23271177  0.90964390  1
  O  O351  1  0.40558206  0.73025841  0.25746483  1
  O  O352  1  0.42292077  0.73892254  0.58094852  1
  O  O353  1  0.41144189  0.73827660  0.92602233  1
  O  O354  1  0.73905921  0.23567474  0.25552302  1
  O  O355  1  0.75763270  0.23750426  0.58115431  1
  O  O356  1  0.75125468  0.23107615  0.91133623  1
  O  O357  1  0.75779243  0.73904798  0.24212769  1
  O  O358  1  0.74405455  0.73233852  0.59056039  1
  O  O359  1  0.74610559  0.72505947  0.91479900  1
