# generated using pymatgen
data_Ba17Sr5La8Pr42Mn72O216
_symmetry_space_group_name_H-M   'P 1'
_cell_length_a   16.67011056
_cell_length_b   15.69920375
_cell_length_c   16.82367930
_cell_angle_alpha   90.00903592
_cell_angle_beta   89.95285985
_cell_angle_gamma   89.97626581
_symmetry_Int_Tables_number   1
_chemical_formula_structural   Ba17Sr5La8Pr42Mn72O216
_chemical_formula_sum   'Ba17 Sr5 La8 Pr42 Mn72 O216'
_cell_volume   4402.88049250
_cell_formula_units_Z   1
loop_
 _symmetry_equiv_pos_site_id
 _symmetry_equiv_pos_as_xyz
  1  'x, y, z'
loop_
 _atom_site_type_symbol
 _atom_site_label
 _atom_site_symmetry_multiplicity
 _atom_site_fract_x
 _atom_site_fract_y
 _atom_site_fract_z
 _atom_site_occupancy
  Ba  Ba0  1  0.49578654  0.87542300  0.16652751  1
  Ba  Ba1  1  0.16636030  0.87358600  0.49864572  1
  Ba  Ba2  1  0.33222651  0.87477189  0.33493117  1
  Ba  Ba3  1  0.66551142  0.37588530  0.66764240  1
  Ba  Ba4  1  0.00049540  0.62352700  0.99873708  1
  Ba  Ba5  1  0.83417764  0.62589706  0.49825198  1
  Ba  Ba6  1  0.16653414  0.62443291  0.83403199  1
  Ba  Ba7  1  0.83070398  0.87688607  0.83071208  1
  Ba  Ba8  1  0.16843953  0.37323934  0.16779549  1
  Ba  Ba9  1  0.33230710  0.62696057  0.66844701  1
  Ba  Ba10  1  0.66687880  0.12560495  1.00081029  1
  Ba  Ba11  1  0.83640107  0.62220565  0.16728956  1
  Ba  Ba12  1  0.50175531  0.12551238  0.50064234  1
  Ba  Ba13  1  0.50141855  0.37519684  0.50113307  1
  Ba  Ba14  1  0.50170959  0.12413709  0.16742151  1
  Ba  Ba15  1  0.82967826  0.87535446  0.49856869  1
  Ba  Ba16  1  0.00176020  0.37211453  0.66463051  1
  Sr  Sr17  1  0.16778642  0.37883200  0.49632813  1
  Sr  Sr18  1  0.50089913  0.37410239  0.82995849  1
  Sr  Sr19  1  0.83445578  0.37639711  0.16558158  1
  Sr  Sr20  1  0.32976219  0.87518398  0.66634958  1
  Sr  Sr21  1  0.16786746  0.62582535  0.50359012  1
  La  La22  1  0.67053433  0.37459974  0.33570074  1
  La  La23  1  0.16832937  0.12393695  0.83282950  1
  La  La24  1  0.33643521  0.12626001  1.00032998  1
  La  La25  1  0.33378251  0.62496698  0.99591357  1
  La  La26  1  0.50065676  0.62172121  0.83442567  1
  La  La27  1  0.33676761  0.12366579  0.66535839  1
  La  La28  1  0.16985462  0.12353827  0.50185051  1
  La  La29  1  0.83356807  0.37574512  0.49839616  1
  Pr  Pr30  1  0.33295328  0.62388370  0.33855772  1
  Pr  Pr31  1  0.83542373  0.12960906  0.83484129  1
  Pr  Pr32  1  0.66813017  0.62338716  0.33168379  1
  Pr  Pr33  1  0.49645471  0.87699420  0.83399945  1
  Pr  Pr34  1  0.83613308  0.12811779  0.17001580  1
  Pr  Pr35  1  -0.00547044  0.37686709  0.33790573  1
  Pr  Pr36  1  0.83341243  0.37408104  0.83062537  1
  Pr  Pr37  1  0.66825227  0.37441810  0.00127396  1
  Pr  Pr38  1  0.49977181  0.62709540  0.50557406  1
  Pr  Pr39  1  -0.00075742  0.12106140  0.66229228  1
  Pr  Pr40  1  0.33492179  0.37527932  0.66799165  1
  Pr  Pr41  1  -0.00555674  0.87271832  0.33656338  1
  Pr  Pr42  1  0.17090409  0.12620871  0.17025200  1
  Pr  Pr43  1  0.67004917  0.12561070  0.66661324  1
  Pr  Pr44  1  -0.00150170  0.87137745  0.66552888  1
  Pr  Pr45  1  0.50086244  0.62727677  0.16940953  1
  Pr  Pr46  1  0.82624801  0.87479483  0.16117085  1
  Pr  Pr47  1  0.65894013  0.87341650  0.33468808  1
  Pr  Pr48  1  0.66162376  0.87536108  0.66705175  1
  Pr  Pr49  1  -0.00683263  0.87356920  0.00084571  1
  Pr  Pr50  1  0.66919385  0.62646324  0.99773868  1
  Pr  Pr51  1  0.15937552  0.87285088  0.82933503  1
  Pr  Pr52  1  0.00544219  0.12420921  0.33083061  1
  Pr  Pr53  1  0.33525417  0.37775292  0.00242844  1
  Pr  Pr54  1  0.16840251  0.37716169  0.83026417  1
  Pr  Pr55  1  0.50131421  0.37379735  0.16500837  1
  Pr  Pr56  1  0.49389014  0.87337237  0.49690269  1
  Pr  Pr57  1  0.65964757  0.87557773  0.00395862  1
  Pr  Pr58  1  0.50258352  0.12985951  0.83763873  1
  Pr  Pr59  1  0.66865039  0.12575809  0.32831155  1
  Pr  Pr60  1  0.15990573  0.87539325  0.16656040  1
  Pr  Pr61  1  0.00223918  0.62650347  0.66282745  1
  Pr  Pr62  1  0.83373996  0.62043026  0.83637782  1
  Pr  Pr63  1  0.16914094  0.62400590  0.16816218  1
  Pr  Pr64  1  0.32269328  0.87406549  0.00719358  1
  Pr  Pr65  1  0.00049495  0.37723530  0.00112149  1
  Pr  Pr66  1  0.33373798  0.37228729  0.34049868  1
  Pr  Pr67  1  0.66852561  0.62557497  0.66495661  1
  Pr  Pr68  1  0.33709469  0.12520056  0.33405169  1
  Pr  Pr69  1  0.00254258  0.12741926  0.99845788  1
  Pr  Pr70  1  0.00817400  0.62492461  0.33087865  1
  Pr  Pr71  1  0.83420382  0.12589097  0.49925275  1
  Mn  Mn72  1  -0.00066468  0.00084671  0.16579459  1
  Mn  Mn73  1  -0.00099443  0.00136251  0.49720975  1
  Mn  Mn74  1  -0.00038072  0.00234488  0.83216495  1
  Mn  Mn75  1  0.00240965  0.49786391  0.16739687  1
  Mn  Mn76  1  0.00102546  0.50008117  0.49964033  1
  Mn  Mn77  1  -0.00040619  0.49680987  0.83169625  1
  Mn  Mn78  1  0.32994011  -0.00003889  0.16715132  1
  Mn  Mn79  1  0.33374331  0.00074862  0.50129700  1
  Mn  Mn80  1  0.33351193  -0.00038970  0.83487339  1
  Mn  Mn81  1  0.33570139  0.50164161  0.16866471  1
  Mn  Mn82  1  0.33340290  0.49987360  0.50153088  1
  Mn  Mn83  1  0.33417156  0.49876610  0.83509484  1
  Mn  Mn84  1  0.66855688  0.00013150  0.16673029  1
  Mn  Mn85  1  0.66629305  0.00050797  0.49940653  1
  Mn  Mn86  1  0.66498883  -0.00067800  0.83251265  1
  Mn  Mn87  1  0.66576928  0.49877353  0.16581046  1
  Mn  Mn88  1  0.66731309  0.50058059  0.49920250  1
  Mn  Mn89  1  0.66618969  0.50089596  0.83445911  1
  Mn  Mn90  1  0.00013304  0.25078159  0.16559650  1
  Mn  Mn91  1  0.00133162  0.24899246  0.49845272  1
  Mn  Mn92  1  0.00143263  0.24824704  0.83330164  1
  Mn  Mn93  1  0.00103937  0.75112032  0.16737069  1
  Mn  Mn94  1  -0.00060577  0.74947160  0.49830844  1
  Mn  Mn95  1  -0.00218454  0.75037621  0.83246766  1
  Mn  Mn96  1  0.33424040  0.25128110  0.16814229  1
  Mn  Mn97  1  0.33240455  0.24941008  0.50183590  1
  Mn  Mn98  1  0.33275636  0.24934678  0.83341821  1
  Mn  Mn99  1  0.33104614  0.74814474  0.16658531  1
  Mn  Mn100  1  0.33296263  0.74942705  0.50161884  1
  Mn  Mn101  1  0.33426475  0.75285577  0.83616040  1
  Mn  Mn102  1  0.66845442  0.25280910  0.16680397  1
  Mn  Mn103  1  0.66865225  0.24868879  0.49874194  1
  Mn  Mn104  1  0.66689587  0.25001689  0.83358805  1
  Mn  Mn105  1  0.66638670  0.74859556  0.16587357  1
  Mn  Mn106  1  0.66504343  0.74984473  0.50048559  1
  Mn  Mn107  1  0.66507373  0.75027643  0.83300431  1
  Mn  Mn108  1  0.16748813  0.24839492  -0.00154050  1
  Mn  Mn109  1  0.16654020  0.25046139  0.33503399  1
  Mn  Mn110  1  0.16808392  0.24949499  0.66673515  1
  Mn  Mn111  1  0.16467994  0.75223873  0.00053886  1
  Mn  Mn112  1  0.16732455  0.74793648  0.33264260  1
  Mn  Mn113  1  0.16581059  0.75112345  0.66637862  1
  Mn  Mn114  1  0.49968546  0.25347876  -0.00086044  1
  Mn  Mn115  1  0.50124577  0.25082281  0.33215577  1
  Mn  Mn116  1  0.49997084  0.24952325  0.67024020  1
  Mn  Mn117  1  0.49920709  0.74868028  -0.00056584  1
  Mn  Mn118  1  0.49995384  0.74678499  0.33585394  1
  Mn  Mn119  1  0.49963295  0.75269048  0.66843443  1
  Mn  Mn120  1  0.83484082  0.24999958  0.00096493  1
  Mn  Mn121  1  0.83464750  0.24927885  0.33326858  1
  Mn  Mn122  1  0.83379934  0.24850943  0.66636388  1
  Mn  Mn123  1  0.83203316  0.75038900  -0.00210692  1
  Mn  Mn124  1  0.83316405  0.74966900  0.33055199  1
  Mn  Mn125  1  0.83232777  0.75053011  0.66742264  1
  Mn  Mn126  1  0.16494490  0.00182880  0.00001749  1
  Mn  Mn127  1  0.16560947  0.00139988  0.33304769  1
  Mn  Mn128  1  0.16600504  -0.00013838  0.66848717  1
  Mn  Mn129  1  0.16796715  0.49717658  0.00024485  1
  Mn  Mn130  1  0.16799667  0.49996788  0.33393953  1
  Mn  Mn131  1  0.16696775  0.49804067  0.66456378  1
  Mn  Mn132  1  0.49791315  0.00126013  -0.00216969  1
  Mn  Mn133  1  0.50103775  -0.00007552  0.33536031  1
  Mn  Mn134  1  0.49980367  -0.00123352  0.66894441  1
  Mn  Mn135  1  0.50107683  0.49889488  0.00146546  1
  Mn  Mn136  1  0.50006150  0.50125516  0.33203284  1
  Mn  Mn137  1  0.49978932  0.50078259  0.66898323  1
  Mn  Mn138  1  0.83332428  0.00141228  -0.00072020  1
  Mn  Mn139  1  0.83318639  -0.00019936  0.32984931  1
  Mn  Mn140  1  0.83218689  0.00050231  0.66492630  1
  Mn  Mn141  1  0.83262540  0.49843267  -0.00069480  1
  Mn  Mn142  1  0.83421762  0.50008220  0.33296114  1
  Mn  Mn143  1  0.83439018  0.50061701  0.66811664  1
  O  O144  1  0.16166600  0.12418295  0.02783104  1
  O  O145  1  0.15643652  0.12691627  0.35635738  1
  O  O146  1  0.16557765  0.12405283  0.69079165  1
  O  O147  1  0.17074744  0.62708417  0.02218912  1
  O  O148  1  0.15757419  0.62350091  0.35111592  1
  O  O149  1  0.15768111  0.62666947  0.67748386  1
  O  O150  1  0.49346028  0.12926337  0.01168369  1
  O  O151  1  0.50463443  0.12320425  0.34267122  1
  O  O152  1  0.49510095  0.12186937  0.69348636  1
  O  O153  1  0.49883405  0.62148492  0.02642732  1
  O  O154  1  0.50589965  0.62327020  0.36044803  1
  O  O155  1  0.50476219  0.62962443  0.69109969  1
  O  O156  1  0.83958749  0.12626467  0.02703788  1
  O  O157  1  0.82482787  0.12766548  0.35510958  1
  O  O158  1  0.83130585  0.12406557  0.69066376  1
  O  O159  1  0.82680898  0.62436969  0.01158736  1
  O  O160  1  0.82661606  0.62475187  0.34161283  1
  O  O161  1  0.83287081  0.62738700  0.69216025  1
  O  O162  1  0.17807404  0.37488488  0.32222750  1
  O  O163  1  0.17449948  0.36992772  0.64656238  1
  O  O164  1  0.17139119  0.36766072  0.97483478  1
  O  O165  1  0.16350176  0.87562169  0.30998416  1
  O  O166  1  0.15921741  0.87752237  0.65561604  1
  O  O167  1  0.17294477  0.88072357  0.97390926  1
  O  O168  1  0.49406566  0.37916790  0.30892758  1
  O  O169  1  0.49411631  0.37409199  0.65841240  1
  O  O170  1  0.49597481  0.37720425  0.97818683  1
  O  O171  1  0.50585738  0.87287475  0.32303432  1
  O  O172  1  0.50926392  0.87526591  0.64004684  1
  O  O173  1  0.50662554  0.87388330  0.97863578  1
  O  O174  1  0.83855268  0.37075721  0.31529831  1
  O  O175  1  0.83342504  0.36983391  0.64277244  1
  O  O176  1  0.83275248  0.37287793  0.97437109  1
  O  O177  1  0.84207027  0.87612023  0.30534022  1
  O  O178  1  0.83322236  0.87802078  0.65389103  1
  O  O179  1  0.83940118  0.87662053  0.98659467  1
  O  O180  1  -0.00128882  0.37132568  0.19267619  1
  O  O181  1  -0.00586942  0.37260365  0.50922598  1
  O  O182  1  -0.00413992  0.36889430  0.85672816  1
  O  O183  1  0.00516589  0.87900775  0.19432171  1
  O  O184  1  -0.00155599  0.87963920  0.52003183  1
  O  O185  1  0.00454872  0.88173050  0.85670124  1
  O  O186  1  0.34103470  0.38111090  0.19690380  1
  O  O187  1  0.33028886  0.37288930  0.51968770  1
  O  O188  1  0.32586348  0.37072857  0.85911488  1
  O  O189  1  0.32370108  0.87563776  0.17909199  1
  O  O190  1  0.34014342  0.87662102  0.51276324  1
  O  O191  1  0.33990988  0.87806552  0.86438480  1
  O  O192  1  0.66161672  0.37762050  0.19030068  1
  O  O193  1  0.67433713  0.37290887  0.51051581  1
  O  O194  1  0.67248202  0.37778730  0.85672581  1
  O  O195  1  0.67285348  0.87626747  0.18761059  1
  O  O196  1  0.66071443  0.87366931  0.52400563  1
  O  O197  1  0.66080109  0.87344121  0.86108885  1
  O  O198  1  -0.00282176  0.12501707  0.14014532  1
  O  O199  1  0.00031604  0.12541839  0.47417318  1
  O  O200  1  -0.00054259  0.12532083  0.80665598  1
  O  O201  1  0.00957687  0.62505473  0.15514844  1
  O  O202  1  0.00391310  0.62314800  0.47662208  1
  O  O203  1  -0.00714031  0.62163733  0.81048185  1
  O  O204  1  0.32584163  0.12247363  0.14430343  1
  O  O205  1  0.33030402  0.12612416  0.48140377  1
  O  O206  1  0.33319028  0.12451591  0.80840544  1
  O  O207  1  0.33406526  0.62362733  0.13942088  1
  O  O208  1  0.34086752  0.62324889  0.48431949  1
  O  O209  1  0.33883353  0.62695916  0.82602648  1
  O  O210  1  0.67494613  0.12607735  0.15825225  1
  O  O211  1  0.67483238  0.12593204  0.47199906  1
  O  O212  1  0.66230179  0.12195257  0.81154153  1
  O  O213  1  0.66059338  0.62081980  0.14155383  1
  O  O214  1  0.65900174  0.62656081  0.47544804  1
  O  O215  1  0.66651009  0.62726468  0.80939268  1
  O  O216  1  0.08756590  0.02377610  0.24023592  1
  O  O217  1  0.08268548  0.02292275  0.58105991  1
  O  O218  1  0.08712848  0.02467051  0.91411405  1
  O  O219  1  0.08979741  0.51663173  0.24763863  1
  O  O220  1  0.08185104  0.51410692  0.58190334  1
  O  O221  1  0.08146753  0.49902784  0.91495817  1
  O  O222  1  0.41242130  0.01336027  0.25330322  1
  O  O223  1  0.41540263  0.01285805  0.58976938  1
  O  O224  1  0.41869174  0.02278533  0.91014213  1
  O  O225  1  0.41788963  0.53128771  0.24984660  1
  O  O226  1  0.42196985  0.51389439  0.57916216  1
  O  O227  1  0.41868341  0.51697436  0.92070659  1
  O  O228  1  0.76270179  0.01643690  0.23879058  1
  O  O229  1  0.75388175  0.02330118  0.57564247  1
  O  O230  1  0.75500282  0.01786721  0.90598115  1
  O  O231  1  0.74214355  0.50942634  0.25523527  1
  O  O232  1  0.74804873  0.51671891  0.59126353  1
  O  O233  1  0.74644685  0.52059402  0.91830640  1
  O  O234  1  0.24896898  0.22713582  0.25338470  1
  O  O235  1  0.24866256  0.22473217  0.58487828  1
  O  O236  1  0.24827317  0.22294956  0.91341052  1
  O  O237  1  0.25301171  0.72301767  0.25277262  1
  O  O238  1  0.24994065  0.74437317  0.58579963  1
  O  O239  1  0.25941860  0.74075397  0.93060526  1
  O  O240  1  0.58812587  0.24261114  0.25136727  1
  O  O241  1  0.58950029  0.23347813  0.58828488  1
  O  O242  1  0.58017403  0.23998379  0.91441609  1
  O  O243  1  0.58593597  0.72789835  0.25464398  1
  O  O244  1  0.58573977  0.72707143  0.58790245  1
  O  O245  1  0.58578637  0.72508637  0.91818434  1
  O  O246  1  0.91658232  0.22539338  0.25434096  1
  O  O247  1  0.91737873  0.22459861  0.58324144  1
  O  O248  1  0.92022238  0.22614777  0.91959654  1
  O  O249  1  0.93000871  0.73603250  0.25763050  1
  O  O250  1  0.92190811  0.73714121  0.58929750  1
  O  O251  1  0.91364128  0.73692081  0.91249138  1
  O  O252  1  0.08223284  0.48069152  0.07804716  1
  O  O253  1  0.07729056  0.48239930  0.40868014  1
  O  O254  1  0.08671765  0.48196015  0.75376204  1
  O  O255  1  0.07573998  0.97630048  0.07594606  1
  O  O256  1  0.07417400  0.98587872  0.40460679  1
  O  O257  1  0.08030566  0.98163568  0.74947571  1
  O  O258  1  0.42060710  0.47783697  0.08744741  1
  O  O259  1  0.41174633  0.48614794  0.40901575  1
  O  O260  1  0.41230602  0.48394187  0.75125911  1
  O  O261  1  0.40391010  0.98725570  0.07362190  1
  O  O262  1  0.41912000  0.99085015  0.42008196  1
  O  O263  1  0.41573648  0.97796221  0.75077166  1
  O  O264  1  0.74655486  0.47952587  0.07938775  1
  O  O265  1  0.75353305  0.48248978  0.41652764  1
  O  O266  1  0.75630217  0.48769655  0.75932932  1
  O  O267  1  0.74583751  0.97813292  0.07881061  1
  O  O268  1  0.74079614  0.98272431  0.39843881  1
  O  O269  1  0.73688585  0.98812461  0.73810430  1
  O  O270  1  0.25824461  0.26423998  0.07650386  1
  O  O271  1  0.25106459  0.26049327  0.41677570  1
  O  O272  1  0.25333268  0.26984959  0.74842372  1
  O  O273  1  0.23732650  0.76964739  0.09003544  1
  O  O274  1  0.24917127  0.74936352  0.41491694  1
  O  O275  1  0.24542723  0.76938983  0.75947335  1
  O  O276  1  0.58390817  0.27323201  0.08089336  1
  O  O277  1  0.59133161  0.26172919  0.40978442  1
  O  O278  1  0.58065250  0.25529510  0.75332569  1
  O  O279  1  0.58353381  0.76298003  0.08087110  1
  O  O280  1  0.57941526  0.76982321  0.42268493  1
  O  O281  1  0.57909688  0.77471548  0.75438639  1
  O  O282  1  0.91709529  0.27069179  0.08250578  1
  O  O283  1  0.91430883  0.26488400  0.41408439  1
  O  O284  1  0.91160124  0.26120774  0.75640973  1
  O  O285  1  0.91496685  0.77038069  0.08935672  1
  O  O286  1  0.91579335  0.76328008  0.41423479  1
  O  O287  1  0.92082034  0.76598705  0.74508601  1
  O  O288  1  0.25843719  0.48356364  0.08150304  1
  O  O289  1  0.25410168  0.49132918  0.41290041  1
  O  O290  1  0.25033050  0.47909491  0.75137887  1
  O  O291  1  0.23837510  0.98170296  0.08929564  1
  O  O292  1  0.24599760  0.99948973  0.41865309  1
  O  O293  1  0.24449422  0.98310968  0.76270821  1
  O  O294  1  0.58389739  0.47363660  0.08168831  1
  O  O295  1  0.59009839  0.48416379  0.40406366  1
  O  O296  1  0.58103411  0.49334668  0.75670684  1
  O  O297  1  0.58482255  0.98656092  0.08168530  1
  O  O298  1  0.58056893  0.97878684  0.42459714  1
  O  O299  1  0.57831078  0.97460313  0.75418553  1
  O  O300  1  0.91800594  0.48085659  0.07953080  1
  O  O301  1  0.91438889  0.48129956  0.41927425  1
  O  O302  1  0.91329680  0.48042096  0.75364001  1
  O  O303  1  0.91405726  0.97818429  0.09101209  1
  O  O304  1  0.91425461  0.98990556  0.41179039  1
  O  O305  1  0.92128315  0.98923048  0.74246313  1
  O  O306  1  0.07835573  0.26570936  0.07337950  1
  O  O307  1  0.07938947  0.26836870  0.40973055  1
  O  O308  1  0.09245618  0.26395034  0.75794103  1
  O  O309  1  0.07746058  0.77803811  0.07911455  1
  O  O310  1  0.07490867  0.76364075  0.40421360  1
  O  O311  1  0.07930811  0.76929337  0.74835782  1
  O  O312  1  0.41928855  0.27391962  0.08407921  1
  O  O313  1  0.41292990  0.26099902  0.41278762  1
  O  O314  1  0.41290046  0.26632232  0.75343505  1
  O  O315  1  0.40572659  0.76357993  0.07353135  1
  O  O316  1  0.41989570  0.75646104  0.41916285  1
  O  O317  1  0.41745701  0.77294109  0.75056554  1
  O  O318  1  0.74868740  0.27079694  0.08106915  1
  O  O319  1  0.75639292  0.26985657  0.41498406  1
  O  O320  1  0.75298616  0.26065576  0.75268352  1
  O  O321  1  0.74559047  0.77003185  0.07708266  1
  O  O322  1  0.73972267  0.76337236  0.40713377  1
  O  O323  1  0.73916134  0.76476581  0.74372297  1
  O  O324  1  0.24982201  0.02583461  0.25376350  1
  O  O325  1  0.25096094  0.01839663  0.58848622  1
  O  O326  1  0.25448792  0.02400706  0.92534678  1
  O  O327  1  0.25338170  0.52594117  0.25013265  1
  O  O328  1  0.25121866  0.50839783  0.58227566  1
  O  O329  1  0.25546086  0.51049820  0.92220866  1
  O  O330  1  0.59669678  0.00870662  0.26044684  1
  O  O331  1  0.59190518  0.01862653  0.59775500  1
  O  O332  1  0.57940065  0.01500835  0.91097206  1
  O  O333  1  0.57888347  0.52256681  0.24460502  1
  O  O334  1  0.58353368  0.52110958  0.58338691  1
  O  O335  1  0.58551129  0.52253013  0.92122982  1
  O  O336  1  0.92184964  0.02721954  0.25213649  1
  O  O337  1  0.91713118  0.02443095  0.58085441  1
  O  O338  1  0.92102917  0.02444622  0.91820168  1
  O  O339  1  0.92559485  0.51101683  0.25986853  1
  O  O340  1  0.92136893  0.51720110  0.58908776  1
  O  O341  1  0.90925026  0.50915279  0.91028068  1
  O  O342  1  0.08430126  0.22799131  0.24600436  1
  O  O343  1  0.08368039  0.22669639  0.58511110  1
  O  O344  1  0.08417798  0.22552656  0.91622267  1
  O  O345  1  0.09382285  0.73460775  0.23990013  1
  O  O346  1  0.07930902  0.73765049  0.58437583  1
  O  O347  1  0.08552629  0.74768212  0.91557948  1
  O  O348  1  0.41069651  0.23512444  0.25420483  1
  O  O349  1  0.41036770  0.23754162  0.59252034  1
  O  O350  1  0.41266444  0.23209665  0.91684077  1
  O  O351  1  0.41991393  0.72727754  0.25026531  1
  O  O352  1  0.42572780  0.73952354  0.57942147  1
  O  O353  1  0.42468570  0.73138312  0.91362924  1
  O  O354  1  0.75409406  0.23364939  0.25318165  1
  O  O355  1  0.75339530  0.22543547  0.58073497  1
  O  O356  1  0.75801344  0.23443784  0.91174846  1
  O  O357  1  0.74924195  0.73923990  0.24688034  1
  O  O358  1  0.74538871  0.73529361  0.58600997  1
  O  O359  1  0.74815101  0.72907018  0.91159809  1
