# generated using pymatgen
data_Ba17Sr5La8Pr42Mn72O216
_symmetry_space_group_name_H-M   'P 1'
_cell_length_a   16.67309742
_cell_length_b   15.70902120
_cell_length_c   16.81544326
_cell_angle_alpha   90.00879839
_cell_angle_beta   89.98691184
_cell_angle_gamma   90.02047437
_symmetry_Int_Tables_number   1
_chemical_formula_structural   Ba17Sr5La8Pr42Mn72O216
_chemical_formula_sum   'Ba17 Sr5 La8 Pr42 Mn72 O216'
_cell_volume   4404.26750610
_cell_formula_units_Z   1
loop_
 _symmetry_equiv_pos_site_id
 _symmetry_equiv_pos_as_xyz
  1  'x, y, z'
loop_
 _atom_site_type_symbol
 _atom_site_label
 _atom_site_symmetry_multiplicity
 _atom_site_fract_x
 _atom_site_fract_y
 _atom_site_fract_z
 _atom_site_occupancy
  Ba  Ba0  1  0.66782377  0.87716911  0.00106015  1
  Ba  Ba1  1  0.83378514  0.87443759  0.16414592  1
  Ba  Ba2  1  0.66733907  0.12591804  0.99775327  1
  Ba  Ba3  1  0.49972344  0.62368526  0.50381735  1
  Ba  Ba4  1  0.50049207  0.12669289  0.50280242  1
  Ba  Ba5  1  0.66687385  0.62325844  0.66509739  1
  Ba  Ba6  1  0.16758473  0.12494562  0.16853034  1
  Ba  Ba7  1  0.33203903  0.12590339  1.00174173  1
  Ba  Ba8  1  0.33492481  0.62392958  1.00027346  1
  Ba  Ba9  1  0.49959729  0.62381274  0.17051022  1
  Ba  Ba10  1  -0.00074410  0.87226320  -0.00127489  1
  Ba  Ba11  1  -0.00038709  0.62397813  0.99718760  1
  Ba  Ba12  1  0.83552642  0.87375604  0.49743153  1
  Ba  Ba13  1  0.33194458  0.62525528  0.66642128  1
  Ba  Ba14  1  0.83344041  0.12553192  0.83099735  1
  Ba  Ba15  1  0.66689141  0.12624689  0.66605606  1
  Ba  Ba16  1  0.33253356  0.87545737  0.66843772  1
  Sr  Sr17  1  -0.00259154  0.62453305  0.66498802  1
  Sr  Sr18  1  0.83155906  0.87603917  0.83029733  1
  Sr  Sr19  1  0.49891179  0.62711359  0.83714850  1
  Sr  Sr20  1  0.49838360  0.12419471  0.83704178  1
  Sr  Sr21  1  0.83468032  0.62660940  0.50295609  1
  La  La22  1  0.66500973  0.87206064  0.33566691  1
  La  La23  1  0.67759236  0.12654746  0.33110846  1
  La  La24  1  0.16841344  0.37632246  0.83296646  1
  La  La25  1  0.16928783  0.87432461  0.16396592  1
  La  La26  1  0.33474871  0.37463745  0.66801273  1
  La  La27  1  0.49651670  0.37261564  0.83735186  1
  La  La28  1  0.16591234  0.62699072  0.83347396  1
  La  La29  1  0.83880831  0.12205895  0.16077579  1
  Pr  Pr30  1  0.33205334  0.12504851  0.66714864  1
  Pr  Pr31  1  0.17178925  0.87226635  0.49948538  1
  Pr  Pr32  1  0.67656087  0.62398222  0.33322432  1
  Pr  Pr33  1  0.49897980  0.37655007  0.50532665  1
  Pr  Pr34  1  0.33298219  0.37634435  0.00098558  1
  Pr  Pr35  1  0.50792034  0.12448553  0.17288716  1
  Pr  Pr36  1  0.83052563  0.37796595  0.15958382  1
  Pr  Pr37  1  0.00669866  0.87503068  0.33698490  1
  Pr  Pr38  1  -0.00120730  0.37538566  0.66797503  1
  Pr  Pr39  1  0.16574255  0.12188942  0.83906652  1
  Pr  Pr40  1  0.83044724  0.37579023  0.82748716  1
  Pr  Pr41  1  0.66175405  0.87377395  0.66962719  1
  Pr  Pr42  1  0.65706566  0.37788952  0.33547851  1
  Pr  Pr43  1  0.16681833  0.37450476  0.16231958  1
  Pr  Pr44  1  0.16331838  0.62450375  0.50433817  1
  Pr  Pr45  1  0.50411528  0.87303603  0.50545178  1
  Pr  Pr46  1  0.34010385  0.87688025  0.33737450  1
  Pr  Pr47  1  0.83101604  0.62963684  0.16123659  1
  Pr  Pr48  1  0.16535252  0.12619373  0.50196101  1
  Pr  Pr49  1  0.00028162  0.12337660  0.33074964  1
  Pr  Pr50  1  -0.00302689  0.37424185  0.00109689  1
  Pr  Pr51  1  0.82894411  0.37892380  0.49480429  1
  Pr  Pr52  1  0.34274824  0.12316363  0.32655119  1
  Pr  Pr53  1  0.50020446  0.87649587  0.16429060  1
  Pr  Pr54  1  -0.00282695  0.87268477  0.67211385  1
  Pr  Pr55  1  0.00117684  0.37335885  0.33587897  1
  Pr  Pr56  1  0.16673015  0.87202902  0.83231208  1
  Pr  Pr57  1  0.33730982  0.87392538  -0.00126290  1
  Pr  Pr58  1  0.32842204  0.62591534  0.32806579  1
  Pr  Pr59  1  0.33240075  0.37326411  0.33533461  1
  Pr  Pr60  1  0.65835752  0.37239347  0.00061994  1
  Pr  Pr61  1  0.65869769  0.37566039  0.66724253  1
  Pr  Pr62  1  0.83639947  0.12588192  0.50376349  1
  Pr  Pr63  1  -0.00740558  0.62392942  0.33124094  1
  Pr  Pr64  1  0.50305181  0.87705966  0.83586110  1
  Pr  Pr65  1  0.49196425  0.37393768  0.16498956  1
  Pr  Pr66  1  -0.00056921  0.12096266  0.99599185  1
  Pr  Pr67  1  -0.00264667  0.12396043  0.66638933  1
  Pr  Pr68  1  0.83252759  0.62815175  0.83156681  1
  Pr  Pr69  1  0.16062512  0.62511622  0.16780980  1
  Pr  Pr70  1  0.66861821  0.62647154  0.99288326  1
  Pr  Pr71  1  0.16731721  0.37861470  0.49946277  1
  Mn  Mn72  1  0.00210851  -0.00000635  0.16737471  1
  Mn  Mn73  1  0.00352722  0.00058605  0.50032587  1
  Mn  Mn74  1  -0.00008812  -0.00085268  0.83127877  1
  Mn  Mn75  1  -0.00095421  0.49911681  0.16763623  1
  Mn  Mn76  1  -0.00017282  0.49903086  0.49968314  1
  Mn  Mn77  1  -0.00021555  0.49895971  0.83096406  1
  Mn  Mn78  1  0.33577285  -0.00139484  0.16829780  1
  Mn  Mn79  1  0.33236866  0.00153867  0.49971344  1
  Mn  Mn80  1  0.33195349  -0.00020528  0.83452818  1
  Mn  Mn81  1  0.32956537  0.49970182  0.16874320  1
  Mn  Mn82  1  0.33158596  0.49790403  0.49899751  1
  Mn  Mn83  1  0.33269840  0.49939261  0.83421198  1
  Mn  Mn84  1  0.66828406  0.00298295  0.16952928  1
  Mn  Mn85  1  0.66782037  -0.00035525  0.49897634  1
  Mn  Mn86  1  0.66605189  -0.00032151  0.83276918  1
  Mn  Mn87  1  0.66713786  0.49831527  0.16626705  1
  Mn  Mn88  1  0.66746197  0.49882813  0.49956263  1
  Mn  Mn89  1  0.66598462  0.49872604  0.83297247  1
  Mn  Mn90  1  -0.00059947  0.25284895  0.16739660  1
  Mn  Mn91  1  0.00084097  0.25159501  0.49960304  1
  Mn  Mn92  1  0.00109620  0.25254823  0.83369237  1
  Mn  Mn93  1  0.00050187  0.74713898  0.16913960  1
  Mn  Mn94  1  0.00255019  0.74931639  0.50081682  1
  Mn  Mn95  1  -0.00118026  0.74899235  0.83024044  1
  Mn  Mn96  1  0.33370688  0.24978322  0.16885492  1
  Mn  Mn97  1  0.32964750  0.24887675  0.50049873  1
  Mn  Mn98  1  0.33153202  0.25006931  0.83378512  1
  Mn  Mn99  1  0.33184590  0.75076736  0.16845426  1
  Mn  Mn100  1  0.33386718  0.75129384  0.49756896  1
  Mn  Mn101  1  0.33321947  0.74973429  0.83487569  1
  Mn  Mn102  1  0.66898722  0.25246621  0.16913869  1
  Mn  Mn103  1  0.66823139  0.25278110  0.49774525  1
  Mn  Mn104  1  0.66591099  0.25211261  0.83371860  1
  Mn  Mn105  1  0.66545759  0.74711438  0.16736704  1
  Mn  Mn106  1  0.66776431  0.75054606  0.50089913  1
  Mn  Mn107  1  0.66600063  0.74988441  0.83194423  1
  Mn  Mn108  1  0.16444515  0.25052494  -0.00080604  1
  Mn  Mn109  1  0.16694765  0.25113975  0.33502316  1
  Mn  Mn110  1  0.16511419  0.24922056  0.66747394  1
  Mn  Mn111  1  0.16848547  0.74983937  0.00021830  1
  Mn  Mn112  1  0.16670196  0.74872547  0.33373024  1
  Mn  Mn113  1  0.16380687  0.74967412  0.66522244  1
  Mn  Mn114  1  0.49787662  0.25050301  0.00270239  1
  Mn  Mn115  1  0.50132041  0.25211426  0.33562462  1
  Mn  Mn116  1  0.49760222  0.25011557  0.66968516  1
  Mn  Mn117  1  0.50126242  0.75022534  0.00193242  1
  Mn  Mn118  1  0.50036811  0.74883660  0.33595011  1
  Mn  Mn119  1  0.49862520  0.75057126  0.66889473  1
  Mn  Mn120  1  0.83431574  0.25381503  -0.00293114  1
  Mn  Mn121  1  0.83558090  0.25284858  0.32993314  1
  Mn  Mn122  1  0.83456563  0.25249133  0.66215519  1
  Mn  Mn123  1  0.83271766  0.74873479  -0.00226017  1
  Mn  Mn124  1  0.83493243  0.74856253  0.33202566  1
  Mn  Mn125  1  0.83411612  0.74979718  0.66446869  1
  Mn  Mn126  1  0.16662399  -0.00135507  0.00036147  1
  Mn  Mn127  1  0.16857340  -0.00022823  0.33532838  1
  Mn  Mn128  1  0.16447670  0.00241531  0.66731984  1
  Mn  Mn129  1  0.16578579  0.49879401  -0.00087905  1
  Mn  Mn130  1  0.16532192  0.49913413  0.33367507  1
  Mn  Mn131  1  0.16460482  0.49797865  0.66558857  1
  Mn  Mn132  1  0.49851250  0.00053739  0.00191286  1
  Mn  Mn133  1  0.50397338  -0.00071852  0.33531340  1
  Mn  Mn134  1  0.49842483  0.00144155  0.66922043  1
  Mn  Mn135  1  0.50088340  0.49946208  0.00207601  1
  Mn  Mn136  1  0.49755150  0.49998246  0.33570084  1
  Mn  Mn137  1  0.49766122  0.49866143  0.67032751  1
  Mn  Mn138  1  0.83418108  -0.00007100  -0.00251867  1
  Mn  Mn139  1  0.83607180  0.00057887  0.33220701  1
  Mn  Mn140  1  0.83357902  -0.00025140  0.66373070  1
  Mn  Mn141  1  0.83228317  0.49834868  -0.00513167  1
  Mn  Mn142  1  0.83446635  0.49847944  0.32830733  1
  Mn  Mn143  1  0.83475340  0.49862738  0.66225168  1
  O  O144  1  0.15641044  0.12587801  0.01230214  1
  O  O145  1  0.15979108  0.12982369  0.35801960  1
  O  O146  1  0.16144387  0.12817468  0.69662073  1
  O  O147  1  0.16684659  0.62229993  0.02307000  1
  O  O148  1  0.17238080  0.62425909  0.36183486  1
  O  O149  1  0.16238892  0.61862652  0.68875910  1
  O  O150  1  0.49748141  0.12831445  0.02681207  1
  O  O151  1  0.49361900  0.12716886  0.34676497  1
  O  O152  1  0.49110815  0.12731057  0.68635103  1
  O  O153  1  0.50693608  0.62244232  0.01249889  1
  O  O154  1  0.48703871  0.62273395  0.34819579  1
  O  O155  1  0.49886185  0.62057753  0.68387020  1
  O  O156  1  0.83973801  0.13333459  0.01668109  1
  O  O157  1  0.83531572  0.13121859  0.35971431  1
  O  O158  1  0.83779381  0.12893258  0.67399852  1
  O  O159  1  0.82510902  0.61900563  0.01739302  1
  O  O160  1  0.83315476  0.62198309  0.35358017  1
  O  O161  1  0.83490340  0.61915710  0.68750035  1
  O  O162  1  0.16819724  0.37505042  0.30581431  1
  O  O163  1  0.16584999  0.37175510  0.64048271  1
  O  O164  1  0.16835753  0.37447957  0.97895663  1
  O  O165  1  0.16049930  0.86930746  0.30749553  1
  O  O166  1  0.15910316  0.88115923  0.64116461  1
  O  O167  1  0.17276101  0.87532859  0.97893139  1
  O  O168  1  0.50280577  0.37634765  0.30828335  1
  O  O169  1  0.49396761  0.37266818  0.65002660  1
  O  O170  1  0.50032802  0.37466678  0.98555840  1
  O  O171  1  0.50454385  0.87401453  0.30819992  1
  O  O172  1  0.50319558  0.87815915  0.64989007  1
  O  O173  1  0.49846841  0.87551768  0.98454375  1
  O  O174  1  0.84435429  0.37530755  0.30124100  1
  O  O175  1  0.84459496  0.37419665  0.63820845  1
  O  O176  1  0.84443610  0.37742623  0.97183009  1
  O  O177  1  0.83751565  0.87119590  0.32055172  1
  O  O178  1  0.84353962  0.87727329  0.65465542  1
  O  O179  1  0.83472883  0.86985183  0.98674910  1
  O  O180  1  -0.00318139  0.37680141  0.19342981  1
  O  O181  1  0.00083861  0.37369456  0.52480175  1
  O  O182  1  -0.00366445  0.37501116  0.85736078  1
  O  O183  1  0.00392167  0.86778794  0.19320334  1
  O  O184  1  0.00899918  0.87839859  0.52575729  1
  O  O185  1  -0.00207091  0.87504479  0.84003500  1
  O  O186  1  0.32724646  0.37485618  0.19112620  1
  O  O187  1  0.32279266  0.37076206  0.52482152  1
  O  O188  1  0.32627403  0.37428888  0.85591677  1
  O  O189  1  0.33090752  0.87492704  0.19401273  1
  O  O190  1  0.32865937  0.87745463  0.51200567  1
  O  O191  1  0.32116371  0.87504600  0.85268824  1
  O  O192  1  0.67775867  0.37544671  0.19465408  1
  O  O193  1  0.67572440  0.37472342  0.51978380  1
  O  O194  1  0.67223944  0.37734445  0.85541686  1
  O  O195  1  0.66166638  0.87882014  0.19126873  1
  O  O196  1  0.66563148  0.87581247  0.52006955  1
  O  O197  1  0.66143241  0.87413891  0.84248578  1
  O  O198  1  -0.00145388  0.13489311  0.14096405  1
  O  O199  1  0.00254399  0.12903499  0.47218263  1
  O  O200  1  0.01003153  0.12855622  0.81053721  1
  O  O201  1  0.00865680  0.62144892  0.15342768  1
  O  O202  1  0.01018575  0.62007380  0.47336948  1
  O  O203  1  0.00695182  0.62141129  0.81333718  1
  O  O204  1  0.34397066  0.12404901  0.15946151  1
  O  O205  1  0.32576077  0.12710190  0.46975987  1
  O  O206  1  0.32991403  0.12655843  0.81156939  1
  O  O207  1  0.32758791  0.62449428  0.15719067  1
  O  O208  1  0.32803961  0.62377559  0.47321537  1
  O  O209  1  0.33334090  0.62332344  0.82373378  1
  O  O210  1  0.66024795  0.13059444  0.15622239  1
  O  O211  1  0.67209572  0.12941284  0.47607281  1
  O  O212  1  0.66185256  0.12898590  0.82327273  1
  O  O213  1  0.66960468  0.61610577  0.13867881  1
  O  O214  1  0.66724098  0.62115444  0.47759080  1
  O  O215  1  0.66593154  0.62221455  0.82118050  1
  O  O216  1  0.07814025  0.01335031  0.26028068  1
  O  O217  1  0.08124343  0.02996582  0.58537366  1
  O  O218  1  0.08170611  0.01540267  0.91540970  1
  O  O219  1  0.08048179  0.51865507  0.25787628  1
  O  O220  1  0.08370141  0.51371239  0.58083905  1
  O  O221  1  0.08534836  0.50765745  0.91163356  1
  O  O222  1  0.42646822  0.01298319  0.24736600  1
  O  O223  1  0.40870978  0.01719582  0.58989229  1
  O  O224  1  0.41116043  0.00335076  0.92106113  1
  O  O225  1  0.40460162  0.50683064  0.25840794  1
  O  O226  1  0.41193196  0.50035712  0.58421795  1
  O  O227  1  0.42079503  0.50034810  0.91785865  1
  O  O228  1  0.75429697  0.02350077  0.24758693  1
  O  O229  1  0.75692350  0.01571577  0.57304388  1
  O  O230  1  0.75124923  0.00435766  0.91234985  1
  O  O231  1  0.75498325  0.52225469  0.24192429  1
  O  O232  1  0.75649037  0.50754728  0.57444305  1
  O  O233  1  0.75262178  0.51932040  0.90986721  1
  O  O234  1  0.26106798  0.23462924  0.26331890  1
  O  O235  1  0.24618930  0.22225160  0.58524125  1
  O  O236  1  0.24353910  0.23610647  0.90815653  1
  O  O237  1  0.23971455  0.72857958  0.24467417  1
  O  O238  1  0.24174853  0.73813833  0.57065269  1
  O  O239  1  0.24598369  0.73573138  0.91239621  1
  O  O240  1  0.59136005  0.23632405  0.26224091  1
  O  O241  1  0.58362452  0.25097778  0.58727006  1
  O  O242  1  0.58128812  0.24938130  0.92198643  1
  O  O243  1  0.59091776  0.73045212  0.26409805  1
  O  O244  1  0.58406474  0.74874910  0.58592160  1
  O  O245  1  0.58713363  0.73562965  0.92047194  1
  O  O246  1  0.92125098  0.22631441  0.25315679  1
  O  O247  1  0.92320009  0.22848767  0.58353175  1
  O  O248  1  0.92831143  0.23661380  0.92587117  1
  O  O249  1  0.91462125  0.72430537  0.24719893  1
  O  O250  1  0.91986275  0.73658413  0.57996307  1
  O  O251  1  0.91151858  0.73269501  0.90771032  1
  O  O252  1  0.08353909  0.47658383  0.08754823  1
  O  O253  1  0.08561865  0.47399940  0.41748862  1
  O  O254  1  0.08229668  0.47328275  0.74892723  1
  O  O255  1  0.08938545  0.98268137  0.09107996  1
  O  O256  1  0.08982012  0.97845820  0.42377552  1
  O  O257  1  0.08384136  0.97877706  0.74968283  1
  O  O258  1  0.41399484  0.47891846  0.08680464  1
  O  O259  1  0.41476777  0.47057113  0.42138210  1
  O  O260  1  0.41498720  0.47706611  0.75278028  1
  O  O261  1  0.41453358  0.97445834  0.08575272  1
  O  O262  1  0.41884425  0.98162805  0.41289199  1
  O  O263  1  0.42163543  0.98455874  0.76079898  1
  O  O264  1  0.74646035  0.47311975  0.07565938  1
  O  O265  1  0.74799105  0.47784151  0.40431269  1
  O  O266  1  0.74942466  0.47535999  0.74388423  1
  O  O267  1  0.75111265  1.00070136  0.08690714  1
  O  O268  1  0.74380760  0.98878823  0.40668110  1
  O  O269  1  0.74752152  0.98446263  0.74117499  1
  O  O270  1  0.24650249  0.26844125  0.08450333  1
  O  O271  1  0.24430009  0.27444876  0.42059129  1
  O  O272  1  0.25050749  0.27023698  0.74533013  1
  O  O273  1  0.25509227  0.77280872  0.08281992  1
  O  O274  1  0.25665222  0.77086752  0.40438357  1
  O  O275  1  0.24076133  0.76044915  0.75276058  1
  O  O276  1  0.57843186  0.27244950  0.09465609  1
  O  O277  1  0.57905517  0.27589675  0.42172079  1
  O  O278  1  0.58138627  0.27367605  0.75315909  1
  O  O279  1  0.57740328  0.76531520  0.09442728  1
  O  O280  1  0.58153321  0.77110294  0.42105848  1
  O  O281  1  0.58087292  0.76928473  0.75231776  1
  O  O282  1  0.91268399  0.27640993  0.08731588  1
  O  O283  1  0.91348161  0.27525782  0.41649075  1
  O  O284  1  0.91656908  0.27088825  0.75148124  1
  O  O285  1  0.91608473  0.74883766  0.08518955  1
  O  O286  1  0.93057198  0.75960322  0.40776861  1
  O  O287  1  0.91814463  0.75839138  0.74603805  1
  O  O288  1  0.24993571  0.47612132  0.08354780  1
  O  O289  1  0.25183088  0.47544364  0.41056802  1
  O  O290  1  0.24852847  0.47810332  0.74563729  1
  O  O291  1  0.25267135  0.98105779  0.08427217  1
  O  O292  1  0.24956464  0.97854319  0.41600098  1
  O  O293  1  0.24401672  0.99034898  0.75191683  1
  O  O294  1  0.58026398  0.47148580  0.09224101  1
  O  O295  1  0.58023960  0.47652201  0.42273559  1
  O  O296  1  0.58082673  0.47546111  0.75557709  1
  O  O297  1  0.57484997  0.99151320  0.09758108  1
  O  O298  1  0.58182231  0.97653487  0.41933818  1
  O  O299  1  0.58293636  0.98167615  0.74914672  1
  O  O300  1  0.91492051  0.48020173  0.08064643  1
  O  O301  1  0.91892150  0.47793208  0.41216656  1
  O  O302  1  0.91744240  0.47662873  0.74626618  1
  O  O303  1  0.92142308  0.99965772  0.08177675  1
  O  O304  1  0.92970322  0.98850701  0.40863130  1
  O  O305  1  0.92396897  0.99376543  0.74081034  1
  O  O306  1  0.07922805  0.27790149  0.08404504  1
  O  O307  1  0.08277137  0.27568275  0.41796606  1
  O  O308  1  0.08221591  0.27654133  0.74905611  1
  O  O309  1  0.09298163  0.76116008  0.09563882  1
  O  O310  1  0.09230704  0.77243101  0.42184436  1
  O  O311  1  0.08121305  0.77061923  0.74737311  1
  O  O312  1  0.41162288  0.27588459  0.08266974  1
  O  O313  1  0.41352387  0.27292927  0.41466367  1
  O  O314  1  0.41412355  0.27102857  0.75369313  1
  O  O315  1  0.41650159  0.77116158  0.08887742  1
  O  O316  1  0.42083633  0.77524353  0.41917031  1
  O  O317  1  0.42051539  0.76539831  0.75905858  1
  O  O318  1  0.74871708  0.27472316  0.07661229  1
  O  O319  1  0.74737866  0.27600276  0.40257775  1
  O  O320  1  0.74927963  0.27440626  0.73937962  1
  O  O321  1  0.74762900  0.75065811  0.08017303  1
  O  O322  1  0.74340731  0.75921821  0.40670050  1
  O  O323  1  0.74702084  0.76481267  0.74636519  1
  O  O324  1  0.26019027  0.01377008  0.25858362  1
  O  O325  1  0.24415629  0.02653160  0.58464005  1
  O  O326  1  0.24317181  0.01479020  0.91174279  1
  O  O327  1  0.24180873  0.52098544  0.24753133  1
  O  O328  1  0.24153380  0.51331974  0.57212508  1
  O  O329  1  0.24492427  0.51129929  0.91026179  1
  O  O330  1  0.59072320  0.02243281  0.25946315  1
  O  O331  1  0.58324126  0.00536479  0.58338447  1
  O  O332  1  0.57555823  0.00836676  0.91533516  1
  O  O333  1  0.59332770  0.51398429  0.26110714  1
  O  O334  1  0.58228801  0.49550598  0.58842626  1
  O  O335  1  0.59176213  0.50663893  0.92813254  1
  O  O336  1  0.91796792  0.02398332  0.24739028  1
  O  O337  1  0.91950234  0.02278482  0.57760990  1
  O  O338  1  0.92214824  0.01540066  0.91604485  1
  O  O339  1  0.91463331  0.52395448  0.24609948  1
  O  O340  1  0.91851178  0.51513305  0.57866780  1
  O  O341  1  0.91064861  0.51761824  0.90445416  1
  O  O342  1  0.08110662  0.23934579  0.25519483  1
  O  O343  1  0.08493850  0.22719619  0.58472484  1
  O  O344  1  0.08368306  0.23479659  0.91449439  1
  O  O345  1  0.07863454  0.72416229  0.26157970  1
  O  O346  1  0.08359294  0.72927303  0.58217757  1
  O  O347  1  0.08724455  0.74034973  0.90839665  1
  O  O348  1  0.42693236  0.23837142  0.24643029  1
  O  O349  1  0.40697704  0.23780036  0.58988830  1
  O  O350  1  0.41580150  0.24553253  0.91590934  1
  O  O351  1  0.40575488  0.74053680  0.26056865  1
  O  O352  1  0.41677616  0.74593859  0.58284931  1
  O  O353  1  0.41671780  0.74973769  0.92077547  1
  O  O354  1  0.76022777  0.22912127  0.24228732  1
  O  O355  1  0.76222826  0.24066362  0.56690911  1
  O  O356  1  0.75636593  0.24953693  0.91095840  1
  O  O357  1  0.75121308  0.72615300  0.24584470  1
  O  O358  1  0.75283466  0.74004539  0.57918526  1
  O  O359  1  0.75071135  0.72935258  0.91226083  1
