# generated using pymatgen
data_Ba17Sr5La8Pr42Mn72O216
_symmetry_space_group_name_H-M   'P 1'
_cell_length_a   16.67295353
_cell_length_b   15.70377613
_cell_length_c   16.81736125
_cell_angle_alpha   90.00935712
_cell_angle_beta   89.99065686
_cell_angle_gamma   90.01624580
_symmetry_Int_Tables_number   1
_chemical_formula_structural   Ba17Sr5La8Pr42Mn72O216
_chemical_formula_sum   'Ba17 Sr5 La8 Pr42 Mn72 O216'
_cell_volume   4403.26131165
_cell_formula_units_Z   1
loop_
 _symmetry_equiv_pos_site_id
 _symmetry_equiv_pos_as_xyz
  1  'x, y, z'
loop_
 _atom_site_type_symbol
 _atom_site_label
 _atom_site_symmetry_multiplicity
 _atom_site_fract_x
 _atom_site_fract_y
 _atom_site_fract_z
 _atom_site_occupancy
  Ba  Ba0  1  0.83380385  0.62419591  0.83607337  1
  Ba  Ba1  1  0.50348766  0.87513159  0.16664599  1
  Ba  Ba2  1  0.66742855  0.87467940  0.00299602  1
  Ba  Ba3  1  -0.00209549  0.12609942  0.33368583  1
  Ba  Ba4  1  0.49755909  0.62388294  0.83341762  1
  Ba  Ba5  1  0.33189167  0.12530030  0.99577558  1
  Ba  Ba6  1  0.49906198  0.37523036  0.49820445  1
  Ba  Ba7  1  0.00333553  0.87372335  -0.00006372  1
  Ba  Ba8  1  0.66776406  0.12519886  0.66681984  1
  Ba  Ba9  1  -0.00026062  0.37653692  0.33769657  1
  Ba  Ba10  1  0.83528121  0.87366897  0.50112754  1
  Ba  Ba11  1  0.66796547  0.87626052  0.66801113  1
  Ba  Ba12  1  0.16569691  0.12538509  0.50013305  1
  Ba  Ba13  1  0.16758781  0.87279407  0.16477177  1
  Ba  Ba14  1  0.66390105  0.37518655  0.00153403  1
  Ba  Ba15  1  0.83710299  0.87321170  0.83465145  1
  Ba  Ba16  1  0.49926626  0.12784451  0.50100674  1
  Sr  Sr17  1  0.33209234  0.12528494  0.66031882  1
  Sr  Sr18  1  0.49610238  0.37450157  0.83024550  1
  Sr  Sr19  1  0.17142234  0.87514074  0.49782076  1
  Sr  Sr20  1  0.82839871  0.62183315  0.16663240  1
  Sr  Sr21  1  0.16674320  0.37433358  0.49775605  1
  La  La22  1  -0.00098266  0.12418405  1.00218180  1
  La  La23  1  0.33359348  0.37040132  0.66201984  1
  La  La24  1  0.00668762  0.87459851  0.67172810  1
  La  La25  1  0.49640007  0.37378615  0.16415306  1
  La  La26  1  0.83596905  0.37514473  0.16801448  1
  La  La27  1  0.16471848  0.12208724  0.17048697  1
  La  La28  1  0.49749819  0.62740558  0.50472751  1
  La  La29  1  0.66533773  0.62483083  0.33539930  1
  Pr  Pr30  1  -0.00862878  0.62617868  0.33455070  1
  Pr  Pr31  1  0.50140141  0.87841829  0.83122429  1
  Pr  Pr32  1  0.15618458  0.62306417  0.50236599  1
  Pr  Pr33  1  0.83155765  0.37219845  0.50058882  1
  Pr  Pr34  1  0.66655675  0.37732357  0.33748091  1
  Pr  Pr35  1  0.17113186  0.37400489  0.83028514  1
  Pr  Pr36  1  0.50210695  0.62625017  0.16479217  1
  Pr  Pr37  1  0.33902410  0.87767401  0.66072136  1
  Pr  Pr38  1  0.33457387  0.37713346  -0.00339920  1
  Pr  Pr39  1  0.32725510  0.37268756  0.33451741  1
  Pr  Pr40  1  0.66740507  0.12485778  0.33835470  1
  Pr  Pr41  1  0.66991060  0.62620454  0.66805581  1
  Pr  Pr42  1  0.50072770  0.12396996  0.16756926  1
  Pr  Pr43  1  0.16360488  0.12612304  0.83248764  1
  Pr  Pr44  1  0.33181489  0.62354551  0.32719958  1
  Pr  Pr45  1  0.83243877  0.62132285  0.50606027  1
  Pr  Pr46  1  0.16672201  0.37396894  0.16437287  1
  Pr  Pr47  1  0.15852136  0.62544679  0.16807376  1
  Pr  Pr48  1  0.66289746  0.12359609  0.99845578  1
  Pr  Pr49  1  0.00454171  0.37426719  0.66937353  1
  Pr  Pr50  1  0.33053279  0.62249230  0.65950038  1
  Pr  Pr51  1  -0.00673019  0.62513529  0.66796769  1
  Pr  Pr52  1  0.00013277  0.38197939  0.00563602  1
  Pr  Pr53  1  0.50546098  0.88134304  0.49629167  1
  Pr  Pr54  1  0.34078485  0.87697448  0.33396823  1
  Pr  Pr55  1  0.17490300  0.87518154  0.82951108  1
  Pr  Pr56  1  0.33781764  0.87378386  0.00042541  1
  Pr  Pr57  1  0.83770365  0.87463739  0.16193709  1
  Pr  Pr58  1  -0.00122951  0.12298560  0.66279151  1
  Pr  Pr59  1  0.33311205  0.12568065  0.32862618  1
  Pr  Pr60  1  0.66857061  0.87395043  0.33897194  1
  Pr  Pr61  1  0.00938457  0.87400826  0.33692853  1
  Pr  Pr62  1  0.33044149  0.62797806  0.99297218  1
  Pr  Pr63  1  -0.00634895  0.62772288  1.00125994  1
  Pr  Pr64  1  0.16264147  0.62321651  0.83414521  1
  Pr  Pr65  1  0.83199437  0.37516055  0.83104379  1
  Pr  Pr66  1  0.82784856  0.12292368  0.83745217  1
  Pr  Pr67  1  0.66666563  0.62723717  0.99853841  1
  Pr  Pr68  1  0.65974264  0.37253370  0.67519668  1
  Pr  Pr69  1  0.50182418  0.12623852  0.83186939  1
  Pr  Pr70  1  0.82720257  0.12639492  0.16916768  1
  Pr  Pr71  1  0.83532410  0.12701297  0.50419716  1
  Mn  Mn72  1  -0.00062516  0.00116070  0.16745511  1
  Mn  Mn73  1  0.00084990  -0.00205610  0.50097090  1
  Mn  Mn74  1  0.00399495  0.00300840  0.83254082  1
  Mn  Mn75  1  -0.00106903  0.50076493  0.16995835  1
  Mn  Mn76  1  -0.00130133  0.49971610  0.50285601  1
  Mn  Mn77  1  0.00174410  0.49736087  0.83732777  1
  Mn  Mn78  1  0.33303859  -0.00098132  0.16334775  1
  Mn  Mn79  1  0.33332018  -0.00074257  0.49769666  1
  Mn  Mn80  1  0.33306514  0.00063486  0.82859062  1
  Mn  Mn81  1  0.33250732  0.50120367  0.16312246  1
  Mn  Mn82  1  0.33150041  0.50136217  0.49424555  1
  Mn  Mn83  1  0.33160240  0.49977633  0.82930524  1
  Mn  Mn84  1  0.66841958  0.00234818  0.16925172  1
  Mn  Mn85  1  0.66909084  0.00066640  0.50025982  1
  Mn  Mn86  1  0.66651847  0.00084848  0.83481547  1
  Mn  Mn87  1  0.66447744  0.49961211  0.16987289  1
  Mn  Mn88  1  0.66671446  0.50020350  0.50249286  1
  Mn  Mn89  1  0.66546964  0.50000836  0.83525196  1
  Mn  Mn90  1  0.00013889  0.25321541  0.16521756  1
  Mn  Mn91  1  0.00004434  0.25040998  0.50264482  1
  Mn  Mn92  1  0.00068432  0.25086838  0.83521010  1
  Mn  Mn93  1  -0.00250915  0.74617495  0.16951566  1
  Mn  Mn94  1  0.00055506  0.74999388  0.50142175  1
  Mn  Mn95  1  0.00485805  0.74790740  0.83441656  1
  Mn  Mn96  1  0.33293939  0.25148959  0.16355884  1
  Mn  Mn97  1  0.33139161  0.25141350  0.49739634  1
  Mn  Mn98  1  0.33272135  0.24925896  0.82946523  1
  Mn  Mn99  1  0.33344387  0.74707054  0.16319897  1
  Mn  Mn100  1  0.33310926  0.74885115  0.49538309  1
  Mn  Mn101  1  0.33213693  0.75081018  0.82874724  1
  Mn  Mn102  1  0.66550562  0.25029599  0.16990215  1
  Mn  Mn103  1  0.66792156  0.25278937  0.50273018  1
  Mn  Mn104  1  0.66559618  0.25054222  0.83579888  1
  Mn  Mn105  1  0.66845700  0.74723706  0.16972872  1
  Mn  Mn106  1  0.66691971  0.74802778  0.50016662  1
  Mn  Mn107  1  0.66517973  0.74927641  0.83400539  1
  Mn  Mn108  1  0.16508153  0.25200619  -0.00122245  1
  Mn  Mn109  1  0.16680028  0.25070142  0.33204704  1
  Mn  Mn110  1  0.16682910  0.25169066  0.66643053  1
  Mn  Mn111  1  0.16798801  0.74725585  -0.00182209  1
  Mn  Mn112  1  0.16896632  0.74751428  0.33470404  1
  Mn  Mn113  1  0.16858427  0.74762297  0.66568093  1
  Mn  Mn114  1  0.49764564  0.25067371  -0.00115517  1
  Mn  Mn115  1  0.50038031  0.24982084  0.32933480  1
  Mn  Mn116  1  0.49787194  0.25101734  0.66722870  1
  Mn  Mn117  1  0.49871355  0.74861695  -0.00002792  1
  Mn  Mn118  1  0.49978651  0.74786343  0.33512054  1
  Mn  Mn119  1  0.49849439  0.74902385  0.66659076  1
  Mn  Mn120  1  0.83443029  0.25145737  0.00073160  1
  Mn  Mn121  1  0.83049654  0.25043826  0.33537640  1
  Mn  Mn122  1  0.83651166  0.25224897  0.66836087  1
  Mn  Mn123  1  0.83316221  0.74962407  0.00319501  1
  Mn  Mn124  1  0.83247091  0.74940011  0.33190915  1
  Mn  Mn125  1  0.83502024  0.74925864  0.66779871  1
  Mn  Mn126  1  0.16712850  0.00158879  -0.00189072  1
  Mn  Mn127  1  0.16816445  -0.00154252  0.33264037  1
  Mn  Mn128  1  0.16871930  -0.00126354  0.66624771  1
  Mn  Mn129  1  0.16790587  0.50003065  -0.00001785  1
  Mn  Mn130  1  0.16647151  0.50269791  0.33360000  1
  Mn  Mn131  1  0.16651636  0.49985243  0.66601091  1
  Mn  Mn132  1  0.49928508  0.00191116  -0.00113366  1
  Mn  Mn133  1  0.50096018  0.00174186  0.33199345  1
  Mn  Mn134  1  0.49838502  -0.00011325  0.66507136  1
  Mn  Mn135  1  0.49699159  0.49914417  0.00061626  1
  Mn  Mn136  1  0.49860118  0.50125257  0.33140583  1
  Mn  Mn137  1  0.49902820  0.50149981  0.66623376  1
  Mn  Mn138  1  0.83441679  0.00209042  0.00319318  1
  Mn  Mn139  1  0.83292182  -0.00125678  0.33172960  1
  Mn  Mn140  1  0.83731733  0.00064890  0.66867997  1
  Mn  Mn141  1  0.83220527  0.49838214  0.00205939  1
  Mn  Mn142  1  0.83080213  0.50039512  0.33710675  1
  Mn  Mn143  1  0.83365357  0.49732417  0.66815317  1
  O  O144  1  0.16472709  0.13366504  0.02613626  1
  O  O145  1  0.17398126  0.12449838  0.33937670  1
  O  O146  1  0.16594319  0.12800011  0.68880902  1
  O  O147  1  0.17976568  0.62076810  0.02532115  1
  O  O148  1  0.17704194  0.62512130  0.35923536  1
  O  O149  1  0.17618985  0.62255385  0.69121081  1
  O  O150  1  0.50061481  0.12722386  0.02216660  1
  O  O151  1  0.48828809  0.12580599  0.34411285  1
  O  O152  1  0.49174975  0.12591314  0.68628192  1
  O  O153  1  0.48870677  0.62216447  0.02082852  1
  O  O154  1  0.49358672  0.62655868  0.36093396  1
  O  O155  1  0.48840899  0.62575419  0.67756364  1
  O  O156  1  0.83299422  0.12935094  0.02477213  1
  O  O157  1  0.82654599  0.12700725  0.35996581  1
  O  O158  1  0.84430558  0.13120222  0.69297880  1
  O  O159  1  0.83215646  0.62195548  0.01677827  1
  O  O160  1  0.83391866  0.62460904  0.36243360  1
  O  O161  1  0.83412792  0.62126762  0.67981849  1
  O  O162  1  0.17181189  0.37940960  0.30862557  1
  O  O163  1  0.16062800  0.37922301  0.64581368  1
  O  O164  1  0.16270808  0.37712241  0.97237807  1
  O  O165  1  0.16218068  0.87057540  0.32216556  1
  O  O166  1  0.15813906  0.86856827  0.64811431  1
  O  O167  1  0.17003392  0.87015441  0.97380350  1
  O  O168  1  0.50910912  0.37402536  0.30733077  1
  O  O169  1  0.50625318  0.37888152  0.65639496  1
  O  O170  1  0.49395811  0.37450111  0.98045776  1
  O  O171  1  0.50648512  0.87418534  0.32222601  1
  O  O172  1  0.49560408  0.87006835  0.64070765  1
  O  O173  1  0.49491340  0.87612326  0.97662330  1
  O  O174  1  0.82462413  0.37479024  0.31213325  1
  O  O175  1  0.83957938  0.37608278  0.64280664  1
  O  O176  1  0.84095900  0.37354152  0.97535211  1
  O  O177  1  0.82412762  0.87215992  0.30550641  1
  O  O178  1  0.84447003  0.87181377  0.66018507  1
  O  O179  1  0.83493484  0.87650284  0.99492322  1
  O  O180  1  0.00092073  0.37774703  0.18168263  1
  O  O181  1  -0.00518096  0.37694697  0.52478715  1
  O  O182  1  0.00266853  0.37387440  0.86426400  1
  O  O183  1  -0.00951796  0.86827894  0.19112984  1
  O  O184  1  0.00364211  0.87130091  0.52494065  1
  O  O185  1  0.01106004  0.87323458  0.84162016  1
  O  O186  1  0.33207635  0.37916761  0.19173473  1
  O  O187  1  0.32824768  0.38020367  0.51609129  1
  O  O188  1  0.32693742  0.37585037  0.85376743  1
  O  O189  1  0.33312369  0.87112578  0.18902342  1
  O  O190  1  0.33218226  0.87045858  0.51707879  1
  O  O191  1  0.32718033  0.87530494  0.85744308  1
  O  O192  1  0.65796259  0.37431270  0.19477943  1
  O  O193  1  0.67293872  0.37897575  0.52902852  1
  O  O194  1  0.66820320  0.37363415  0.84328575  1
  O  O195  1  0.67277677  0.87565206  0.19367509  1
  O  O196  1  0.65772892  0.87264966  0.50820381  1
  O  O197  1  0.65727076  0.87739065  0.84425587  1
  O  O198  1  0.00146428  0.13343502  0.14804008  1
  O  O199  1  -0.00597478  0.12460150  0.49112539  1
  O  O200  1  0.00821252  0.13129899  0.80511524  1
  O  O201  1  0.00352486  0.62086206  0.14628353  1
  O  O202  1  -0.00314938  0.62542953  0.47942124  1
  O  O203  1  0.00820307  0.61948217  0.81086164  1
  O  O204  1  0.33428975  0.12610145  0.15380998  1
  O  O205  1  0.33315398  0.12430047  0.47610432  1
  O  O206  1  0.33145845  0.12392527  0.80946247  1
  O  O207  1  0.33816799  0.62207229  0.13550653  1
  O  O208  1  0.34161061  0.62510756  0.47092466  1
  O  O209  1  0.32583932  0.62502773  0.80423591  1
  O  O210  1  0.67396444  0.12982040  0.14197683  1
  O  O211  1  0.67717077  0.12770544  0.48283667  1
  O  O212  1  0.66929584  0.12708909  0.82451537  1
  O  O213  1  0.66588022  0.61986394  0.14346155  1
  O  O214  1  0.67367734  0.62310488  0.47865738  1
  O  O215  1  0.66731869  0.62281662  0.81431372  1
  O  O216  1  0.08101944  0.00730334  0.25226063  1
  O  O217  1  0.07610504  0.01132798  0.59860659  1
  O  O218  1  0.07918746  0.02607105  0.92095885  1
  O  O219  1  0.08228277  0.52593491  0.25613340  1
  O  O220  1  0.07889433  0.52371452  0.59017415  1
  O  O221  1  0.08313664  0.52487740  0.92408810  1
  O  O222  1  0.41339802  0.01399155  0.25174252  1
  O  O223  1  0.41219707  0.00496107  0.58331260  1
  O  O224  1  0.42124811  0.01343262  0.90447158  1
  O  O225  1  0.41545235  0.52317444  0.24163850  1
  O  O226  1  0.41264227  0.51755437  0.57788345  1
  O  O227  1  0.40564423  0.51149759  0.92092246  1
  O  O228  1  0.74503076  0.02695401  0.25538551  1
  O  O229  1  0.75541420  0.01251168  0.58102489  1
  O  O230  1  0.74828155  0.02042709  0.92543681  1
  O  O231  1  0.74150366  0.51454263  0.26106560  1
  O  O232  1  0.74810778  0.52096918  0.58561753  1
  O  O233  1  0.74721725  0.51079161  0.92323212  1
  O  O234  1  0.25768942  0.23697733  0.24987024  1
  O  O235  1  0.24966717  0.24449102  0.58657865  1
  O  O236  1  0.24270828  0.23838546  0.90839561  1
  O  O237  1  0.24636058  0.72310964  0.23916082  1
  O  O238  1  0.24533140  0.72501199  0.57281830  1
  O  O239  1  0.24292523  0.72834713  0.90400411  1
  O  O240  1  0.58495452  0.22047786  0.25092164  1
  O  O241  1  0.58848277  0.24648259  0.58783945  1
  O  O242  1  0.58341976  0.22903292  0.92259074  1
  O  O243  1  0.58126916  0.72585506  0.25200097  1
  O  O244  1  0.58385448  0.72571951  0.58424232  1
  O  O245  1  0.58307162  0.73268297  0.92314001  1
  O  O246  1  0.90766258  0.24016338  0.24376040  1
  O  O247  1  0.91864293  0.23176062  0.58834367  1
  O  O248  1  0.91698191  0.22429187  0.91140227  1
  O  O249  1  0.91306434  0.72509055  0.24992347  1
  O  O250  1  0.91367164  0.72719053  0.57926306  1
  O  O251  1  0.92184632  0.73606461  0.92007863  1
  O  O252  1  0.08959705  0.48239170  0.08585628  1
  O  O253  1  0.08493224  0.49460724  0.42554264  1
  O  O254  1  0.08467601  0.47806795  0.75659392  1
  O  O255  1  0.08678305  0.99840952  0.08716180  1
  O  O256  1  0.08610344  0.98293499  0.41971995  1
  O  O257  1  0.09801584  0.98710063  0.76146273  1
  O  O258  1  0.41309068  0.47446045  0.08206595  1
  O  O259  1  0.41029450  0.48156766  0.40376643  1
  O  O260  1  0.41088031  0.48350634  0.74516794  1
  O  O261  1  0.41560061  0.98502423  0.07774428  1
  O  O262  1  0.42089488  0.97830480  0.41712787  1
  O  O263  1  0.41666575  0.97420018  0.74798854  1
  O  O264  1  0.75309188  0.48125038  0.09472503  1
  O  O265  1  0.75102126  0.47718714  0.42277038  1
  O  O266  1  0.75341215  0.47686087  0.74830399  1
  O  O267  1  0.75974841  0.98953122  0.09815525  1
  O  O268  1  0.74809369  0.98360152  0.41064090  1
  O  O269  1  0.75832457  0.99805254  0.75701543  1
  O  O270  1  0.24701038  0.27655108  0.08221085  1
  O  O271  1  0.24922167  0.26746196  0.41214980  1
  O  O272  1  0.24879781  0.27296025  0.74769427  1
  O  O273  1  0.25919561  0.76371469  0.06714750  1
  O  O274  1  0.26404940  0.76492541  0.40169041  1
  O  O275  1  0.25821558  0.77319963  0.73812797  1
  O  O276  1  0.57483850  0.26110608  0.09388446  1
  O  O277  1  0.58808628  0.26082543  0.41040612  1
  O  O278  1  0.57998117  0.26007370  0.75386474  1
  O  O279  1  0.58528250  0.74983349  0.08625816  1
  O  O280  1  0.58358564  0.76128385  0.41749079  1
  O  O281  1  0.57856230  0.76109759  0.75278875  1
  O  O282  1  0.92104135  0.27262920  0.07895938  1
  O  O283  1  0.90682810  0.26337786  0.42558032  1
  O  O284  1  0.91960371  0.27939956  0.75259923  1
  O  O285  1  0.91742053  0.75656567  0.08667738  1
  O  O286  1  0.92615077  0.76556779  0.40476240  1
  O  O287  1  0.93302526  0.75463353  0.74281351  1
  O  O288  1  0.25159787  0.47269471  0.07898219  1
  O  O289  1  0.25224683  0.48267981  0.40947169  1
  O  O290  1  0.25060801  0.47585396  0.74486809  1
  O  O291  1  0.25562991  0.98349235  0.07181559  1
  O  O292  1  0.26077812  0.98442659  0.40436510  1
  O  O293  1  0.25614339  0.97483929  0.74172228  1
  O  O294  1  0.57357345  0.48875865  0.09333186  1
  O  O295  1  0.59143438  0.48791588  0.41367239  1
  O  O296  1  0.58884159  0.49046723  0.74551677  1
  O  O297  1  0.58799507  0.99934541  0.08438858  1
  O  O298  1  0.58765408  0.99080299  0.41160775  1
  O  O299  1  0.57484314  0.99268466  0.75586777  1
  O  O300  1  0.91638043  0.48179169  0.08434882  1
  O  O301  1  0.90957820  0.48693278  0.42679696  1
  O  O302  1  0.91918641  0.47680011  0.75294532  1
  O  O303  1  0.92052067  0.99383615  0.08078797  1
  O  O304  1  0.92232080  0.97957805  0.40382304  1
  O  O305  1  0.93389061  0.99091149  0.74058726  1
  O  O306  1  0.08325638  0.27651886  0.07939639  1
  O  O307  1  0.08159792  0.26098881  0.42105213  1
  O  O308  1  0.08615081  0.27549943  0.75624147  1
  O  O309  1  0.08740697  0.74914863  0.08831529  1
  O  O310  1  0.08919539  0.75874993  0.42612811  1
  O  O311  1  0.09760768  0.75903525  0.76062180  1
  O  O312  1  0.40951390  0.27267690  0.07631891  1
  O  O313  1  0.40968765  0.26531387  0.40132858  1
  O  O314  1  0.41130833  0.27030409  0.74485262  1
  O  O315  1  0.41647962  0.76590740  0.08117168  1
  O  O316  1  0.42200956  0.77409006  0.42067538  1
  O  O317  1  0.41751343  0.77674288  0.75269841  1
  O  O318  1  0.75591742  0.26971363  0.09648749  1
  O  O319  1  0.74656209  0.27539495  0.41720815  1
  O  O320  1  0.75318932  0.27092980  0.74848567  1
  O  O321  1  0.75566554  0.76183054  0.09523046  1
  O  O322  1  0.74639798  0.76406202  0.41192619  1
  O  O323  1  0.75025280  0.75293062  0.74787997  1
  O  O324  1  0.24824380  0.01565669  0.24375586  1
  O  O325  1  0.24856425  0.00438272  0.58091913  1
  O  O326  1  0.24020046  0.01554372  0.90159602  1
  O  O327  1  0.24872645  0.52399022  0.24172010  1
  O  O328  1  0.24803828  0.52430913  0.57541568  1
  O  O329  1  0.24592557  0.51942860  0.91109190  1
  O  O330  1  0.58289844  0.02519722  0.24857880  1
  O  O331  1  0.57999602  0.00611348  0.58114464  1
  O  O332  1  0.58150781  0.02285300  0.91745458  1
  O  O333  1  0.58002303  0.52719839  0.25116651  1
  O  O334  1  0.58383810  0.52513287  0.58202056  1
  O  O335  1  0.58451184  0.51740622  0.92738258  1
  O  O336  1  0.90418925  0.01507493  0.24012013  1
  O  O337  1  0.91322954  0.01936598  0.58017689  1
  O  O338  1  0.91460270  0.02357642  0.90967554  1
  O  O339  1  0.91332835  0.51691662  0.25751769  1
  O  O340  1  0.91703421  0.52041425  0.58669173  1
  O  O341  1  0.92465055  0.51329550  0.92411515  1
  O  O342  1  0.09216962  0.24095809  0.23983067  1
  O  O343  1  0.07630359  0.23974068  0.59541996  1
  O  O344  1  0.08136975  0.22590419  0.91817523  1
  O  O345  1  0.07768595  0.72722117  0.25918222  1
  O  O346  1  0.07871372  0.72227088  0.59392145  1
  O  O347  1  0.08191241  0.72075775  0.92283732  1
  O  O348  1  0.42401514  0.23796220  0.23712405  1
  O  O349  1  0.41398390  0.24697413  0.58405281  1
  O  O350  1  0.42099124  0.23562066  0.90496306  1
  O  O351  1  0.41398467  0.72847275  0.25348956  1
  O  O352  1  0.40886258  0.73072424  0.58383363  1
  O  O353  1  0.40471376  0.73768837  0.91997955  1
  O  O354  1  0.74546621  0.22847889  0.25612675  1
  O  O355  1  0.76156849  0.23859737  0.57821993  1
  O  O356  1  0.75147109  0.23226976  0.91890158  1
  O  O357  1  0.74476653  0.72549590  0.25632950  1
  O  O358  1  0.74878418  0.73008289  0.58226542  1
  O  O359  1  0.74499513  0.73671777  0.92561286  1
