# generated using pymatgen
data_Ba17Sr5La8Pr42Mn72O216
_symmetry_space_group_name_H-M   'P 1'
_cell_length_a   16.67102047
_cell_length_b   15.70144047
_cell_length_c   16.81556697
_cell_angle_alpha   89.99478529
_cell_angle_beta   90.00175366
_cell_angle_gamma   89.98473146
_symmetry_Int_Tables_number   1
_chemical_formula_structural   Ba17Sr5La8Pr42Mn72O216
_chemical_formula_sum   'Ba17 Sr5 La8 Pr42 Mn72 O216'
_cell_volume   4401.62641636
_cell_formula_units_Z   1
loop_
 _symmetry_equiv_pos_site_id
 _symmetry_equiv_pos_as_xyz
  1  'x, y, z'
loop_
 _atom_site_type_symbol
 _atom_site_label
 _atom_site_symmetry_multiplicity
 _atom_site_fract_x
 _atom_site_fract_y
 _atom_site_fract_z
 _atom_site_occupancy
  Ba  Ba0  1  0.33384957  0.87564190  0.67073256  1
  Ba  Ba1  1  0.00418141  0.62549114  0.99599794  1
  Ba  Ba2  1  -0.00228958  0.12445649  0.32781299  1
  Ba  Ba3  1  0.83272784  0.37530862  0.49850368  1
  Ba  Ba4  1  0.67029775  0.87605892  0.66743224  1
  Ba  Ba5  1  0.66757356  0.62608938  0.99925364  1
  Ba  Ba6  1  0.66912185  0.87445410  0.00019213  1
  Ba  Ba7  1  0.16745833  0.62603234  0.16648234  1
  Ba  Ba8  1  0.33512972  0.62710099  0.67143401  1
  Ba  Ba9  1  0.33357988  0.37480294  0.67068394  1
  Ba  Ba10  1  0.65994252  0.12498058  0.33141256  1
  Ba  Ba11  1  0.66772571  0.37548771  0.66739878  1
  Ba  Ba12  1  0.50121794  0.37358854  0.83237860  1
  Ba  Ba13  1  -0.00111841  0.62554149  0.32883983  1
  Ba  Ba14  1  0.00073575  0.37534479  0.66382231  1
  Ba  Ba15  1  0.00147105  0.62564122  0.66357425  1
  Ba  Ba16  1  0.33054832  0.37327949  0.33721999  1
  Sr  Sr17  1  0.33331735  0.12568168  1.00572149  1
  Sr  Sr18  1  0.16721076  0.12380320  0.17249385  1
  Sr  Sr19  1  0.49588424  0.12306468  0.16951306  1
  Sr  Sr20  1  0.16944712  0.62444145  0.83524881  1
  Sr  Sr21  1  0.49817112  0.62454839  0.50199382  1
  La  La22  1  0.50286139  0.62508069  0.16765166  1
  La  La23  1  0.16301317  0.87686250  0.16738493  1
  La  La24  1  0.00298573  0.87421231  -0.00225443  1
  La  La25  1  0.49779575  0.37866373  0.49995188  1
  La  La26  1  0.49803842  0.12414938  0.83400072  1
  La  La27  1  0.67086768  0.37606575  -0.00170835  1
  La  La28  1  0.66452912  0.62223436  0.33172669  1
  La  La29  1  0.82481314  0.12590561  0.50045629  1
  Pr  Pr30  1  0.16841579  0.87107268  0.50076858  1
  Pr  Pr31  1  0.49910282  0.87026977  0.49773899  1
  Pr  Pr32  1  0.50021344  0.87860074  0.16400813  1
  Pr  Pr33  1  0.83988611  0.87116653  0.82905800  1
  Pr  Pr34  1  -0.00243072  0.12370427  0.99698663  1
  Pr  Pr35  1  0.16920684  0.37651083  0.83323344  1
  Pr  Pr36  1  0.16888597  0.87391636  0.83470721  1
  Pr  Pr37  1  0.66444415  0.37488205  0.33792075  1
  Pr  Pr38  1  0.82854777  0.62446123  0.50159357  1
  Pr  Pr39  1  0.50405450  0.62498961  0.83221194  1
  Pr  Pr40  1  0.83041376  0.62801170  0.16639482  1
  Pr  Pr41  1  0.33157783  0.12332648  0.32969392  1
  Pr  Pr42  1  0.33043010  0.37305351  0.00764240  1
  Pr  Pr43  1  0.33228358  0.87578128  0.33792992  1
  Pr  Pr44  1  0.50388869  0.87414452  0.83167976  1
  Pr  Pr45  1  0.33644741  0.62420748  0.33395567  1
  Pr  Pr46  1  0.16291430  0.37843148  0.50019750  1
  Pr  Pr47  1  0.00562717  0.87571640  0.66529117  1
  Pr  Pr48  1  0.49264452  0.12493112  0.50110798  1
  Pr  Pr49  1  0.83950359  0.87406651  0.49456663  1
  Pr  Pr50  1  0.33789856  0.62398384  0.99553162  1
  Pr  Pr51  1  0.83497510  0.62348253  0.83218641  1
  Pr  Pr52  1  0.16781477  0.12640652  0.83889575  1
  Pr  Pr53  1  0.66401508  0.62372699  0.66533782  1
  Pr  Pr54  1  0.65772335  0.12677512  0.66081883  1
  Pr  Pr55  1  0.15853761  0.37337208  0.16910588  1
  Pr  Pr56  1  0.33222984  0.87746605  0.00524892  1
  Pr  Pr57  1  0.16952175  0.62293538  0.50538855  1
  Pr  Pr58  1  0.66068025  0.12451893  0.99990710  1
  Pr  Pr59  1  0.00682153  0.87530667  0.33106395  1
  Pr  Pr60  1  0.49791450  0.36944797  0.16325506  1
  Pr  Pr61  1  0.82701880  0.12676908  0.83147249  1
  Pr  Pr62  1  0.83707807  0.87689860  0.16258731  1
  Pr  Pr63  1  0.83606790  0.37280900  0.16504631  1
  Pr  Pr64  1  0.83682136  0.37965443  0.82446064  1
  Pr  Pr65  1  0.00440317  0.37641374  -0.00325501  1
  Pr  Pr66  1  0.00399755  0.37517564  0.33589218  1
  Pr  Pr67  1  0.16637956  0.12726722  0.50378067  1
  Pr  Pr68  1  0.82569175  0.12243597  0.16854687  1
  Pr  Pr69  1  -0.00274979  0.12572579  0.65855596  1
  Pr  Pr70  1  0.66905019  0.87495037  0.33636654  1
  Pr  Pr71  1  0.33423859  0.12497784  0.67004476  1
  Mn  Mn72  1  -0.00119278  0.00039390  0.16307375  1
  Mn  Mn73  1  -0.00023877  0.00037746  0.49762150  1
  Mn  Mn74  1  0.00067702  0.00236567  0.82989789  1
  Mn  Mn75  1  -0.00275279  0.49841136  0.16477833  1
  Mn  Mn76  1  -0.00041271  0.50133048  0.49554457  1
  Mn  Mn77  1  0.00308620  0.50019919  0.83224013  1
  Mn  Mn78  1  0.33285688  -0.00051158  0.17021493  1
  Mn  Mn79  1  0.33210305  0.00009009  0.50179503  1
  Mn  Mn80  1  0.33380534  0.00175982  0.83851996  1
  Mn  Mn81  1  0.33337846  0.49995580  0.16797283  1
  Mn  Mn82  1  0.33256889  0.49991553  0.50180608  1
  Mn  Mn83  1  0.33540315  0.50036697  0.83813676  1
  Mn  Mn84  1  0.66502777  -0.00134195  0.16671974  1
  Mn  Mn85  1  0.66486981  -0.00173142  0.49973005  1
  Mn  Mn86  1  0.66946253  0.00075589  0.83273399  1
  Mn  Mn87  1  0.66670278  0.49808825  0.16763706  1
  Mn  Mn88  1  0.66371844  0.50154901  0.49832118  1
  Mn  Mn89  1  0.66862723  0.50107596  0.83360679  1
  Mn  Mn90  1  -0.00191957  0.24996183  0.16339723  1
  Mn  Mn91  1  -0.00065956  0.24835263  0.49572570  1
  Mn  Mn92  1  0.00017654  0.24680329  0.83177063  1
  Mn  Mn93  1  -0.00193524  0.75087961  0.16427062  1
  Mn  Mn94  1  0.00024564  0.75134552  0.49659595  1
  Mn  Mn95  1  0.00290723  0.75149289  0.83083683  1
  Mn  Mn96  1  0.33220549  0.24864357  0.17024031  1
  Mn  Mn97  1  0.33130461  0.24788985  0.50280844  1
  Mn  Mn98  1  0.33288248  0.24699767  0.83847462  1
  Mn  Mn99  1  0.33462319  0.75069865  0.16844516  1
  Mn  Mn100  1  0.33341001  0.75102717  0.50079601  1
  Mn  Mn101  1  0.33569919  0.75117552  0.83926961  1
  Mn  Mn102  1  0.66580804  0.25234031  0.16527053  1
  Mn  Mn103  1  0.66306420  0.24955583  0.49789477  1
  Mn  Mn104  1  0.66849399  0.24712674  0.83318643  1
  Mn  Mn105  1  0.66650637  0.74965284  0.16924016  1
  Mn  Mn106  1  0.66619560  0.75084848  0.49964055  1
  Mn  Mn107  1  0.66963882  0.75208549  0.83237311  1
  Mn  Mn108  1  0.16576004  0.24701210  0.00337647  1
  Mn  Mn109  1  0.16578158  0.24819622  0.33472312  1
  Mn  Mn110  1  0.16629315  0.24794071  0.67073995  1
  Mn  Mn111  1  0.17037822  0.75288576  0.00088676  1
  Mn  Mn112  1  0.16903139  0.75093796  0.33458632  1
  Mn  Mn113  1  0.16739496  0.75124376  0.66806555  1
  Mn  Mn114  1  0.49938144  0.24851228  0.00084090  1
  Mn  Mn115  1  0.49724500  0.25055584  0.33276138  1
  Mn  Mn116  1  0.49883982  0.24790107  0.66670319  1
  Mn  Mn117  1  0.49960186  0.75143531  0.00058451  1
  Mn  Mn118  1  0.49920784  0.74970471  0.33197266  1
  Mn  Mn119  1  0.50206274  0.75161203  0.66603395  1
  Mn  Mn120  1  0.83403642  0.24931779  -0.00243273  1
  Mn  Mn121  1  0.83067090  0.24969157  0.32963806  1
  Mn  Mn122  1  0.83387266  0.24829344  0.66750763  1
  Mn  Mn123  1  0.83549098  0.75050884  -0.00264560  1
  Mn  Mn124  1  0.83175964  0.75096484  0.33141945  1
  Mn  Mn125  1  0.83478494  0.75113971  0.66321708  1
  Mn  Mn126  1  0.16655905  0.00275639  0.00272193  1
  Mn  Mn127  1  0.16699544  -0.00115815  0.33548875  1
  Mn  Mn128  1  0.16570298  0.00149238  0.67062335  1
  Mn  Mn129  1  0.16988292  0.49716454  0.00171686  1
  Mn  Mn130  1  0.16715492  0.50108393  0.33402745  1
  Mn  Mn131  1  0.16806911  0.49998220  0.66852471  1
  Mn  Mn132  1  0.49901613  0.00214724  0.00011593  1
  Mn  Mn133  1  0.49788085  -0.00312483  0.33319988  1
  Mn  Mn134  1  0.49983253  -0.00091717  0.66736888  1
  Mn  Mn135  1  0.49994635  0.49793485  0.00138019  1
  Mn  Mn136  1  0.49801421  0.50130508  0.33243412  1
  Mn  Mn137  1  0.50049517  0.50182943  0.66675391  1
  Mn  Mn138  1  0.83436030  0.00285458  -0.00265275  1
  Mn  Mn139  1  0.83146394  -0.00180537  0.33060870  1
  Mn  Mn140  1  0.83533583  0.00061017  0.66501965  1
  Mn  Mn141  1  0.83547568  0.49741149  -0.00264462  1
  Mn  Mn142  1  0.83133286  0.50015845  0.32973859  1
  Mn  Mn143  1  0.83362653  0.50243680  0.66550589  1
  O  O144  1  0.15584852  0.12496970  0.02528055  1
  O  O145  1  0.16978146  0.12116704  0.35746966  1
  O  O146  1  0.15794246  0.12350665  0.69547201  1
  O  O147  1  0.17731656  0.62621051  0.00831114  1
  O  O148  1  0.17100657  0.62962255  0.35861586  1
  O  O149  1  0.16531481  0.62927244  0.68171498  1
  O  O150  1  0.50982506  0.12577625  0.02166438  1
  O  O151  1  0.49315149  0.11996099  0.35742032  1
  O  O152  1  0.50225787  0.12151138  0.68625919  1
  O  O153  1  0.49644770  0.62140021  0.02528070  1
  O  O154  1  0.50073347  0.62688188  0.35298612  1
  O  O155  1  0.50701774  0.63025945  0.68627319  1
  O  O156  1  0.84097222  0.12742273  0.02760160  1
  O  O157  1  0.83296503  0.12051417  0.35424790  1
  O  O158  1  0.84272007  0.12249909  0.68764855  1
  O  O159  1  0.83749902  0.61972651  0.02329434  1
  O  O160  1  0.83040740  0.62839275  0.35736929  1
  O  O161  1  0.83011216  0.62818533  0.68638316  1
  O  O162  1  0.16367539  0.37347037  0.31476933  1
  O  O163  1  0.17015340  0.36926806  0.64487565  1
  O  O164  1  0.16893535  0.36815640  0.97770567  1
  O  O165  1  0.17340584  0.87528672  0.31253677  1
  O  O166  1  0.16484263  0.87885548  0.64442174  1
  O  O167  1  0.17035466  0.88032704  0.97896410  1
  O  O168  1  0.50063898  0.37974424  0.30879168  1
  O  O169  1  0.49999567  0.37027764  0.64668460  1
  O  O170  1  0.49015318  0.37297796  0.98859442  1
  O  O171  1  0.49030018  0.87142488  0.30707734  1
  O  O172  1  0.50059727  0.87713651  0.64356249  1
  O  O173  1  0.49040754  0.88056505  0.97481166  1
  O  O174  1  0.82239357  0.37615701  0.30944405  1
  O  O175  1  0.83342125  0.37516111  0.65907592  1
  O  O176  1  0.82851664  0.36988866  0.96798202  1
  O  O177  1  0.82190334  0.87391837  0.30612878  1
  O  O178  1  0.83987832  0.87701902  0.63880412  1
  O  O179  1  0.83770510  0.88237066  0.97214229  1
  O  O180  1  -0.00376616  0.37332806  0.19004876  1
  O  O181  1  0.00426740  0.37379933  0.50672099  1
  O  O182  1  -0.00760004  0.36935775  0.85363371  1
  O  O183  1  -0.00725830  0.87549781  0.18539993  1
  O  O184  1  -0.00717715  0.87785494  0.52179951  1
  O  O185  1  -0.00736623  0.88003721  0.85517071  1
  O  O186  1  0.34435100  0.37359400  0.18155366  1
  O  O187  1  0.33017161  0.37018959  0.51359501  1
  O  O188  1  0.32980114  0.36947998  0.85928948  1
  O  O189  1  0.34184548  0.87379385  0.19466400  1
  O  O190  1  0.33195297  0.87745765  0.51526285  1
  O  O191  1  0.33917227  0.87941407  0.86006745  1
  O  O192  1  0.67315633  0.37680189  0.19334928  1
  O  O193  1  0.65811401  0.37540057  0.50972148  1
  O  O194  1  0.67619420  0.37036419  0.85334130  1
  O  O195  1  0.66876186  0.87041506  0.19016774  1
  O  O196  1  0.66404881  0.87465553  0.51312614  1
  O  O197  1  0.67049448  0.87800794  0.84484490  1
  O  O198  1  -0.00327829  0.12631603  0.14138819  1
  O  O199  1  0.01033232  0.12199900  0.48339808  1
  O  O200  1  0.01035469  0.12279936  0.80230921  1
  O  O201  1  -0.00919424  0.62500309  0.15292325  1
  O  O202  1  0.00511343  0.62803387  0.48468071  1
  O  O203  1  0.00256878  0.62833567  0.82192669  1
  O  O204  1  0.32913695  0.12327964  0.15426495  1
  O  O205  1  0.33510717  0.12192428  0.47388494  1
  O  O206  1  0.32879023  0.12311926  0.81418573  1
  O  O207  1  0.33553864  0.62788433  0.14049520  1
  O  O208  1  0.32641796  0.62944232  0.47864655  1
  O  O209  1  0.32763754  0.62715535  0.83170981  1
  O  O210  1  0.66979996  0.12909948  0.14286428  1
  O  O211  1  0.66633040  0.12203754  0.48751768  1
  O  O212  1  0.67264164  0.12191701  0.80659367  1
  O  O213  1  0.66326800  0.62403264  0.15385674  1
  O  O214  1  0.67095739  0.62856212  0.47479259  1
  O  O215  1  0.66724993  0.63034432  0.81308563  1
  O  O216  1  0.08331993  0.00287892  0.24945069  1
  O  O217  1  0.07948463  0.01675165  0.59158501  1
  O  O218  1  0.07904026  0.01982960  0.91660444  1
  O  O219  1  0.08460951  0.50246475  0.24728643  1
  O  O220  1  0.08975133  0.50921700  0.57286161  1
  O  O221  1  0.09124567  0.49950146  0.91389520  1
  O  O222  1  0.41081025  0.01706882  0.25724434  1
  O  O223  1  0.41250087  0.02332071  0.58649447  1
  O  O224  1  0.41693203  0.02506899  0.91969724  1
  O  O225  1  0.41907119  0.52485212  0.24696055  1
  O  O226  1  0.42115391  0.50715693  0.57767011  1
  O  O227  1  0.42381995  0.52264637  0.91534663  1
  O  O228  1  0.74750722  0.01422018  0.25014801  1
  O  O229  1  0.74777598  0.02207151  0.59133502  1
  O  O230  1  0.74767880  0.02790866  0.92296128  1
  O  O231  1  0.74954259  0.52486256  0.24810683  1
  O  O232  1  0.74809442  0.52250122  0.58238230  1
  O  O233  1  0.75732619  0.51552120  0.91173654  1
  O  O234  1  0.25019071  0.23243899  0.25725760  1
  O  O235  1  0.25055511  0.21970006  0.59036562  1
  O  O236  1  0.24632265  0.22736352  0.92224268  1
  O  O237  1  0.26090783  0.73565906  0.26070677  1
  O  O238  1  0.24505961  0.73910217  0.57874417  1
  O  O239  1  0.26453539  0.74723832  0.93345362  1
  O  O240  1  0.57510126  0.24442739  0.23922617  1
  O  O241  1  0.57520363  0.22843185  0.57759254  1
  O  O242  1  0.58511191  0.22940704  0.91392019  1
  O  O243  1  0.58288820  0.73274000  0.25248235  1
  O  O244  1  0.58692031  0.73224656  0.58191927  1
  O  O245  1  0.57959557  0.74133114  0.91106631  1
  O  O246  1  0.90618367  0.23708392  0.23469690  1
  O  O247  1  0.91396819  0.22814548  0.57594313  1
  O  O248  1  0.91541912  0.22190498  0.91222202  1
  O  O249  1  0.90313972  0.73995931  0.23960166  1
  O  O250  1  0.90670895  0.73680708  0.56806637  1
  O  O251  1  0.91391166  0.73891310  0.90427850  1
  O  O252  1  0.08255550  0.47754649  0.08090123  1
  O  O253  1  0.08182274  0.48124983  0.41200099  1
  O  O254  1  0.08755336  0.48274239  0.75301804  1
  O  O255  1  0.08375614  0.97715403  0.08278761  1
  O  O256  1  0.08637245  0.97337753  0.41862959  1
  O  O257  1  0.08626214  0.97198179  0.75447717  1
  O  O258  1  0.41113326  0.48292566  0.07931442  1
  O  O259  1  0.41481355  0.49192649  0.41562733  1
  O  O260  1  0.41805350  0.49866731  0.75451043  1
  O  O261  1  0.41675654  0.98152589  0.08695606  1
  O  O262  1  0.42024607  0.97614310  0.42013652  1
  O  O263  1  0.42320204  0.98922622  0.75801967  1
  O  O264  1  0.75202786  0.47644528  0.08042716  1
  O  O265  1  0.74195964  0.48938672  0.40870521  1
  O  O266  1  0.75511866  0.49314889  0.75338298  1
  O  O267  1  0.75944303  0.98800818  0.08933434  1
  O  O268  1  0.75408556  0.97956955  0.41973587  1
  O  O269  1  0.76694176  0.98710892  0.75956812  1
  O  O270  1  0.24842671  0.27070084  0.08958176  1
  O  O271  1  0.24017452  0.25756547  0.43065859  1
  O  O272  1  0.24559411  0.25909014  0.75916228  1
  O  O273  1  0.24823671  0.77713393  0.09300810  1
  O  O274  1  0.24872604  0.77353740  0.41911713  1
  O  O275  1  0.24715547  0.76678367  0.76460859  1
  O  O276  1  0.58962158  0.27540132  0.07832331  1
  O  O277  1  0.58125898  0.26982363  0.41021322  1
  O  O278  1  0.58846516  0.25095918  0.74580889  1
  O  O279  1  0.57533194  0.76571368  0.09043778  1
  O  O280  1  0.58232778  0.77274853  0.41348168  1
  O  O281  1  0.58340825  0.76559258  0.75262025  1
  O  O282  1  0.91983028  0.27566855  0.07312102  1
  O  O283  1  0.91886114  0.26482013  0.40269052  1
  O  O284  1  0.91827682  0.25862762  0.75052056  1
  O  O285  1  0.91858718  0.77423227  0.07532601  1
  O  O286  1  0.91983348  0.77574133  0.40703715  1
  O  O287  1  0.92240665  0.77237040  0.74105941  1
  O  O288  1  0.24512967  0.47392516  0.09313121  1
  O  O289  1  0.23950013  0.48902122  0.42821716  1
  O  O290  1  0.24646212  0.48623676  0.76507320  1
  O  O291  1  0.25126912  0.97819439  0.08929291  1
  O  O292  1  0.24944692  0.98024461  0.41947274  1
  O  O293  1  0.24626546  0.98821922  0.75822461  1
  O  O294  1  0.58008808  0.47588221  0.08845819  1
  O  O295  1  0.57872220  0.48193045  0.41522019  1
  O  O296  1  0.58603380  0.49829672  0.75084965  1
  O  O297  1  0.58120045  0.98348747  0.08401443  1
  O  O298  1  0.58149556  0.97411489  0.41086902  1
  O  O299  1  0.58238796  0.98776092  0.75217552  1
  O  O300  1  0.91706066  0.46997466  0.07697882  1
  O  O301  1  0.91894364  0.48479512  0.40405075  1
  O  O302  1  0.91474623  0.49328625  0.75273418  1
  O  O303  1  0.92278462  0.98167957  0.07157479  1
  O  O304  1  0.91776462  0.97462186  0.40577853  1
  O  O305  1  0.92566357  0.97984628  0.73921941  1
  O  O306  1  0.08139857  0.27611930  0.08242074  1
  O  O307  1  0.08368997  0.26878817  0.41526538  1
  O  O308  1  0.08921071  0.26929855  0.75906274  1
  O  O309  1  0.08481182  0.77021977  0.07973444  1
  O  O310  1  0.08431355  0.77633596  0.41620870  1
  O  O311  1  0.08373114  0.77690719  0.74923891  1
  O  O312  1  0.41733306  0.26178446  0.08790880  1
  O  O313  1  0.42278183  0.26171501  0.42829592  1
  O  O314  1  0.41748040  0.24867024  0.75016290  1
  O  O315  1  0.41228791  0.77390655  0.08223051  1
  O  O316  1  0.41425287  0.76939574  0.41272419  1
  O  O317  1  0.42311727  0.76277030  0.76060306  1
  O  O318  1  0.75347610  0.27257066  0.08293438  1
  O  O319  1  0.74629251  0.26144843  0.41279756  1
  O  O320  1  0.76010071  0.25926832  0.76213687  1
  O  O321  1  0.75785805  0.76101838  0.09424777  1
  O  O322  1  0.75376387  0.77250086  0.41935790  1
  O  O323  1  0.76155570  0.76361572  0.75503904  1
  O  O324  1  0.25115695  0.01376830  0.25644766  1
  O  O325  1  0.24548178  0.02614579  0.58689210  1
  O  O326  1  0.24691581  0.01969025  0.92071681  1
  O  O327  1  0.25737861  0.51751510  0.26029290  1
  O  O328  1  0.24904944  0.51468004  0.58509187  1
  O  O329  1  0.26529003  0.50355445  0.93463458  1
  O  O330  1  0.57497856  0.00372099  0.24572551  1
  O  O331  1  0.57691881  0.01945820  0.57987116  1
  O  O332  1  0.58237859  0.01971782  0.91492958  1
  O  O333  1  0.58326479  0.51768389  0.25384301  1
  O  O334  1  0.58622717  0.51925439  0.58339014  1
  O  O335  1  0.58529071  0.50789979  0.91835178  1
  O  O336  1  0.90609253  0.01133577  0.23639115  1
  O  O337  1  0.90997472  0.02332319  0.57409885  1
  O  O338  1  0.91439887  0.02757813  0.90735900  1
  O  O339  1  0.90515476  0.51053833  0.23805393  1
  O  O340  1  0.91046342  0.51615126  0.57315561  1
  O  O341  1  0.91596918  0.51063564  0.91214872  1
  O  O342  1  0.08430528  0.24205944  0.24529814  1
  O  O343  1  0.08507791  0.22933915  0.58561416  1
  O  O344  1  0.07853157  0.22837069  0.91910353  1
  O  O345  1  0.08455321  0.75080104  0.25009161  1
  O  O346  1  0.08376810  0.74606142  0.57645574  1
  O  O347  1  0.09179031  0.75110802  0.91096767  1
  O  O348  1  0.41145162  0.22997192  0.25707611  1
  O  O349  1  0.41252981  0.22362540  0.58605953  1
  O  O350  1  0.41746606  0.22787943  0.91783091  1
  O  O351  1  0.41945733  0.72407769  0.24698126  1
  O  O352  1  0.42118463  0.74279413  0.57700581  1
  O  O353  1  0.42164732  0.72668951  0.91806106  1
  O  O354  1  0.74948369  0.23263343  0.24440662  1
  O  O355  1  0.74591912  0.22902617  0.58890910  1
  O  O356  1  0.74658532  0.22191311  0.92344328  1
  O  O357  1  0.74442032  0.72699422  0.25717405  1
  O  O358  1  0.74823346  0.72861720  0.58444605  1
  O  O359  1  0.75588899  0.73642508  0.91339285  1
