# generated using pymatgen
data_Ba17Sr5La8Pr42Mn72O216
_symmetry_space_group_name_H-M   'P 1'
_cell_length_a   16.67658827
_cell_length_b   15.70178372
_cell_length_c   16.82381494
_cell_angle_alpha   90.00304563
_cell_angle_beta   90.01007012
_cell_angle_gamma   89.97990312
_symmetry_Int_Tables_number   1
_chemical_formula_structural   Ba17Sr5La8Pr42Mn72O216
_chemical_formula_sum   'Ba17 Sr5 La8 Pr42 Mn72 O216'
_cell_volume   4405.35231106
_cell_formula_units_Z   1
loop_
 _symmetry_equiv_pos_site_id
 _symmetry_equiv_pos_as_xyz
  1  'x, y, z'
loop_
 _atom_site_type_symbol
 _atom_site_label
 _atom_site_symmetry_multiplicity
 _atom_site_fract_x
 _atom_site_fract_y
 _atom_site_fract_z
 _atom_site_occupancy
  Ba  Ba0  1  0.33416099  0.37512225  0.33403221  1
  Ba  Ba1  1  0.33501991  0.37468394  0.66698962  1
  Ba  Ba2  1  0.00135410  0.87296873  0.33357633  1
  Ba  Ba3  1  0.33144869  0.62632463  0.99852656  1
  Ba  Ba4  1  0.16614894  0.37727941  0.50075854  1
  Ba  Ba5  1  0.83219567  0.12389243  0.50445538  1
  Ba  Ba6  1  0.66546821  0.12499618  0.33428299  1
  Ba  Ba7  1  0.33315727  0.62403224  0.32873891  1
  Ba  Ba8  1  -0.00419483  0.12640524  0.99937618  1
  Ba  Ba9  1  0.16509984  0.12551060  0.50017557  1
  Ba  Ba10  1  -0.00194621  0.12354097  0.33604979  1
  Ba  Ba11  1  0.66568002  0.62468497  1.00096105  1
  Ba  Ba12  1  0.49860009  0.62616641  0.16510331  1
  Ba  Ba13  1  0.33018138  0.12453612  0.33157549  1
  Ba  Ba14  1  0.00301932  0.37362629  -0.00020088  1
  Ba  Ba15  1  0.83279262  0.62359622  0.16899432  1
  Ba  Ba16  1  0.33122064  0.12372777  0.66362393  1
  Sr  Sr17  1  0.82885514  0.12592925  0.83394562  1
  Sr  Sr18  1  -0.00214080  0.12370000  0.66219312  1
  Sr  Sr19  1  -0.00380228  0.62541173  0.66691988  1
  Sr  Sr20  1  0.83072804  0.62755505  0.50325794  1
  Sr  Sr21  1  0.16806668  0.87468849  0.82952040  1
  La  La22  1  0.67186451  0.87496794  0.00243450  1
  La  La23  1  0.34051665  0.87343898  -0.00184894  1
  La  La24  1  0.83807160  0.37360575  0.16947528  1
  La  La25  1  0.33734107  0.87295413  0.33241386  1
  La  La26  1  0.33563788  0.87780938  0.66748503  1
  La  La27  1  0.16722853  0.37365379  0.82784684  1
  La  La28  1  0.66377040  0.62527857  0.66759844  1
  La  La29  1  0.49322797  0.62413288  0.83988429  1
  Pr  Pr30  1  0.16392155  0.62485471  0.49863166  1
  Pr  Pr31  1  0.50557620  0.87569595  0.16725132  1
  Pr  Pr32  1  0.83214106  0.62537701  0.84231358  1
  Pr  Pr33  1  0.49175931  0.12585784  0.83373477  1
  Pr  Pr34  1  0.15764062  0.12517234  0.82867281  1
  Pr  Pr35  1  0.67374030  0.37462876  0.66907727  1
  Pr  Pr36  1  0.83965695  0.87793548  0.16735544  1
  Pr  Pr37  1  0.50800309  0.37840519  0.82961736  1
  Pr  Pr38  1  0.17278720  0.37297678  0.16543364  1
  Pr  Pr39  1  0.84091772  0.37528496  0.83375260  1
  Pr  Pr40  1  -0.00249425  0.62486644  0.99490248  1
  Pr  Pr41  1  0.83229970  0.12882154  0.17506303  1
  Pr  Pr42  1  0.50624700  0.87238906  0.82952499  1
  Pr  Pr43  1  0.84167106  0.87405186  0.50046927  1
  Pr  Pr44  1  0.00339769  0.87546128  0.00418732  1
  Pr  Pr45  1  0.50350687  0.87711561  0.49771651  1
  Pr  Pr46  1  0.50311552  0.37573014  0.16920496  1
  Pr  Pr47  1  0.83885292  0.37628541  0.50232703  1
  Pr  Pr48  1  0.15628722  0.12643922  0.17108327  1
  Pr  Pr49  1  0.00273120  0.37126230  0.66961824  1
  Pr  Pr50  1  0.00300987  0.87609057  0.66674992  1
  Pr  Pr51  1  0.83948987  0.87601747  0.83530208  1
  Pr  Pr52  1  0.49385985  0.62484205  0.49939427  1
  Pr  Pr53  1  0.00045398  0.62459566  0.33265321  1
  Pr  Pr54  1  0.49543874  0.12704409  0.50239221  1
  Pr  Pr55  1  0.16445511  0.62486928  0.16605774  1
  Pr  Pr56  1  -0.00017165  0.37605301  0.33665862  1
  Pr  Pr57  1  0.49209073  0.12410621  0.17008201  1
  Pr  Pr58  1  0.32602923  0.62688135  0.66489933  1
  Pr  Pr59  1  0.67141807  0.37516555  0.00270675  1
  Pr  Pr60  1  0.66519374  0.62425268  0.32817063  1
  Pr  Pr61  1  0.17210205  0.87884018  0.16206063  1
  Pr  Pr62  1  0.16106523  0.62356216  0.83547339  1
  Pr  Pr63  1  0.66981057  0.37834338  0.33764075  1
  Pr  Pr64  1  0.32308711  0.12196319  0.99530033  1
  Pr  Pr65  1  0.16991607  0.87679363  0.49697681  1
  Pr  Pr66  1  0.67185272  0.87165013  0.33737935  1
  Pr  Pr67  1  0.67494613  0.87586052  0.66968401  1
  Pr  Pr68  1  0.66075961  0.12606098  0.99908610  1
  Pr  Pr69  1  0.66255378  0.12500828  0.66095128  1
  Pr  Pr70  1  0.33945490  0.37444226  0.00048566  1
  Pr  Pr71  1  0.50226386  0.37319054  0.49647189  1
  Mn  Mn72  1  -0.00082412  -0.00121163  0.16503364  1
  Mn  Mn73  1  0.00041725  -0.00159656  0.50273588  1
  Mn  Mn74  1  -0.00140477  -0.00083341  0.83277671  1
  Mn  Mn75  1  0.00234350  0.50099125  0.16703901  1
  Mn  Mn76  1  -0.00232488  0.50309695  0.50217766  1
  Mn  Mn77  1  -0.00052865  0.50150989  0.83209444  1
  Mn  Mn78  1  0.33352277  -0.00125331  0.16216766  1
  Mn  Mn79  1  0.33519408  -0.00323607  0.49918741  1
  Mn  Mn80  1  0.33275632  -0.00063106  0.83232640  1
  Mn  Mn81  1  0.33309318  0.49783450  0.16392507  1
  Mn  Mn82  1  0.33413723  0.50224787  0.50009740  1
  Mn  Mn83  1  0.33250926  0.49865350  0.83266007  1
  Mn  Mn84  1  0.66844872  0.00010561  0.16605883  1
  Mn  Mn85  1  0.66605792  -0.00248191  0.50296215  1
  Mn  Mn86  1  0.66632165  0.00203920  0.83435401  1
  Mn  Mn87  1  0.66662438  0.49803839  0.16919520  1
  Mn  Mn88  1  0.66609792  0.50233150  0.50245658  1
  Mn  Mn89  1  0.66892369  0.49888089  0.83230259  1
  Mn  Mn90  1  0.00066124  0.25228175  0.16835303  1
  Mn  Mn91  1  -0.00179388  0.25208980  0.50298260  1
  Mn  Mn92  1  -0.00200358  0.24793166  0.83220630  1
  Mn  Mn93  1  0.00045543  0.74922329  0.16570464  1
  Mn  Mn94  1  0.00028686  0.74711662  0.50244132  1
  Mn  Mn95  1  0.00003399  0.75172188  0.83297659  1
  Mn  Mn96  1  0.33435053  0.24930816  0.16138542  1
  Mn  Mn97  1  0.33443387  0.25107669  0.49996005  1
  Mn  Mn98  1  0.33193227  0.24728571  0.83568089  1
  Mn  Mn99  1  0.33220703  0.75220712  0.16507375  1
  Mn  Mn100  1  0.33423313  0.74935660  0.50025448  1
  Mn  Mn101  1  0.33300060  0.75281836  0.82989924  1
  Mn  Mn102  1  0.66651971  0.25065441  0.16597900  1
  Mn  Mn103  1  0.66599171  0.25146892  0.50229975  1
  Mn  Mn104  1  0.66576064  0.24867215  0.83357886  1
  Mn  Mn105  1  0.66773524  0.75170647  0.16951563  1
  Mn  Mn106  1  0.66589594  0.74877689  0.50234674  1
  Mn  Mn107  1  0.66827555  0.75150816  0.83253850  1
  Mn  Mn108  1  0.16880728  0.24801776  -0.00310855  1
  Mn  Mn109  1  0.16476948  0.25007697  0.33230264  1
  Mn  Mn110  1  0.16489437  0.24982950  0.66656682  1
  Mn  Mn111  1  0.16591847  0.75208865  -0.00289029  1
  Mn  Mn112  1  0.16717820  0.75108637  0.33132880  1
  Mn  Mn113  1  0.16516655  0.74890785  0.66514148  1
  Mn  Mn114  1  0.50027386  0.24884645  -0.00033453  1
  Mn  Mn115  1  0.50158986  0.24857548  0.33207892  1
  Mn  Mn116  1  0.50190282  0.25236006  0.66730570  1
  Mn  Mn117  1  0.50141248  0.75258861  -0.00285917  1
  Mn  Mn118  1  0.50303806  0.75272871  0.33397938  1
  Mn  Mn119  1  0.50135325  0.74943383  0.66640597  1
  Mn  Mn120  1  0.83040585  0.24941766  0.00152447  1
  Mn  Mn121  1  0.83250846  0.25200132  0.33573455  1
  Mn  Mn122  1  0.83222924  0.25085110  0.66952878  1
  Mn  Mn123  1  0.83428144  0.75130549  0.00096645  1
  Mn  Mn124  1  0.83309451  0.74882565  0.33709950  1
  Mn  Mn125  1  0.83308362  0.74911510  0.66964687  1
  Mn  Mn126  1  0.16570350  -0.00066752  -0.00459729  1
  Mn  Mn127  1  0.16704029  -0.00199412  0.32997632  1
  Mn  Mn128  1  0.16477574  -0.00376227  0.66557006  1
  Mn  Mn129  1  0.16777309  0.49958442  -0.00151887  1
  Mn  Mn130  1  0.16452347  0.50192136  0.33142127  1
  Mn  Mn131  1  0.16523204  0.50365447  0.66722020  1
  Mn  Mn132  1  0.50140687  0.00073832  -0.00060400  1
  Mn  Mn133  1  0.50194171  -0.00057687  0.33211995  1
  Mn  Mn134  1  0.50275971  -0.00237998  0.66635061  1
  Mn  Mn135  1  0.50054150  0.49729995  -0.00220314  1
  Mn  Mn136  1  0.50272605  0.49917514  0.33416379  1
  Mn  Mn137  1  0.50164222  0.50306183  0.66675521  1
  Mn  Mn138  1  0.83161724  0.00159742  0.00037962  1
  Mn  Mn139  1  0.83226159  -0.00120210  0.33470768  1
  Mn  Mn140  1  0.83317201  -0.00159206  0.67003707  1
  Mn  Mn141  1  0.83370238  0.49799307  0.00175946  1
  Mn  Mn142  1  0.83333177  0.50054662  0.33815851  1
  Mn  Mn143  1  0.83310464  0.50240946  0.66869306  1
  O  O144  1  0.17219679  0.12182917  0.02569080  1
  O  O145  1  0.16465243  0.12043826  0.33713013  1
  O  O146  1  0.16122463  0.12197493  0.68365099  1
  O  O147  1  0.16058054  0.62903804  0.02245817  1
  O  O148  1  0.16042626  0.62842375  0.35311029  1
  O  O149  1  0.17334863  0.62834748  0.69245943  1
  O  O150  1  0.50686517  0.12454469  0.02867759  1
  O  O151  1  0.49988628  0.12154451  0.35547903  1
  O  O152  1  0.50875888  0.12099917  0.69097352  1
  O  O153  1  0.49915313  0.62493735  0.00560171  1
  O  O154  1  0.50917486  0.62693233  0.35405653  1
  O  O155  1  0.50719856  0.62774599  0.69765713  1
  O  O156  1  0.82417590  0.12479348  0.02865383  1
  O  O157  1  0.83162213  0.12708724  0.34330119  1
  O  O158  1  0.82925542  0.12387325  0.68443608  1
  O  O159  1  0.83985009  0.62525431  0.01051104  1
  O  O160  1  0.82771770  0.62386240  0.35419332  1
  O  O161  1  0.82838255  0.62605789  0.69887501  1
  O  O162  1  0.15709753  0.37908590  0.31059209  1
  O  O163  1  0.15678211  0.38004097  0.66265520  1
  O  O164  1  0.17598081  0.37059217  0.97322495  1
  O  O165  1  0.17358491  0.87364479  0.30795576  1
  O  O166  1  0.16067490  0.86794517  0.64164772  1
  O  O167  1  0.15795492  0.87599108  0.97670946  1
  O  O168  1  0.50989814  0.37249259  0.31479590  1
  O  O169  1  0.50807580  0.38264634  0.64112683  1
  O  O170  1  0.50280960  0.36948120  0.97247227  1
  O  O171  1  0.50932610  0.87837126  0.31162795  1
  O  O172  1  0.50168729  0.87132778  0.64053905  1
  O  O173  1  0.50378278  0.87985391  0.97286443  1
  O  O174  1  0.83419993  0.37649955  0.31469561  1
  O  O175  1  0.82771122  0.37962716  0.64541900  1
  O  O176  1  0.82630172  0.37300507  0.97811152  1
  O  O177  1  0.82820584  0.87264179  0.31337346  1
  O  O178  1  0.82572440  0.87109686  0.64434213  1
  O  O179  1  0.83207074  0.87662900  0.97880476  1
  O  O180  1  0.00314296  0.37879167  0.19019862  1
  O  O181  1  -0.00619824  0.38163195  0.52511744  1
  O  O182  1  0.00295924  0.37624033  0.84295639  1
  O  O183  1  -0.00645965  0.87269765  0.17708034  1
  O  O184  1  -0.00007318  0.86860180  0.52152624  1
  O  O185  1  -0.00365957  0.87459925  0.86101903  1
  O  O186  1  0.32389447  0.37276661  0.17521431  1
  O  O187  1  0.34282850  0.38063629  0.50905897  1
  O  O188  1  0.32302168  0.36793856  0.85621127  1
  O  O189  1  0.32310199  0.87713797  0.18582561  1
  O  O190  1  0.33606980  0.86935811  0.52309558  1
  O  O191  1  0.33360143  0.87788980  0.85430175  1
  O  O192  1  0.65544467  0.37340834  0.19116571  1
  O  O193  1  0.65865217  0.37857587  0.52745055  1
  O  O194  1  0.65826922  0.37183385  0.85869419  1
  O  O195  1  0.65974083  0.87729836  0.19110808  1
  O  O196  1  0.65659451  0.87191224  0.52872542  1
  O  O197  1  0.65975643  0.88145620  0.85955922  1
  O  O198  1  0.00112209  0.12464334  0.15723861  1
  O  O199  1  -0.00181875  0.12491547  0.49651458  1
  O  O200  1  0.00159599  0.12281163  0.81282394  1
  O  O201  1  0.00658641  0.62595072  0.13798753  1
  O  O202  1  0.00140387  0.62530876  0.47622050  1
  O  O203  1  -0.00657152  0.62748855  0.81620189  1
  O  O204  1  0.34522746  0.12263203  0.13801724  1
  O  O205  1  0.34271978  0.12092771  0.49018396  1
  O  O206  1  0.34376426  0.12295747  0.81886437  1
  O  O207  1  0.32922558  0.62426400  0.15449453  1
  O  O208  1  0.33751011  0.62757082  0.48529790  1
  O  O209  1  0.34159650  0.63074448  0.80976516  1
  O  O210  1  0.67951962  0.12527878  0.14210120  1
  O  O211  1  0.66447236  0.12414042  0.49093477  1
  O  O212  1  0.66701114  0.12506968  0.80499532  1
  O  O213  1  0.66785441  0.62382044  0.15953950  1
  O  O214  1  0.66665766  0.62583543  0.47263763  1
  O  O215  1  0.67733666  0.62226143  0.81142088  1
  O  O216  1  0.08400562  0.00517956  0.24212828  1
  O  O217  1  0.07794806  0.00219959  0.58891361  1
  O  O218  1  0.08303561  0.01764155  0.91317198  1
  O  O219  1  0.08187353  0.52846391  0.24890619  1
  O  O220  1  0.08423880  0.52230523  0.58016014  1
  O  O221  1  0.07943429  0.52180652  0.91888958  1
  O  O222  1  0.41511282  0.00712951  0.24506323  1
  O  O223  1  0.42301154  0.00751849  0.57936128  1
  O  O224  1  0.41400518  0.01974099  0.92598621  1
  O  O225  1  0.41970554  0.49948390  0.24710717  1
  O  O226  1  0.41606600  0.52721969  0.59331932  1
  O  O227  1  0.41367593  0.50333215  0.91628025  1
  O  O228  1  0.74906950  0.01007217  0.24825691  1
  O  O229  1  0.73919729  0.00901179  0.59773207  1
  O  O230  1  0.73857204  0.01777362  0.92791355  1
  O  O231  1  0.74551646  0.50638614  0.26079758  1
  O  O232  1  0.74110243  0.51880273  0.59282212  1
  O  O233  1  0.75179988  0.50993251  0.91328851  1
  O  O234  1  0.24264107  0.23650406  0.22884792  1
  O  O235  1  0.24813786  0.24712735  0.58400555  1
  O  O236  1  0.24404301  0.21882010  0.91020499  1
  O  O237  1  0.23986805  0.73713423  0.23855343  1
  O  O238  1  0.24410887  0.72871413  0.57725520  1
  O  O239  1  0.24154018  0.73575122  0.90291630  1
  O  O240  1  0.57473035  0.23079942  0.23582097  1
  O  O241  1  0.57937254  0.23013229  0.57793995  1
  O  O242  1  0.57294966  0.22469163  0.90842282  1
  O  O243  1  0.58547921  0.73777672  0.25461760  1
  O  O244  1  0.57676769  0.72438403  0.57838626  1
  O  O245  1  0.57894255  0.73703115  0.90439348  1
  O  O246  1  0.91021727  0.24346099  0.24861124  1
  O  O247  1  0.91173400  0.24881226  0.58448763  1
  O  O248  1  0.90819530  0.24180246  0.90854662  1
  O  O249  1  0.91877838  0.73363216  0.25407054  1
  O  O250  1  0.91243201  0.73717035  0.58766000  1
  O  O251  1  0.91661178  0.73350040  0.91617798  1
  O  O252  1  0.09483410  0.48327418  0.08944706  1
  O  O253  1  0.07358982  0.48999975  0.40753167  1
  O  O254  1  0.08506244  0.49281977  0.75415734  1
  O  O255  1  0.08657465  0.98083361  0.08275603  1
  O  O256  1  0.08925806  0.98245359  0.42459898  1
  O  O257  1  0.08237079  0.97887170  0.74961061  1
  O  O258  1  0.41984149  0.47614641  0.08335437  1
  O  O259  1  0.43036855  0.49152297  0.42481911  1
  O  O260  1  0.42919825  0.48484292  0.75751741  1
  O  O261  1  0.42467683  0.97446774  0.08649050  1
  O  O262  1  0.41911450  0.97430241  0.41757593  1
  O  O263  1  0.42425175  0.97765668  0.75177536  1
  O  O264  1  0.74922299  0.47744696  0.08838978  1
  O  O265  1  0.75136875  0.47632309  0.42505367  1
  O  O266  1  0.75349698  0.47366027  0.75530167  1
  O  O267  1  0.75477324  0.97341293  0.08905712  1
  O  O268  1  0.75029118  0.97426944  0.42576523  1
  O  O269  1  0.75561593  0.97679907  0.76011528  1
  O  O270  1  0.26411280  0.26170019  0.06659961  1
  O  O271  1  0.24821327  0.25612348  0.41048378  1
  O  O272  1  0.24456723  0.25730569  0.75508653  1
  O  O273  1  0.25108609  0.77398069  0.07324475  1
  O  O274  1  0.25608238  0.77157375  0.41159595  1
  O  O275  1  0.25987068  0.76829724  0.73796949  1
  O  O276  1  0.59272398  0.26684436  0.07166634  1
  O  O277  1  0.58988630  0.27028025  0.41509518  1
  O  O278  1  0.59060833  0.27233757  0.74406492  1
  O  O279  1  0.58599235  0.77201396  0.08179400  1
  O  O280  1  0.58805582  0.77229464  0.41566004  1
  O  O281  1  0.58892904  0.77193194  0.74202623  1
  O  O282  1  0.91538428  0.26362688  0.08983074  1
  O  O283  1  0.91591213  0.27377067  0.41814633  1
  O  O284  1  0.91798190  0.27223300  0.74621205  1
  O  O285  1  0.91905435  0.76987951  0.07936491  1
  O  O286  1  0.91392623  0.76219499  0.42230606  1
  O  O287  1  0.91774981  0.77555183  0.75222744  1
  O  O288  1  0.25558225  0.47982197  0.07453742  1
  O  O289  1  0.24425096  0.49803266  0.41406317  1
  O  O290  1  0.25112282  0.49165783  0.75100199  1
  O  O291  1  0.25857722  0.97912942  0.07013547  1
  O  O292  1  0.25555627  0.97680423  0.41230401  1
  O  O293  1  0.25144954  0.98057790  0.74156429  1
  O  O294  1  0.58451656  0.47718073  0.08023828  1
  O  O295  1  0.58923047  0.47926708  0.41646171  1
  O  O296  1  0.59243483  0.48171098  0.74249660  1
  O  O297  1  0.59160269  0.98097244  0.07481181  1
  O  O298  1  0.58744751  0.97854703  0.41729835  1
  O  O299  1  0.58900351  0.97575648  0.74532767  1
  O  O300  1  0.91624968  0.48404342  0.08985314  1
  O  O301  1  0.91460394  0.47915395  0.42057372  1
  O  O302  1  0.91769607  0.47880710  0.74827585  1
  O  O303  1  0.91943656  0.98009114  0.07735421  1
  O  O304  1  0.91499866  0.98388011  0.42175603  1
  O  O305  1  0.91887733  0.97378480  0.74803415  1
  O  O306  1  0.09695245  0.26289963  0.08824816  1
  O  O307  1  0.07431971  0.26664003  0.41598927  1
  O  O308  1  0.08388281  0.26305456  0.75293330  1
  O  O309  1  0.08666724  0.77300656  0.08464487  1
  O  O310  1  0.09385197  0.76314235  0.42347522  1
  O  O311  1  0.08272340  0.76612804  0.74995311  1
  O  O312  1  0.42760654  0.27447502  0.08786957  1
  O  O313  1  0.42800433  0.26021048  0.42369287  1
  O  O314  1  0.42757455  0.26446097  0.76499105  1
  O  O315  1  0.41911881  0.77432205  0.08486316  1
  O  O316  1  0.42588819  0.76922667  0.42196424  1
  O  O317  1  0.42299071  0.77461715  0.75144711  1
  O  O318  1  0.75184004  0.27717796  0.09022750  1
  O  O319  1  0.75197439  0.27541476  0.42431096  1
  O  O320  1  0.75578250  0.27402274  0.76000396  1
  O  O321  1  0.75375503  0.77209422  0.08902784  1
  O  O322  1  0.75163393  0.77438229  0.42648933  1
  O  O323  1  0.75288262  0.77519323  0.75549825  1
  O  O324  1  0.24340284  0.01571900  0.23033975  1
  O  O325  1  0.24817893  -0.00260561  0.57816163  1
  O  O326  1  0.24335138  0.02207311  0.90995148  1
  O  O327  1  0.24017842  0.51012086  0.23789054  1
  O  O328  1  0.24724592  0.52207838  0.58424293  1
  O  O329  1  0.23993251  0.51912080  0.90806827  1
  O  O330  1  0.57635067  0.01831346  0.23534983  1
  O  O331  1  0.57963757  0.02042232  0.58118473  1
  O  O332  1  0.57671817  0.02641746  0.91058018  1
  O  O333  1  0.58675727  0.51315217  0.25488633  1
  O  O334  1  0.57779743  0.52957552  0.57872622  1
  O  O335  1  0.57748925  0.51312089  0.90432081  1
  O  O336  1  0.90842463  0.00935388  0.23769932  1
  O  O337  1  0.91369323  -0.00145540  0.58639115  1
  O  O338  1  0.90522519  0.01120803  0.91025506  1
  O  O339  1  0.92319615  0.51323158  0.26040149  1
  O  O340  1  0.91069787  0.51826170  0.58456937  1
  O  O341  1  0.91592538  0.51475281  0.91339718  1
  O  O342  1  0.08349022  0.24072792  0.24801098  1
  O  O343  1  0.07563682  0.24691838  0.59096688  1
  O  O344  1  0.08595130  0.23505988  0.91252596  1
  O  O345  1  0.08002919  0.72833919  0.24962000  1
  O  O346  1  0.08263535  0.72579045  0.58447365  1
  O  O347  1  0.07931834  0.72706290  0.91850591  1
  O  O348  1  0.41600386  0.23870115  0.24499514  1
  O  O349  1  0.42232761  0.23954889  0.58495535  1
  O  O350  1  0.40761095  0.22980676  0.93007331  1
  O  O351  1  0.41708180  0.75373175  0.25454479  1
  O  O352  1  0.41366528  0.72754768  0.59176238  1
  O  O353  1  0.41540281  0.74511615  0.91243111  1
  O  O354  1  0.74941894  0.24340157  0.24899559  1
  O  O355  1  0.73846473  0.24107389  0.59772476  1
  O  O356  1  0.73551648  0.23265047  0.92566981  1
  O  O357  1  0.74309951  0.73940676  0.26286373  1
  O  O358  1  0.74079924  0.73183302  0.59246250  1
  O  O359  1  0.75493562  0.74037304  0.91595929  1
