# generated using pymatgen
data_Ba17Sr5La8Pr42Mn72O216
_symmetry_space_group_name_H-M   'P 1'
_cell_length_a   16.68123010
_cell_length_b   15.69843922
_cell_length_c   16.82700909
_cell_angle_alpha   89.99733363
_cell_angle_beta   90.02483834
_cell_angle_gamma   89.97885000
_symmetry_Int_Tables_number   1
_chemical_formula_structural   Ba17Sr5La8Pr42Mn72O216
_chemical_formula_sum   'Ba17 Sr5 La8 Pr42 Mn72 O216'
_cell_volume   4406.47598221
_cell_formula_units_Z   1
loop_
 _symmetry_equiv_pos_site_id
 _symmetry_equiv_pos_as_xyz
  1  'x, y, z'
loop_
 _atom_site_type_symbol
 _atom_site_label
 _atom_site_symmetry_multiplicity
 _atom_site_fract_x
 _atom_site_fract_y
 _atom_site_fract_z
 _atom_site_occupancy
  Ba  Ba0  1  0.66779442  0.87398676  0.66713063  1
  Ba  Ba1  1  0.33319638  0.87696781  0.66723846  1
  Ba  Ba2  1  0.33590556  0.62385046  0.33373169  1
  Ba  Ba3  1  -0.00034598  0.37499973  0.00018971  1
  Ba  Ba4  1  0.67019518  0.62506421  0.66575385  1
  Ba  Ba5  1  0.66324939  0.12553969  1.00270954  1
  Ba  Ba6  1  0.16557797  0.37593729  0.16503735  1
  Ba  Ba7  1  0.00069349  0.62488467  0.33581926  1
  Ba  Ba8  1  -0.00043006  0.12595812  0.66394206  1
  Ba  Ba9  1  0.66335114  0.37522965  0.00424210  1
  Ba  Ba10  1  0.16931471  0.62438306  0.82935677  1
  Ba  Ba11  1  -0.00087204  0.12351510  0.99804051  1
  Ba  Ba12  1  0.49923727  0.12502323  0.16817969  1
  Ba  Ba13  1  0.50195558  0.12749492  0.49939580  1
  Ba  Ba14  1  -0.00076726  0.87451618  -0.00174360  1
  Ba  Ba15  1  0.50342149  0.87655748  0.50274794  1
  Ba  Ba16  1  0.16703036  0.87693125  0.50014889  1
  Sr  Sr17  1  -0.00063809  0.12454317  0.32938491  1
  Sr  Sr18  1  0.83150019  0.87365103  0.16742066  1
  Sr  Sr19  1  0.00817741  0.62560881  0.66071347  1
  Sr  Sr20  1  -0.00093262  0.87327113  0.66708510  1
  Sr  Sr21  1  0.33083275  0.37347879  0.33406921  1
  La  La22  1  0.33022442  0.12229723  0.32894230  1
  La  La23  1  0.83688541  0.87461205  0.50061820  1
  La  La24  1  0.83866545  0.62735977  0.83145562  1
  La  La25  1  0.66682858  0.12507076  0.66840420  1
  La  La26  1  -0.00337643  0.37505328  0.32965548  1
  La  La27  1  0.66320743  0.37210475  0.33404293  1
  La  La28  1  0.67276729  0.62411851  0.99782483  1
  La  La29  1  0.83193872  0.37606686  0.49919818  1
  Pr  Pr30  1  0.15807149  0.87681334  0.82276075  1
  Pr  Pr31  1  0.49332755  0.37400917  0.83583075  1
  Pr  Pr32  1  0.16835126  0.12004259  0.83472687  1
  Pr  Pr33  1  0.33669083  0.87668671  0.34180501  1
  Pr  Pr34  1  0.32925632  0.37253735  0.66846486  1
  Pr  Pr35  1  0.33375379  0.12397084  0.66510636  1
  Pr  Pr36  1  0.50347600  0.62823358  0.83502535  1
  Pr  Pr37  1  0.83299434  0.12422856  0.49987917  1
  Pr  Pr38  1  0.15815076  0.37358181  0.49375951  1
  Pr  Pr39  1  0.15818096  0.37222367  0.83163667  1
  Pr  Pr40  1  0.32889569  0.37752353  0.00481587  1
  Pr  Pr41  1  0.82625481  0.36950140  0.83330840  1
  Pr  Pr42  1  0.33671395  0.62148569  0.99863505  1
  Pr  Pr43  1  0.00454111  0.62504736  0.99704002  1
  Pr  Pr44  1  0.16546977  0.87126832  0.16661562  1
  Pr  Pr45  1  0.50707405  0.62470798  0.50359683  1
  Pr  Pr46  1  -0.00765902  0.37727252  0.67009452  1
  Pr  Pr47  1  0.83303997  0.12146731  0.83832071  1
  Pr  Pr48  1  0.33887908  0.62708736  0.66111275  1
  Pr  Pr49  1  0.67045025  0.62935515  0.33414252  1
  Pr  Pr50  1  0.83355899  0.37556444  0.16163528  1
  Pr  Pr51  1  0.16298292  0.62348792  0.16582765  1
  Pr  Pr52  1  0.66352728  0.87411070  0.00187869  1
  Pr  Pr53  1  0.66545545  0.12131205  0.32791080  1
  Pr  Pr54  1  0.49789766  0.12160326  0.83985738  1
  Pr  Pr55  1  0.84517180  0.62658838  0.50666045  1
  Pr  Pr56  1  0.83376573  0.12537841  0.16790674  1
  Pr  Pr57  1  0.15900112  0.12540276  0.16683331  1
  Pr  Pr58  1  0.83265423  0.87880344  0.82981134  1
  Pr  Pr59  1  0.33131652  0.12769856  1.00015945  1
  Pr  Pr60  1  0.17649258  0.62509773  0.50546180  1
  Pr  Pr61  1  0.49675070  0.87433186  0.16891601  1
  Pr  Pr62  1  0.17225661  0.12616199  0.49904468  1
  Pr  Pr63  1  0.33158053  0.87287113  -0.00169415  1
  Pr  Pr64  1  0.66068925  0.37562061  0.67163548  1
  Pr  Pr65  1  0.50402805  0.62241312  0.17123469  1
  Pr  Pr66  1  0.48990229  0.37551067  0.16547752  1
  Pr  Pr67  1  0.67014472  0.88009211  0.33995941  1
  Pr  Pr68  1  -0.00063879  0.87447386  0.33681236  1
  Pr  Pr69  1  0.49593835  0.37690836  0.49865024  1
  Pr  Pr70  1  0.83964542  0.62617540  0.16682533  1
  Pr  Pr71  1  0.49954611  0.87705071  0.82677338  1
  Mn  Mn72  1  -0.00181010  -0.00139223  0.16753875  1
  Mn  Mn73  1  0.00018611  0.00219444  0.49653362  1
  Mn  Mn74  1  -0.00109334  0.00024391  0.83063702  1
  Mn  Mn75  1  -0.00128896  0.50192210  0.16552333  1
  Mn  Mn76  1  0.00180293  0.49722756  0.50062217  1
  Mn  Mn77  1  -0.00150385  0.50049475  0.83125644  1
  Mn  Mn78  1  0.33002441  -0.00332948  0.16656367  1
  Mn  Mn79  1  0.33505382  0.00246994  0.49876423  1
  Mn  Mn80  1  0.33291952  0.00087635  0.83581332  1
  Mn  Mn81  1  0.33254752  0.50252337  0.16635065  1
  Mn  Mn82  1  0.33496729  0.49763954  0.50207969  1
  Mn  Mn83  1  0.33342125  0.49846119  0.83243462  1
  Mn  Mn84  1  0.66650961  -0.00452953  0.16792278  1
  Mn  Mn85  1  0.66977162  0.00335287  0.50056356  1
  Mn  Mn86  1  0.66565410  0.00009889  0.83520268  1
  Mn  Mn87  1  0.66691619  0.50235872  0.16946680  1
  Mn  Mn88  1  0.66897713  0.49762862  0.49998471  1
  Mn  Mn89  1  0.66602827  0.50000365  0.83455907  1
  Mn  Mn90  1  -0.00197659  0.24798967  0.16632074  1
  Mn  Mn91  1  -0.00125552  0.24911313  0.49677647  1
  Mn  Mn92  1  -0.00209905  0.25047470  0.83068174  1
  Mn  Mn93  1  -0.00065305  0.75182230  0.16637298  1
  Mn  Mn94  1  0.00332086  0.75149763  0.50043433  1
  Mn  Mn95  1  -0.00000682  0.74793288  0.83127244  1
  Mn  Mn96  1  0.33069903  0.24886871  0.16662334  1
  Mn  Mn97  1  0.33347138  0.25106593  0.50033217  1
  Mn  Mn98  1  0.33127136  0.25108102  0.83433715  1
  Mn  Mn99  1  0.33326528  0.75114556  0.16649502  1
  Mn  Mn100  1  0.33632666  0.75038435  0.49867366  1
  Mn  Mn101  1  0.33480594  0.74822504  0.83420329  1
  Mn  Mn102  1  0.66729010  0.25042564  0.17075230  1
  Mn  Mn103  1  0.66833342  0.25141623  0.50214100  1
  Mn  Mn104  1  0.66312388  0.25197304  0.83323059  1
  Mn  Mn105  1  0.66558465  0.74979525  0.16670298  1
  Mn  Mn106  1  0.67025802  0.75005948  0.49775039  1
  Mn  Mn107  1  0.66792851  0.74775571  0.83635024  1
  Mn  Mn108  1  0.16724900  0.24758138  -0.00204651  1
  Mn  Mn109  1  0.16489407  0.25090412  0.33249547  1
  Mn  Mn110  1  0.16686181  0.25021451  0.66390215  1
  Mn  Mn111  1  0.16951313  0.75152226  -0.00188073  1
  Mn  Mn112  1  0.16782487  0.74830788  0.33157364  1
  Mn  Mn113  1  0.16809102  0.75019733  0.66641072  1
  Mn  Mn114  1  0.49665209  0.25024548  0.00090912  1
  Mn  Mn115  1  0.49900858  0.25173513  0.33441560  1
  Mn  Mn116  1  0.49886496  0.25120331  0.66927748  1
  Mn  Mn117  1  0.49880685  0.75053501  0.00231136  1
  Mn  Mn118  1  0.50287118  0.74896856  0.33327629  1
  Mn  Mn119  1  0.50117313  0.74914646  0.66904545  1
  Mn  Mn120  1  0.83120290  0.24941825  -0.00000432  1
  Mn  Mn121  1  0.83255574  0.25120217  0.33290127  1
  Mn  Mn122  1  0.83051296  0.25003870  0.66519684  1
  Mn  Mn123  1  0.83270953  0.75033498  0.00031609  1
  Mn  Mn124  1  0.83322000  0.74961816  0.33284962  1
  Mn  Mn125  1  0.83708725  0.75025457  0.66704986  1
  Mn  Mn126  1  0.16862197  -0.00301004  -0.00020918  1
  Mn  Mn127  1  0.16522194  0.00047449  0.32997885  1
  Mn  Mn128  1  0.16564105  0.00308433  0.66575726  1
  Mn  Mn129  1  0.16801912  0.50250598  -0.00237170  1
  Mn  Mn130  1  0.16653155  0.50008596  0.33451742  1
  Mn  Mn131  1  0.16983441  0.49646774  0.66408035  1
  Mn  Mn132  1  0.49659289  -0.00342034  0.00054595  1
  Mn  Mn133  1  0.50038000  0.00075830  0.33290157  1
  Mn  Mn134  1  0.50110379  0.00298939  0.66996932  1
  Mn  Mn135  1  0.49889696  0.50156817  0.00236404  1
  Mn  Mn136  1  0.50216065  0.49913556  0.33493303  1
  Mn  Mn137  1  0.49891247  0.49772811  0.66768861  1
  Mn  Mn138  1  0.83023782  -0.00286736  0.00157897  1
  Mn  Mn139  1  0.83491214  0.00040185  0.33362811  1
  Mn  Mn140  1  0.83369971  0.00161028  0.66642090  1
  Mn  Mn141  1  0.83365750  0.50238811  -0.00054484  1
  Mn  Mn142  1  0.83045268  0.50051058  0.33268994  1
  Mn  Mn143  1  0.83367389  0.49864818  0.66627666  1
  O  O144  1  0.17552967  0.11925087  0.02288474  1
  O  O145  1  0.16856867  0.12749962  0.35497673  1
  O  O146  1  0.17563853  0.12943247  0.69112413  1
  O  O147  1  0.17157125  0.62952003  0.02020145  1
  O  O148  1  0.16618868  0.62120121  0.36015569  1
  O  O149  1  0.17635512  0.62181023  0.67216709  1
  O  O150  1  0.49301499  0.12447141  0.01271040  1
  O  O151  1  0.50373144  0.12661824  0.34206329  1
  O  O152  1  0.50174461  0.13006958  0.69523462  1
  O  O153  1  0.49361601  0.62904807  0.02968100  1
  O  O154  1  0.50827039  0.62207168  0.35956413  1
  O  O155  1  0.49498203  0.61966795  0.69051927  1
  O  O156  1  0.83125109  0.12083510  0.01952908  1
  O  O157  1  0.83175048  0.12421549  0.35778534  1
  O  O158  1  0.82943632  0.12876774  0.69420122  1
  O  O159  1  0.83207812  0.62727895  0.02352677  1
  O  O160  1  0.82667469  0.62178961  0.36332135  1
  O  O161  1  0.84099820  0.62154199  0.68454402  1
  O  O162  1  0.16775743  0.37535034  0.32149180  1
  O  O163  1  0.17399259  0.37161856  0.63785923  1
  O  O164  1  0.17485151  0.37506323  0.97691099  1
  O  O165  1  0.16911070  0.87634857  0.31007786  1
  O  O166  1  0.16228291  0.87704674  0.66063266  1
  O  O167  1  0.17562182  0.87391576  0.96873704  1
  O  O168  1  0.50421365  0.37722308  0.30946471  1
  O  O169  1  0.49741630  0.37418039  0.64182191  1
  O  O170  1  0.48950381  0.37471805  0.97954763  1
  O  O171  1  0.49850392  0.87418334  0.31455498  1
  O  O172  1  0.49947531  0.87775493  0.66322206  1
  O  O173  1  0.49591707  0.87104850  0.97066064  1
  O  O174  1  0.82919741  0.37771666  0.30480744  1
  O  O175  1  0.82765733  0.37367844  0.64286488  1
  O  O176  1  0.83090958  0.37993865  0.97977507  1
  O  O177  1  0.82967499  0.87826235  0.31641815  1
  O  O178  1  0.83346735  0.87741691  0.64654754  1
  O  O179  1  0.82296499  0.87167748  0.97463731  1
  O  O180  1  -0.00766309  0.37469303  0.18375279  1
  O  O181  1  0.00569324  0.37271870  0.52543404  1
  O  O182  1  0.00647682  0.37600630  0.84342459  1
  O  O183  1  0.00507138  0.87438967  0.19143919  1
  O  O184  1  -0.00344042  0.87762227  0.51578826  1
  O  O185  1  0.00716178  0.87442619  0.84075072  1
  O  O186  1  0.33695200  0.37777776  0.18197277  1
  O  O187  1  0.34289516  0.37374794  0.52547827  1
  O  O188  1  0.33914574  0.37189965  0.86332647  1
  O  O189  1  0.32934675  0.87326336  0.19715206  1
  O  O190  1  0.33616305  0.87631250  0.50580169  1
  O  O191  1  0.34405043  0.87536435  0.85513509  1
  O  O192  1  0.67897664  0.37859515  0.19115914  1
  O  O193  1  0.67738564  0.37401565  0.52920529  1
  O  O194  1  0.67440232  0.37684331  0.84766399  1
  O  O195  1  0.66458585  0.86943220  0.19590164  1
  O  O196  1  0.67720631  0.87747837  0.50906222  1
  O  O197  1  0.66971710  0.87008388  0.85654782  1
  O  O198  1  -0.00198970  0.12285460  0.15524325  1
  O  O199  1  -0.01112605  0.12787294  0.47710193  1
  O  O200  1  -0.00833074  0.12697438  0.82170300  1
  O  O201  1  -0.00441988  0.62890455  0.14406023  1
  O  O202  1  -0.00518926  0.62184790  0.49219995  1
  O  O203  1  -0.00919866  0.62183235  0.81120323  1
  O  O204  1  0.32776417  0.11953309  0.14278130  1
  O  O205  1  0.32715331  0.12881210  0.47574508  1
  O  O206  1  0.32999091  0.13121426  0.80784172  1
  O  O207  1  0.34060589  0.62891960  0.14165097  1
  O  O208  1  0.32740289  0.62271998  0.49207166  1
  O  O209  1  0.33741756  0.61936717  0.80513087  1
  O  O210  1  0.67209012  0.12235013  0.15956723  1
  O  O211  1  0.67357710  0.12997746  0.47312317  1
  O  O212  1  0.65955684  0.13034260  0.81349787  1
  O  O213  1  0.65497569  0.62818821  0.13955308  1
  O  O214  1  0.65996988  0.62092333  0.47799581  1
  O  O215  1  0.65850050  0.62255282  0.82228122  1
  O  O216  1  0.08510884  0.01714135  0.24726602  1
  O  O217  1  0.08722677  0.02123830  0.57141878  1
  O  O218  1  0.09075775  0.01181547  0.90994748  1
  O  O219  1  0.08403539  0.51509881  0.24184411  1
  O  O220  1  0.10172128  0.51147071  0.56955366  1
  O  O221  1  0.08532981  0.51435568  0.91618067  1
  O  O222  1  0.40694790  0.00994296  0.25420196  1
  O  O223  1  0.41478899  0.01908532  0.59319257  1
  O  O224  1  0.41120059  0.02132937  0.92104483  1
  O  O225  1  0.42737544  0.51322204  0.23998405  1
  O  O226  1  0.42471687  0.52143301  0.57873642  1
  O  O227  1  0.42166858  0.52189889  0.90832036  1
  O  O228  1  0.75114050  0.01749673  0.25778044  1
  O  O229  1  0.75003522  0.02591008  0.58580375  1
  O  O230  1  0.74895673  0.01513928  0.91477809  1
  O  O231  1  0.75141400  0.53075102  0.24651069  1
  O  O232  1  0.76426919  0.51753073  0.56964515  1
  O  O233  1  0.75721554  0.52151799  0.91335043  1
  O  O234  1  0.24634406  0.22786986  0.24729998  1
  O  O235  1  0.25427068  0.22747263  0.58660921  1
  O  O236  1  0.25051618  0.22532126  0.91364284  1
  O  O237  1  0.24617412  0.73020270  0.24111036  1
  O  O238  1  0.25616610  0.73634973  0.58608798  1
  O  O239  1  0.26320396  0.73343718  0.92590331  1
  O  O240  1  0.59287185  0.24146375  0.26107235  1
  O  O241  1  0.59293145  0.23785693  0.59276765  1
  O  O242  1  0.57410904  0.24219574  0.91164697  1
  O  O243  1  0.58536047  0.72547256  0.25080683  1
  O  O244  1  0.58370766  0.73585054  0.57839243  1
  O  O245  1  0.58739576  0.73032490  0.92766690  1
  O  O246  1  0.91121931  0.23464991  0.24806635  1
  O  O247  1  0.91120357  0.24054895  0.57659358  1
  O  O248  1  0.90942097  0.24243444  0.90895434  1
  O  O249  1  0.91287360  0.73708524  0.25044740  1
  O  O250  1  0.92225573  0.73840644  0.58533221  1
  O  O251  1  0.91838441  0.73001370  0.91769777  1
  O  O252  1  0.08093318  0.50170640  0.07856142  1
  O  O253  1  0.07415754  0.47567924  0.41189106  1
  O  O254  1  0.08032842  0.47992645  0.73689315  1
  O  O255  1  0.09145738  0.98421665  0.08666608  1
  O  O256  1  0.07869964  0.98618853  0.40666248  1
  O  O257  1  0.08405745  0.99466400  0.75017151  1
  O  O258  1  0.41071146  0.48242176  0.07699288  1
  O  O259  1  0.41665511  0.48204554  0.41731750  1
  O  O260  1  0.40892020  0.47256116  0.74591060  1
  O  O261  1  0.41489235  0.97282057  0.08600124  1
  O  O262  1  0.41681372  0.99162666  0.41261618  1
  O  O263  1  0.42199969  0.99515799  0.76125971  1
  O  O264  1  0.74849021  0.49351366  0.08504950  1
  O  O265  1  0.74341049  0.47687742  0.40929136  1
  O  O266  1  0.74586681  0.48202693  0.74150990  1
  O  O267  1  0.74315258  0.97648762  0.08294787  1
  O  O268  1  0.75872513  0.98556037  0.41989489  1
  O  O269  1  0.75474870  0.98988745  0.75686278  1
  O  O270  1  0.25600081  0.26212613  0.07457677  1
  O  O271  1  0.24487261  0.26684076  0.42404453  1
  O  O272  1  0.24875028  0.27637065  0.75629588  1
  O  O273  1  0.25057294  0.77455040  0.08403079  1
  O  O274  1  0.25405258  0.76258624  0.41093153  1
  O  O275  1  0.24620734  0.76630048  0.76005486  1
  O  O276  1  0.57834914  0.26686747  0.09604975  1
  O  O277  1  0.58312804  0.27565001  0.42623577  1
  O  O278  1  0.57868480  0.27753960  0.75302854  1
  O  O279  1  0.57690011  0.77762126  0.08788286  1
  O  O280  1  0.59117004  0.76493463  0.40862211  1
  O  O281  1  0.57824587  0.76045409  0.76284311  1
  O  O282  1  0.91109958  0.26070939  0.08831698  1
  O  O283  1  0.91494484  0.27731247  0.41311584  1
  O  O284  1  0.91066185  0.27439382  0.74693157  1
  O  O285  1  0.91050424  0.76189240  0.08693087  1
  O  O286  1  0.91499990  0.76748944  0.42132560  1
  O  O287  1  0.91127864  0.76856666  0.75729660  1
  O  O288  1  0.25185530  0.49223254  0.07925907  1
  O  O289  1  0.24441273  0.48322654  0.43205878  1
  O  O290  1  0.24451747  0.47068816  0.75760736  1
  O  O291  1  0.25192066  0.96999131  0.08188975  1
  O  O292  1  0.25420367  0.99089326  0.40460578  1
  O  O293  1  0.24619846  0.98820773  0.76130462  1
  O  O294  1  0.57234672  0.48377494  0.10135665  1
  O  O295  1  0.58139272  0.47414237  0.42419878  1
  O  O296  1  0.57379762  0.47636794  0.75542375  1
  O  O297  1  0.57877583  0.97413975  0.08089122  1
  O  O298  1  0.59369439  0.99113937  0.41093849  1
  O  O299  1  0.58248596  0.98885618  0.75536125  1
  O  O300  1  0.90848619  0.48885958  0.08953038  1
  O  O301  1  0.91026177  0.47871727  0.42018473  1
  O  O302  1  0.90665611  0.47372680  0.75465680  1
  O  O303  1  0.91054688  0.98686079  0.08696779  1
  O  O304  1  0.91801109  0.97791491  0.41156301  1
  O  O305  1  0.91450653  0.98332893  0.74807258  1
  O  O306  1  0.08647399  0.25209872  0.08148450  1
  O  O307  1  0.07783200  0.27059813  0.41081931  1
  O  O308  1  0.08023929  0.27101984  0.74075735  1
  O  O309  1  0.08903362  0.76305812  0.08493582  1
  O  O310  1  0.07757934  0.76714740  0.40852831  1
  O  O311  1  0.08181825  0.75844624  0.74756340  1
  O  O312  1  0.41366773  0.26866578  0.08385701  1
  O  O313  1  0.41728237  0.26926418  0.42050504  1
  O  O314  1  0.41212429  0.27364977  0.75467462  1
  O  O315  1  0.41315816  0.77827659  0.08083935  1
  O  O316  1  0.41819177  0.76069251  0.41189300  1
  O  O317  1  0.41845834  0.75915544  0.75551099  1
  O  O318  1  0.75292107  0.26195493  0.09150264  1
  O  O319  1  0.75045369  0.27313668  0.41737902  1
  O  O320  1  0.74353343  0.26947963  0.74402890  1
  O  O321  1  0.73914217  0.76562631  0.07737241  1
  O  O322  1  0.74847594  0.76596143  0.40958362  1
  O  O323  1  0.75431621  0.75859274  0.75548113  1
  O  O324  1  0.24390202  0.02237447  0.24323282  1
  O  O325  1  0.25078453  0.02208460  0.58315758  1
  O  O326  1  0.25351011  0.02296017  0.91956215  1
  O  O327  1  0.24886173  0.51849825  0.24410273  1
  O  O328  1  0.26672365  0.50949609  0.59778935  1
  O  O329  1  0.26116980  0.51451971  0.92246101  1
  O  O330  1  0.58541594  0.00652580  0.25214658  1
  O  O331  1  0.58774131  0.01782772  0.58950892  1
  O  O332  1  0.57470005  0.00854915  0.91265493  1
  O  O333  1  0.59264136  0.52071869  0.26004569  1
  O  O334  1  0.58549914  0.50911300  0.58373038  1
  O  O335  1  0.58410285  0.51917515  0.92722455  1
  O  O336  1  0.91088594  0.01719023  0.25071483  1
  O  O337  1  0.90892975  0.01449192  0.57363419  1
  O  O338  1  0.90908288  0.00571765  0.90819830  1
  O  O339  1  0.91236254  0.51437141  0.24857038  1
  O  O340  1  0.92593253  0.50607083  0.59044217  1
  O  O341  1  0.91899331  0.52341138  0.92350577  1
  O  O342  1  0.08175947  0.23602238  0.24765584  1
  O  O343  1  0.09200952  0.23222624  0.56874111  1
  O  O344  1  0.09238417  0.23634091  0.90667195  1
  O  O345  1  0.08886117  0.73402163  0.24277205  1
  O  O346  1  0.09204115  0.73334198  0.57392466  1
  O  O347  1  0.08079761  0.73278580  0.91837872  1
  O  O348  1  0.40824628  0.23885084  0.25310391  1
  O  O349  1  0.41251368  0.23286398  0.59241777  1
  O  O350  1  0.41098707  0.22686424  0.91307719  1
  O  O351  1  0.42639208  0.73762099  0.24163657  1
  O  O352  1  0.42098292  0.72894647  0.58151023  1
  O  O353  1  0.42123977  0.72314858  0.91640021  1
  O  O354  1  0.75085550  0.22739400  0.25412116  1
  O  O355  1  0.75233309  0.22386984  0.58179938  1
  O  O356  1  0.75183533  0.23539243  0.90754238  1
  O  O357  1  0.75025145  0.72427081  0.24374696  1
  O  O358  1  0.76143821  0.73500104  0.57291617  1
  O  O359  1  0.75291206  0.72551369  0.91520823  1
