# generated using pymatgen
data_Ba17Sr5La8Pr42Mn72O216
_symmetry_space_group_name_H-M   'P 1'
_cell_length_a   16.67452996
_cell_length_b   15.69906055
_cell_length_c   16.82280643
_cell_angle_alpha   90.00511208
_cell_angle_beta   89.96110233
_cell_angle_gamma   90.00380205
_symmetry_Int_Tables_number   1
_chemical_formula_structural   Ba17Sr5La8Pr42Mn72O216
_chemical_formula_sum   'Ba17 Sr5 La8 Pr42 Mn72 O216'
_cell_volume   4403.77994996
_cell_formula_units_Z   1
loop_
 _symmetry_equiv_pos_site_id
 _symmetry_equiv_pos_as_xyz
  1  'x, y, z'
loop_
 _atom_site_type_symbol
 _atom_site_label
 _atom_site_symmetry_multiplicity
 _atom_site_fract_x
 _atom_site_fract_y
 _atom_site_fract_z
 _atom_site_occupancy
  Ba  Ba0  1  0.50222010  0.62502866  0.16471891  1
  Ba  Ba1  1  0.16404041  0.62418096  0.83631199  1
  Ba  Ba2  1  0.16742935  0.12628494  0.50584205  1
  Ba  Ba3  1  0.66752209  0.62504431  0.66315518  1
  Ba  Ba4  1  0.16531086  0.12556106  0.83661573  1
  Ba  Ba5  1  0.66612019  0.62499009  0.32889087  1
  Ba  Ba6  1  0.33321652  0.87522338  0.33475189  1
  Ba  Ba7  1  0.00305969  0.62479364  0.33405999  1
  Ba  Ba8  1  0.66600212  0.87734530  0.33070131  1
  Ba  Ba9  1  0.66425188  0.37421560  0.33210117  1
  Ba  Ba10  1  0.16797340  0.62422104  0.17065277  1
  Ba  Ba11  1  -0.00055718  0.87483198  0.33449031  1
  Ba  Ba12  1  -0.00457748  0.87513427  0.66790774  1
  Ba  Ba13  1  0.33520337  0.12570401  0.66727817  1
  Ba  Ba14  1  0.33202705  0.87686525  0.00295332  1
  Ba  Ba15  1  0.33383660  0.37292129  0.00225477  1
  Ba  Ba16  1  0.00092107  0.37451945  0.33584214  1
  Sr  Sr17  1  0.49832585  0.37583454  0.49740514  1
  Sr  Sr18  1  0.16814828  0.62573240  0.50352432  1
  Sr  Sr19  1  0.83196026  0.12152232  0.83324087  1
  Sr  Sr20  1  0.82946565  0.87857268  0.82864712  1
  Sr  Sr21  1  0.50121757  0.12519882  0.83376389  1
  La  La22  1  0.16365721  0.87695423  0.50083016  1
  La  La23  1  0.66928884  0.62549711  0.99414621  1
  La  La24  1  0.33712627  0.62426725  0.99860059  1
  La  La25  1  0.16637616  0.37504104  0.83572303  1
  La  La26  1  0.49635773  0.37471033  0.82737925  1
  La  La27  1  0.33686349  0.12492456  0.33873376  1
  La  La28  1  0.16804157  0.37758382  0.17001557  1
  La  La29  1  -0.00019324  0.62702556  0.66343689  1
  Pr  Pr30  1  0.33946382  0.12558117  0.99328352  1
  Pr  Pr31  1  0.83637458  0.87233488  0.16242455  1
  Pr  Pr32  1  0.49448655  0.87438213  0.82827361  1
  Pr  Pr33  1  0.49895883  0.12394149  0.16557696  1
  Pr  Pr34  1  0.67033879  0.12510065  0.66601009  1
  Pr  Pr35  1  0.49781448  0.87394467  0.49802769  1
  Pr  Pr36  1  0.66664353  0.12764940  0.33004521  1
  Pr  Pr37  1  0.33591486  0.62423208  0.33067423  1
  Pr  Pr38  1  0.50334369  0.87191132  0.16244706  1
  Pr  Pr39  1  -0.00099672  0.12570296  0.99547101  1
  Pr  Pr40  1  0.00013824  0.62395117  0.99809202  1
  Pr  Pr41  1  0.66077600  0.37488974  0.66516862  1
  Pr  Pr42  1  0.83062478  0.37114016  0.82694330  1
  Pr  Pr43  1  0.83519901  0.62588407  0.16944158  1
  Pr  Pr44  1  0.83768522  0.62457386  0.49638765  1
  Pr  Pr45  1  0.83314137  0.62897530  0.83242757  1
  Pr  Pr46  1  0.32423421  0.87573095  0.67198771  1
  Pr  Pr47  1  0.17224275  0.37323699  0.50169192  1
  Pr  Pr48  1  0.00344382  0.12422041  0.33037653  1
  Pr  Pr49  1  0.83555962  0.12547316  0.49736832  1
  Pr  Pr50  1  0.50418503  0.37795089  0.16370745  1
  Pr  Pr51  1  0.66859388  0.37173032  0.00047612  1
  Pr  Pr52  1  0.15770657  0.87504463  0.83216615  1
  Pr  Pr53  1  0.83138337  0.87291524  0.49571492  1
  Pr  Pr54  1  0.17197501  0.12506909  0.17189782  1
  Pr  Pr55  1  0.83002786  0.37689967  0.49450273  1
  Pr  Pr56  1  0.83394935  0.12526926  0.16606205  1
  Pr  Pr57  1  0.66888427  0.12496061  0.99040808  1
  Pr  Pr58  1  0.00054204  0.37437957  0.66870788  1
  Pr  Pr59  1  0.33370434  0.37703042  0.33543642  1
  Pr  Pr60  1  0.33799607  0.62135670  0.66400520  1
  Pr  Pr61  1  0.00082918  0.87613172  0.00056772  1
  Pr  Pr62  1  0.00306792  0.37415712  0.00377695  1
  Pr  Pr63  1  0.16469633  0.87211402  0.16894681  1
  Pr  Pr64  1  0.66181847  0.87603681  0.66756902  1
  Pr  Pr65  1  0.50643163  0.12382714  0.50302234  1
  Pr  Pr66  1  0.66844014  0.87930693  -0.00001855  1
  Pr  Pr67  1  0.50094500  0.62470119  0.83557121  1
  Pr  Pr68  1  0.32582185  0.37283934  0.67037977  1
  Pr  Pr69  1  -0.00209923  0.12227531  0.66658291  1
  Pr  Pr70  1  0.50556188  0.62689266  0.49523212  1
  Pr  Pr71  1  0.83532590  0.37893872  0.16328289  1
  Mn  Mn72  1  0.00043426  0.00187340  0.16478797  1
  Mn  Mn73  1  -0.00200223  0.00132771  0.50010622  1
  Mn  Mn74  1  -0.00392875  0.00138791  0.83462426  1
  Mn  Mn75  1  -0.00004419  0.49824252  0.16587398  1
  Mn  Mn76  1  0.00013365  0.49907440  0.50387258  1
  Mn  Mn77  1  -0.00482090  0.49722085  0.83467577  1
  Mn  Mn78  1  0.33452388  0.00181702  0.16773966  1
  Mn  Mn79  1  0.33608846  -0.00151549  0.50365028  1
  Mn  Mn80  1  0.33274120  -0.00026958  0.83597339  1
  Mn  Mn81  1  0.33561487  0.49813122  0.16849084  1
  Mn  Mn82  1  0.33515325  0.50115790  0.50050725  1
  Mn  Mn83  1  0.33340113  0.49977250  0.83235050  1
  Mn  Mn84  1  0.66821753  0.00249889  0.16297077  1
  Mn  Mn85  1  0.66793659  0.00075753  0.50042366  1
  Mn  Mn86  1  0.66432360  -0.00069863  0.83172769  1
  Mn  Mn87  1  0.66914452  0.49778001  0.16151071  1
  Mn  Mn88  1  0.66665347  0.50003906  0.49866914  1
  Mn  Mn89  1  0.66732296  0.49926352  0.83166893  1
  Mn  Mn90  1  0.00038337  0.24890252  0.16562781  1
  Mn  Mn91  1  -0.00217665  0.25091544  0.50259803  1
  Mn  Mn92  1  -0.00389321  0.25141025  0.83535352  1
  Mn  Mn93  1  0.00028513  0.75189640  0.16564180  1
  Mn  Mn94  1  0.00039509  0.74943432  0.50172691  1
  Mn  Mn95  1  -0.00432611  0.74902932  0.83435004  1
  Mn  Mn96  1  0.33582963  0.24689616  0.16893284  1
  Mn  Mn97  1  0.33735687  0.25198317  0.50153937  1
  Mn  Mn98  1  0.33392756  0.24928764  0.83510496  1
  Mn  Mn99  1  0.33409933  0.75129478  0.16746798  1
  Mn  Mn100  1  0.33451246  0.74842576  0.50377057  1
  Mn  Mn101  1  0.33258733  0.75040859  0.83329091  1
  Mn  Mn102  1  0.66815876  0.24824551  0.16256866  1
  Mn  Mn103  1  0.66666955  0.24939062  0.49910790  1
  Mn  Mn104  1  0.66622687  0.25058291  0.83178442  1
  Mn  Mn105  1  0.66886580  0.75270232  0.16161928  1
  Mn  Mn106  1  0.66786402  0.75061482  0.49849538  1
  Mn  Mn107  1  0.66573903  0.75128341  0.83103779  1
  Mn  Mn108  1  0.16559649  0.24959541  0.00568719  1
  Mn  Mn109  1  0.16863810  0.24920423  0.33681428  1
  Mn  Mn110  1  0.16344244  0.25157962  0.66983506  1
  Mn  Mn111  1  0.16536284  0.75012091  0.00188203  1
  Mn  Mn112  1  0.16881375  0.75012107  0.33773159  1
  Mn  Mn113  1  0.16638402  0.74809826  0.66898467  1
  Mn  Mn114  1  0.50279771  0.25018530  -0.00115954  1
  Mn  Mn115  1  0.49910342  0.24794836  0.33314665  1
  Mn  Mn116  1  0.50148042  0.25047637  0.66485292  1
  Mn  Mn117  1  0.50235734  0.75069690  -0.00346604  1
  Mn  Mn118  1  0.49948192  0.75216026  0.33164642  1
  Mn  Mn119  1  0.49808758  0.74957585  0.66452532  1
  Mn  Mn120  1  0.83404651  0.25003599  -0.00318936  1
  Mn  Mn121  1  0.83359261  0.24848373  0.33181870  1
  Mn  Mn122  1  0.83245034  0.24938038  0.66367918  1
  Mn  Mn123  1  0.83409260  0.75073946  -0.00204454  1
  Mn  Mn124  1  0.83315494  0.75090577  0.33072401  1
  Mn  Mn125  1  0.83098565  0.75060462  0.66582986  1
  Mn  Mn126  1  0.16506398  0.00048790  0.00461592  1
  Mn  Mn127  1  0.16779790  0.00183973  0.33618538  1
  Mn  Mn128  1  0.16434161  -0.00079025  0.66964593  1
  Mn  Mn129  1  0.16623233  0.49995353  0.00276896  1
  Mn  Mn130  1  0.16921049  0.49871024  0.33821605  1
  Mn  Mn131  1  0.16516725  0.50016810  0.66861729  1
  Mn  Mn132  1  0.50233087  0.00038500  -0.00150837  1
  Mn  Mn133  1  0.50031815  0.00187677  0.33373974  1
  Mn  Mn134  1  0.50048010  0.00005553  0.66646113  1
  Mn  Mn135  1  0.50272507  0.49884946  -0.00332233  1
  Mn  Mn136  1  0.49922714  0.49844937  0.33213121  1
  Mn  Mn137  1  0.49975530  0.49913533  0.66316027  1
  Mn  Mn138  1  0.83411621  -0.00029183  -0.00210326  1
  Mn  Mn139  1  0.83323621  0.00276491  0.33161429  1
  Mn  Mn140  1  0.83057719  0.00266628  0.66494828  1
  Mn  Mn141  1  0.83351350  0.49963645  -0.00377739  1
  Mn  Mn142  1  0.83341001  0.49908120  0.33116643  1
  Mn  Mn143  1  0.83327348  0.49787423  0.66472731  1
  O  O144  1  0.15391180  0.12630764  0.02815208  1
  O  O145  1  0.16048012  0.12684407  0.34917842  1
  O  O146  1  0.15702148  0.12896048  0.67905009  1
  O  O147  1  0.15509469  0.62542007  0.01353524  1
  O  O148  1  0.17562602  0.62113222  0.35306710  1
  O  O149  1  0.16506411  0.62359102  0.67989651  1
  O  O150  1  0.50251473  0.12643313  0.02111425  1
  O  O151  1  0.50331415  0.12425712  0.35909181  1
  O  O152  1  0.50859968  0.12547459  0.68555424  1
  O  O153  1  0.49809753  0.62480451  0.00818799  1
  O  O154  1  0.49359275  0.62577043  0.35093273  1
  O  O155  1  0.49485636  0.62542586  0.69281270  1
  O  O156  1  0.82744576  0.12501584  0.02250446  1
  O  O157  1  0.82998574  0.12595475  0.35351242  1
  O  O158  1  0.82738363  0.12801448  0.68794040  1
  O  O159  1  0.82783884  0.62447307  0.02642724  1
  O  O160  1  0.83237276  0.62356677  0.34803333  1
  O  O161  1  0.83540473  0.61825575  0.69094937  1
  O  O162  1  0.17657748  0.37009805  0.31419804  1
  O  O163  1  0.16642425  0.37674824  0.64687044  1
  O  O164  1  0.16245038  0.37372216  0.98021648  1
  O  O165  1  0.16821296  0.88103680  0.31352360  1
  O  O166  1  0.17053571  0.87072770  0.64868001  1
  O  O167  1  0.16237422  0.87441272  0.97583092  1
  O  O168  1  0.49175600  0.36818608  0.30699887  1
  O  O169  1  0.50759300  0.37352117  0.64569522  1
  O  O170  1  0.50966624  0.37419507  0.97296278  1
  O  O171  1  0.49930503  0.88156163  0.30733760  1
  O  O172  1  0.50387294  0.87451171  0.64109466  1
  O  O173  1  0.50993076  0.87449014  0.97294327  1
  O  O174  1  0.83400169  0.37021822  0.30896795  1
  O  O175  1  0.83794216  0.37214841  0.63697859  1
  O  O176  1  0.83539990  0.37539861  0.96984254  1
  O  O177  1  0.83424229  0.88140374  0.30787493  1
  O  O178  1  0.82527972  0.88160211  0.63938852  1
  O  O179  1  0.84030142  0.87509846  0.97680582  1
  O  O180  1  -0.01134589  0.37164947  0.17915055  1
  O  O181  1  -0.01308058  0.37448556  0.52560371  1
  O  O182  1  -0.01567123  0.37439010  0.86171782  1
  O  O183  1  -0.01006385  0.87888152  0.17858567  1
  O  O184  1  -0.00771239  0.87555406  0.51108744  1
  O  O185  1  -0.00166042  0.87693908  0.85517928  1
  O  O186  1  0.33881112  0.36878802  0.19078044  1
  O  O187  1  0.33809133  0.38058637  0.52651239  1
  O  O188  1  0.33581011  0.37399824  0.84473555  1
  O  O189  1  0.33699562  0.87871222  0.17813408  1
  O  O190  1  0.34740837  0.87038652  0.52822202  1
  O  O191  1  0.33893885  0.87410915  0.84713131  1
  O  O192  1  0.66809700  0.37025662  0.17637390  1
  O  O193  1  0.67254814  0.37240918  0.52142130  1
  O  O194  1  0.66979338  0.37654725  0.85758550  1
  O  O195  1  0.66667697  0.88052190  0.17519159  1
  O  O196  1  0.67197213  0.87780144  0.52395976  1
  O  O197  1  0.66186806  0.87493587  0.85643412  1
  O  O198  1  0.00508965  0.12576846  0.13744987  1
  O  O199  1  -0.00364063  0.12756275  0.47632458  1
  O  O200  1  -0.00122949  0.12940138  0.81073767  1
  O  O201  1  -0.00534851  0.62436489  0.14182090  1
  O  O202  1  -0.00219517  0.62326360  0.49182970  1
  O  O203  1  -0.00673464  0.61848516  0.80821546  1
  O  O204  1  0.33349186  0.12486515  0.13790705  1
  O  O205  1  0.33909078  0.12680723  0.48401703  1
  O  O206  1  0.33582329  0.12599886  0.82508666  1
  O  O207  1  0.33416144  0.62542600  0.14332017  1
  O  O208  1  0.33072192  0.62226666  0.47409547  1
  O  O209  1  0.34034757  0.62559224  0.80905914  1
  O  O210  1  0.66767271  0.12545176  0.13335583  1
  O  O211  1  0.66126163  0.12348413  0.47470807  1
  O  O212  1  0.66635938  0.12490720  0.80982642  1
  O  O213  1  0.67658674  0.62513326  0.13906590  1
  O  O214  1  0.66368064  0.62638095  0.48698436  1
  O  O215  1  0.67057641  0.62436955  0.81772660  1
  O  O216  1  0.08363335  0.02124350  0.24605518  1
  O  O217  1  0.07622649  0.01108578  0.58885734  1
  O  O218  1  0.07612008  0.01233826  0.92609409  1
  O  O219  1  0.08820524  0.50055254  0.25169871  1
  O  O220  1  0.07688491  0.50927100  0.59281212  1
  O  O221  1  0.07084697  0.50760759  0.92231775  1
  O  O222  1  0.41747780  0.02675457  0.24942043  1
  O  O223  1  0.42976974  0.01486180  0.57642325  1
  O  O224  1  0.41919606  0.01561698  0.91896338  1
  O  O225  1  0.41455608  0.51275667  0.25293821  1
  O  O226  1  0.41937124  0.52706910  0.57468551  1
  O  O227  1  0.42109720  0.51634392  0.90991534  1
  O  O228  1  0.74962413  0.02705993  0.24605431  1
  O  O229  1  0.75125687  0.02791740  0.57953562  1
  O  O230  1  0.74660057  0.01340925  0.91829668  1
  O  O231  1  0.75645274  0.51002569  0.23587933  1
  O  O232  1  0.75950964  0.51157210  0.57606370  1
  O  O233  1  0.75111790  0.52074183  0.91448576  1
  O  O234  1  0.25649376  0.22573171  0.25391279  1
  O  O235  1  0.25319234  0.25100776  0.58629372  1
  O  O236  1  0.25122332  0.23369835  0.93057966  1
  O  O237  1  0.25524947  0.73616139  0.26117823  1
  O  O238  1  0.26152914  0.73458623  0.59647850  1
  O  O239  1  0.25599178  0.73183603  0.92773789  1
  O  O240  1  0.58304532  0.22631265  0.24797451  1
  O  O241  1  0.59120015  0.22996666  0.58873874  1
  O  O242  1  0.58709388  0.23136252  0.91949497  1
  O  O243  1  0.58263278  0.74765692  0.24177244  1
  O  O244  1  0.57978826  0.74008766  0.57926816  1
  O  O245  1  0.58445965  0.72749282  0.91358311  1
  O  O246  1  0.91903927  0.22243983  0.24657173  1
  O  O247  1  0.91498709  0.22179327  0.58515283  1
  O  O248  1  0.91420868  0.22651666  0.91643675  1
  O  O249  1  0.91359918  0.73681741  0.24176193  1
  O  O250  1  0.91832457  0.73049296  0.58714199  1
  O  O251  1  0.91536020  0.72244520  0.91919116  1
  O  O252  1  0.08237096  0.47755915  0.08542805  1
  O  O253  1  0.08911961  0.48250325  0.42962432  1
  O  O254  1  0.07905402  0.47337109  0.75777662  1
  O  O255  1  0.08226333  0.97263874  0.08539157  1
  O  O256  1  0.08440025  0.98821837  0.42150541  1
  O  O257  1  0.08307143  0.98505946  0.75826041  1
  O  O258  1  0.42371368  0.48254020  0.08633473  1
  O  O259  1  0.40901549  0.48287152  0.41318127  1
  O  O260  1  0.41314311  0.47985022  0.73927757  1
  O  O261  1  0.42655488  0.98946873  0.08886601  1
  O  O262  1  0.41813048  0.98862853  0.41960872  1
  O  O263  1  0.41510662  0.97907871  0.74374046  1
  O  O264  1  0.75246391  0.47372158  0.07594068  1
  O  O265  1  0.75194730  0.48602536  0.41674453  1
  O  O266  1  0.74804077  0.47280862  0.74530025  1
  O  O267  1  0.75453757  0.97933941  0.08168191  1
  O  O268  1  0.75155717  0.98747695  0.42151686  1
  O  O269  1  0.73893011  0.98392780  0.74169413  1
  O  O270  1  0.24346783  0.26189583  0.09655290  1
  O  O271  1  0.25364508  0.27128963  0.42172327  1
  O  O272  1  0.24524267  0.26998009  0.75361088  1
  O  O273  1  0.24274147  0.76603324  0.09252379  1
  O  O274  1  0.24595848  0.76956128  0.43484658  1
  O  O275  1  0.24441874  0.77161734  0.75827122  1
  O  O276  1  0.58584730  0.27143473  0.08049807  1
  O  O277  1  0.57821205  0.25938133  0.42095446  1
  O  O278  1  0.58155377  0.27339498  0.75109908  1
  O  O279  1  0.58924412  0.76996743  0.07541162  1
  O  O280  1  0.57851082  0.76460936  0.42005999  1
  O  O281  1  0.57593845  0.77113737  0.75053065  1
  O  O282  1  0.91726785  0.26550564  0.07883763  1
  O  O283  1  0.91218127  0.26237290  0.42409806  1
  O  O284  1  0.91433963  0.27120545  0.74653812  1
  O  O285  1  0.91658013  0.76830206  0.07989612  1
  O  O286  1  0.90938333  0.75826311  0.42414212  1
  O  O287  1  0.90642420  0.75855250  0.75678528  1
  O  O288  1  0.24807838  0.48267206  0.09490903  1
  O  O289  1  0.25080344  0.47392855  0.42435152  1
  O  O290  1  0.24686597  0.47999051  0.75308951  1
  O  O291  1  0.23951894  0.98911977  0.09721167  1
  O  O292  1  0.24877028  0.98621252  0.42775457  1
  O  O293  1  0.24492906  0.97928773  0.75759271  1
  O  O294  1  0.58939484  0.48041363  0.07630705  1
  O  O295  1  0.57564635  0.49161388  0.41763327  1
  O  O296  1  0.58178441  0.47892453  0.75280280  1
  O  O297  1  0.58567053  0.98059568  0.08012002  1
  O  O298  1  0.57817766  0.98430861  0.42747725  1
  O  O299  1  0.57747201  0.97508220  0.75235513  1
  O  O300  1  0.91654717  0.47988485  0.07515226  1
  O  O301  1  0.91188373  0.48863922  0.42496178  1
  O  O302  1  0.91319078  0.47282434  0.75026847  1
  O  O303  1  0.91655888  0.98599428  0.08201991  1
  O  O304  1  0.91120017  0.99227839  0.42114914  1
  O  O305  1  0.91044623  0.99364375  0.75050956  1
  O  O306  1  0.08372123  0.27601692  0.08798444  1
  O  O307  1  0.08728956  0.26892729  0.42995752  1
  O  O308  1  0.08062452  0.27810030  0.75860029  1
  O  O309  1  0.08080688  0.77476496  0.08215470  1
  O  O310  1  0.08699139  0.76272496  0.42272148  1
  O  O311  1  0.08229662  0.76287521  0.75602502  1
  O  O312  1  0.42624910  0.26198454  0.09077317  1
  O  O313  1  0.41068579  0.26536182  0.40846497  1
  O  O314  1  0.41666900  0.27056529  0.74225790  1
  O  O315  1  0.42534165  0.76555805  0.08336503  1
  O  O316  1  0.42031491  0.76146161  0.42431572  1
  O  O317  1  0.41233029  0.77127048  0.74257032  1
  O  O318  1  0.75529172  0.27205591  0.07993605  1
  O  O319  1  0.75043077  0.26065770  0.41961113  1
  O  O320  1  0.74680150  0.27382967  0.74267577  1
  O  O321  1  0.75173743  0.77597916  0.07685492  1
  O  O322  1  0.75157999  0.76548768  0.41667614  1
  O  O323  1  0.74163816  0.77118082  0.74342927  1
  O  O324  1  0.25397890  0.02475437  0.25535402  1
  O  O325  1  0.25536339  -0.00027208  0.58972897  1
  O  O326  1  0.25265841  0.01811661  0.93152858  1
  O  O327  1  0.25929195  0.50865200  0.26136212  1
  O  O328  1  0.25904009  0.51394113  0.58754535  1
  O  O329  1  0.25444264  0.51487270  0.92652751  1
  O  O330  1  0.58535074  0.02626975  0.24800735  1
  O  O331  1  0.59229482  0.01838713  0.59041577  1
  O  O332  1  0.58688438  0.02041780  0.91823527  1
  O  O333  1  0.58230479  0.50121095  0.24221876  1
  O  O334  1  0.58163092  0.51110700  0.58206042  1
  O  O335  1  0.58561434  0.52072414  0.91263711  1
  O  O336  1  0.91933040  0.02843091  0.24653247  1
  O  O337  1  0.91481238  0.02488018  0.58346536  1
  O  O338  1  0.91702641  0.02191045  0.91986024  1
  O  O339  1  0.91337418  0.51363542  0.24064875  1
  O  O340  1  0.91744579  0.52215979  0.58775031  1
  O  O341  1  0.91138564  0.52874740  0.91442094  1
  O  O342  1  0.08295422  0.23156360  0.24921710  1
  O  O343  1  0.07100480  0.24285572  0.59655337  1
  O  O344  1  0.07529510  0.24007276  0.92708416  1
  O  O345  1  0.08473765  0.74854745  0.24489538  1
  O  O346  1  0.08485598  0.73765598  0.58594763  1
  O  O347  1  0.07402641  0.73937507  0.92282293  1
  O  O348  1  0.41839029  0.21891409  0.24946945  1
  O  O349  1  0.42890545  0.23562628  0.57419278  1
  O  O350  1  0.41974754  0.23478757  0.91972574  1
  O  O351  1  0.41452365  0.73638117  0.25343288  1
  O  O352  1  0.41988624  0.71971507  0.58149720  1
  O  O353  1  0.42114562  0.73231509  0.90986614  1
  O  O354  1  0.74927218  0.22481715  0.24407456  1
  O  O355  1  0.75160710  0.22727358  0.58019097  1
  O  O356  1  0.74843100  0.23417847  0.91668902  1
  O  O357  1  0.75626908  0.74058597  0.23707013  1
  O  O358  1  0.75948692  0.73604767  0.57341434  1
  O  O359  1  0.75223100  0.73189170  0.91569122  1
