# generated using pymatgen
data_Ba17Sr5La8Pr42Mn72O216
_symmetry_space_group_name_H-M   'P 1'
_cell_length_a   16.67172134
_cell_length_b   15.70329407
_cell_length_c   16.81898348
_cell_angle_alpha   90.01432009
_cell_angle_beta   90.03137817
_cell_angle_gamma   89.97945061
_symmetry_Int_Tables_number   1
_chemical_formula_structural   Ba17Sr5La8Pr42Mn72O216
_chemical_formula_sum   'Ba17 Sr5 La8 Pr42 Mn72 O216'
_cell_volume   4403.22465271
_cell_formula_units_Z   1
loop_
 _symmetry_equiv_pos_site_id
 _symmetry_equiv_pos_as_xyz
  1  'x, y, z'
loop_
 _atom_site_type_symbol
 _atom_site_label
 _atom_site_symmetry_multiplicity
 _atom_site_fract_x
 _atom_site_fract_y
 _atom_site_fract_z
 _atom_site_occupancy
  Ba  Ba0  1  0.00272346  0.37801028  0.00093252  1
  Ba  Ba1  1  -0.00034347  0.87331900  0.33295951  1
  Ba  Ba2  1  0.00099000  0.12625075  0.66502153  1
  Ba  Ba3  1  0.50237076  0.87285921  0.83281535  1
  Ba  Ba4  1  0.49627759  0.12617373  0.16844833  1
  Ba  Ba5  1  0.16966849  0.37570428  0.83458286  1
  Ba  Ba6  1  0.83313360  0.87524740  0.16550700  1
  Ba  Ba7  1  0.33394005  0.12560976  1.00085515  1
  Ba  Ba8  1  0.83161057  0.12634722  0.16450445  1
  Ba  Ba9  1  0.50072514  0.62405179  0.83496233  1
  Ba  Ba10  1  0.83257344  0.37508573  0.16373930  1
  Ba  Ba11  1  0.50056773  0.12649092  0.50121666  1
  Ba  Ba12  1  0.16443582  0.12482576  0.49870617  1
  Ba  Ba13  1  0.50138848  0.87242757  0.50044618  1
  Ba  Ba14  1  0.66803009  0.87293091  0.00029723  1
  Ba  Ba15  1  0.66932520  0.87537208  0.66621275  1
  Ba  Ba16  1  0.66619075  0.12524476  0.66667510  1
  Sr  Sr17  1  0.49762734  0.62117294  0.50575082  1
  Sr  Sr18  1  0.66755187  0.37295389  0.33462703  1
  Sr  Sr19  1  0.33674479  0.37629199  0.00047223  1
  Sr  Sr20  1  0.33421852  0.37419076  0.66894760  1
  Sr  Sr21  1  -0.00499762  0.62389649  0.99912649  1
  La  La22  1  0.82790811  0.62578172  0.49984495  1
  La  La23  1  0.83272983  0.12377356  0.83276742  1
  La  La24  1  0.00425956  0.87393040  0.00527947  1
  La  La25  1  0.83223906  0.62602566  0.83331835  1
  La  La26  1  0.17024005  0.37302981  0.50096495  1
  La  La27  1  0.33037578  0.62681227  0.33222579  1
  La  La28  1  0.00552474  0.37287143  0.67001673  1
  La  La29  1  0.33086084  0.62474185  0.66583119  1
  Pr  Pr30  1  0.16047586  0.62787457  0.50256528  1
  Pr  Pr31  1  0.83162302  0.62422369  0.16530492  1
  Pr  Pr32  1  0.66421205  0.37728170  0.00419298  1
  Pr  Pr33  1  0.33612198  0.87655020  0.33557182  1
  Pr  Pr34  1  0.17307301  0.37645742  0.15913228  1
  Pr  Pr35  1  0.50339469  0.87529717  0.16464051  1
  Pr  Pr36  1  0.66774798  0.88000244  0.33721289  1
  Pr  Pr37  1  0.83881405  0.87400159  0.82954897  1
  Pr  Pr38  1  -0.00931386  0.62617200  0.32958350  1
  Pr  Pr39  1  0.49744312  0.62204632  0.16819413  1
  Pr  Pr40  1  0.17365725  0.87309991  0.16331266  1
  Pr  Pr41  1  0.33894276  0.37405281  0.33622406  1
  Pr  Pr42  1  0.17312835  0.87501702  0.83296203  1
  Pr  Pr43  1  0.65951812  0.62326210  0.33360610  1
  Pr  Pr44  1  0.83178429  0.12463397  0.50058329  1
  Pr  Pr45  1  0.83313791  0.87806481  0.49456288  1
  Pr  Pr46  1  0.50197024  0.37442288  0.50188522  1
  Pr  Pr47  1  0.66359306  0.37560992  0.66895428  1
  Pr  Pr48  1  0.16365984  0.12763047  0.83644781  1
  Pr  Pr49  1  0.65904952  0.62738582  0.66350921  1
  Pr  Pr50  1  0.50139027  0.37432499  0.16647590  1
  Pr  Pr51  1  0.00235950  0.37489663  0.33187534  1
  Pr  Pr52  1  0.33106852  0.62388644  0.99449501  1
  Pr  Pr53  1  0.65950093  0.12527418  0.33069605  1
  Pr  Pr54  1  0.17067599  0.87848908  0.49641686  1
  Pr  Pr55  1  -0.00292407  0.62053123  0.66555980  1
  Pr  Pr56  1  0.33842466  0.87634608  0.66570796  1
  Pr  Pr57  1  0.83597714  0.37582509  0.82974270  1
  Pr  Pr58  1  0.49407018  0.37367948  0.83275486  1
  Pr  Pr59  1  0.67117247  0.62461130  0.99935562  1
  Pr  Pr60  1  -0.00562483  0.12711742  0.99689142  1
  Pr  Pr61  1  0.50536956  0.12296138  0.83893211  1
  Pr  Pr62  1  -0.00844152  0.12495744  0.33105266  1
  Pr  Pr63  1  0.83634388  0.37422938  0.49424269  1
  Pr  Pr64  1  0.34334023  0.87336211  0.00150934  1
  Pr  Pr65  1  0.00650117  0.87580466  0.66620403  1
  Pr  Pr66  1  0.16318961  0.62309034  0.83712275  1
  Pr  Pr67  1  0.15764682  0.62416157  0.16836999  1
  Pr  Pr68  1  0.16129374  0.12752434  0.17129207  1
  Pr  Pr69  1  0.66929964  0.12624851  0.99850818  1
  Pr  Pr70  1  0.32765071  0.12333940  0.32688996  1
  Pr  Pr71  1  0.33276999  0.12603554  0.66680071  1
  Mn  Mn72  1  0.00254034  -0.00035115  0.16532626  1
  Mn  Mn73  1  -0.00074543  -0.00107236  0.49997530  1
  Mn  Mn74  1  0.00241646  -0.00208541  0.83452889  1
  Mn  Mn75  1  -0.00003692  0.50234442  0.16762495  1
  Mn  Mn76  1  0.00050281  0.50032991  0.49850334  1
  Mn  Mn77  1  -0.00035148  0.50076465  0.83191800  1
  Mn  Mn78  1  0.33084528  -0.00210622  0.16649604  1
  Mn  Mn79  1  0.33339264  0.00135967  0.49970595  1
  Mn  Mn80  1  0.33304152  -0.00004401  0.83255304  1
  Mn  Mn81  1  0.33269029  0.50246430  0.16658724  1
  Mn  Mn82  1  0.33095885  0.49966633  0.49991759  1
  Mn  Mn83  1  0.33285962  0.50019031  0.83277327  1
  Mn  Mn84  1  0.66516609  0.00106734  0.16730743  1
  Mn  Mn85  1  0.66738515  0.00074695  0.49933952  1
  Mn  Mn86  1  0.66955515  0.00035785  0.83334806  1
  Mn  Mn87  1  0.66447347  0.50031447  0.16713620  1
  Mn  Mn88  1  0.66730162  0.49885072  0.50166167  1
  Mn  Mn89  1  0.66858230  0.49819616  0.83449775  1
  Mn  Mn90  1  0.00145007  0.25009685  0.16690207  1
  Mn  Mn91  1  -0.00019465  0.25359599  0.49883424  1
  Mn  Mn92  1  0.00062767  0.25047139  0.83227241  1
  Mn  Mn93  1  0.00067068  0.74971876  0.16547871  1
  Mn  Mn94  1  -0.00126196  0.74800353  0.50141867  1
  Mn  Mn95  1  0.00230094  0.75060859  0.83329020  1
  Mn  Mn96  1  0.33120960  0.25253874  0.16757375  1
  Mn  Mn97  1  0.33319135  0.25118444  0.50084072  1
  Mn  Mn98  1  0.33380578  0.24926090  0.83254504  1
  Mn  Mn99  1  0.33356250  0.74714512  0.16513873  1
  Mn  Mn100  1  0.33092720  0.74800126  0.49871277  1
  Mn  Mn101  1  0.33163823  0.74974172  0.83232639  1
  Mn  Mn102  1  0.66463860  0.25148119  0.16765541  1
  Mn  Mn103  1  0.66891546  0.25308209  0.50038804  1
  Mn  Mn104  1  0.66828446  0.25354102  0.83480318  1
  Mn  Mn105  1  0.66457560  0.74571022  0.16914720  1
  Mn  Mn106  1  0.66623985  0.74780884  0.49871152  1
  Mn  Mn107  1  0.66993638  0.74790381  0.83173370  1
  Mn  Mn108  1  0.16852950  0.24932401  0.00237150  1
  Mn  Mn109  1  0.16551458  0.25344488  0.33120235  1
  Mn  Mn110  1  0.16892854  0.24972080  0.66657980  1
  Mn  Mn111  1  0.16788720  0.74934230  -0.00070704  1
  Mn  Mn112  1  0.16645855  0.74838099  0.33466028  1
  Mn  Mn113  1  0.16588043  0.75012790  0.66750332  1
  Mn  Mn114  1  0.50143933  0.25162420  0.00033364  1
  Mn  Mn115  1  0.49859467  0.25259677  0.33567950  1
  Mn  Mn116  1  0.49821101  0.25171246  0.66912782  1
  Mn  Mn117  1  0.50030735  0.74793181  0.00368263  1
  Mn  Mn118  1  0.49929344  0.74645955  0.33247906  1
  Mn  Mn119  1  0.49855337  0.74836887  0.66615790  1
  Mn  Mn120  1  0.83347314  0.25101415  -0.00360820  1
  Mn  Mn121  1  0.83229590  0.25272927  0.33329964  1
  Mn  Mn122  1  0.83243513  0.25289348  0.66325108  1
  Mn  Mn123  1  0.83478720  0.74914384  -0.00217821  1
  Mn  Mn124  1  0.82985698  0.74681664  0.33372662  1
  Mn  Mn125  1  0.83711505  0.74810712  0.66521798  1
  Mn  Mn126  1  0.16729500  -0.00038462  0.00037591  1
  Mn  Mn127  1  0.16528374  -0.00088884  0.33146078  1
  Mn  Mn128  1  0.16873574  -0.00279546  0.66700292  1
  Mn  Mn129  1  0.16865585  0.50193699  0.00156056  1
  Mn  Mn130  1  0.16596344  0.50045506  0.33367247  1
  Mn  Mn131  1  0.16667560  0.50259202  0.66603967  1
  Mn  Mn132  1  0.50223218  0.00039015  0.00120497  1
  Mn  Mn133  1  0.49770779  -0.00054776  0.33336484  1
  Mn  Mn134  1  0.49945891  0.00093847  0.66872841  1
  Mn  Mn135  1  0.49927551  0.49971587  0.00235732  1
  Mn  Mn136  1  0.49874434  0.50026994  0.33658791  1
  Mn  Mn137  1  0.49795181  0.49876897  0.66790263  1
  Mn  Mn138  1  0.83459271  0.00027198  -0.00294819  1
  Mn  Mn139  1  0.83160477  0.00138715  0.33339819  1
  Mn  Mn140  1  0.83706474  -0.00064335  0.66474974  1
  Mn  Mn141  1  0.83317135  0.50106782  -0.00212319  1
  Mn  Mn142  1  0.83189529  0.49963561  0.33289241  1
  Mn  Mn143  1  0.83210730  0.49964010  0.66417144  1
  O  O144  1  0.16518595  0.12187079  0.02612992  1
  O  O145  1  0.17884416  0.12496359  0.34288886  1
  O  O146  1  0.17384719  0.11822685  0.69037141  1
  O  O147  1  0.17926544  0.62754620  0.02449047  1
  O  O148  1  0.17454667  0.62241001  0.36153175  1
  O  O149  1  0.16515381  0.62949751  0.69297967  1
  O  O150  1  0.50968706  0.12745558  0.01101729  1
  O  O151  1  0.49921354  0.12832139  0.34445635  1
  O  O152  1  0.49409018  0.12941763  0.69141535  1
  O  O153  1  0.49403544  0.62345432  0.02487738  1
  O  O154  1  0.50268517  0.62221130  0.35746092  1
  O  O155  1  0.50300652  0.62141357  0.67602253  1
  O  O156  1  0.83949452  0.12530663  0.00654429  1
  O  O157  1  0.83990463  0.12991942  0.35581069  1
  O  O158  1  0.83573156  0.13050187  0.68834503  1
  O  O159  1  0.83145586  0.62488091  0.01879000  1
  O  O160  1  0.83868964  0.62218280  0.35531603  1
  O  O161  1  0.84217209  0.62261157  0.69176492  1
  O  O162  1  0.15769572  0.37980760  0.30329786  1
  O  O163  1  0.16321239  0.38103597  0.64622652  1
  O  O164  1  0.16792697  0.37714688  0.99303458  1
  O  O165  1  0.17014905  0.87327285  0.30773520  1
  O  O166  1  0.16466642  0.87032260  0.63986463  1
  O  O167  1  0.15991314  0.87344792  0.97553117  1
  O  O168  1  0.49183342  0.37865714  0.31009002  1
  O  O169  1  0.49775113  0.37699042  0.64670866  1
  O  O170  1  0.50393798  0.37634533  0.97691924  1
  O  O171  1  0.49693675  0.86919243  0.30881911  1
  O  O172  1  0.49100089  0.87233547  0.65829451  1
  O  O173  1  0.49477523  0.87294172  0.99025897  1
  O  O174  1  0.83349591  0.37796417  0.31925310  1
  O  O175  1  0.82637445  0.37844122  0.63673548  1
  O  O176  1  0.82571824  0.37664171  0.97654962  1
  O  O177  1  0.81956233  0.86956466  0.32392953  1
  O  O178  1  0.84174037  0.86834413  0.63855522  1
  O  O179  1  0.83819312  0.87466106  0.97613335  1
  O  O180  1  0.00846533  0.37886183  0.18751467  1
  O  O181  1  -0.00490902  0.38012808  0.52566830  1
  O  O182  1  -0.00405090  0.37597277  0.84294336  1
  O  O183  1  0.00726970  0.87180476  0.17551638  1
  O  O184  1  -0.00965139  0.86805587  0.52318773  1
  O  O185  1  0.00220414  0.87381648  0.86133078  1
  O  O186  1  0.32898382  0.38073138  0.19240896  1
  O  O187  1  0.32786675  0.37683895  0.52009775  1
  O  O188  1  0.33876873  0.37435725  0.85040491  1
  O  O189  1  0.33022144  0.86951699  0.19200643  1
  O  O190  1  0.32389949  0.87343745  0.52118696  1
  O  O191  1  0.32644509  0.87457260  0.85790411  1
  O  O192  1  0.66304896  0.37742074  0.18470675  1
  O  O193  1  0.67893896  0.37792730  0.52496437  1
  O  O194  1  0.67681658  0.37617328  0.86226925  1
  O  O195  1  0.66112770  0.86752039  0.19243856  1
  O  O196  1  0.67817404  0.87210473  0.50550753  1
  O  O197  1  0.67916646  0.87589239  0.84239631  1
  O  O198  1  0.00818129  0.12341331  0.14346807  1
  O  O199  1  -0.00505899  0.13059329  0.47512253  1
  O  O200  1  0.00340508  0.12250866  0.82137176  1
  O  O201  1  0.00055248  0.62692132  0.15059490  1
  O  O202  1  0.00774677  0.62270163  0.47178413  1
  O  O203  1  0.00190722  0.62773978  0.80854152  1
  O  O204  1  0.32354025  0.12419329  0.15958087  1
  O  O205  1  0.33286905  0.12811560  0.47232130  1
  O  O206  1  0.33296181  0.12322489  0.81189246  1
  O  O207  1  0.33927398  0.62564006  0.13694964  1
  O  O208  1  0.32582279  0.62232172  0.47451964  1
  O  O209  1  0.32579774  0.62698533  0.81299613  1
  O  O210  1  0.66161015  0.13078591  0.14634230  1
  O  O211  1  0.67208193  0.12899367  0.47570886  1
  O  O212  1  0.66419333  0.12931681  0.82251913  1
  O  O213  1  0.65731310  0.62173871  0.14207040  1
  O  O214  1  0.66376232  0.62186902  0.47833619  1
  O  O215  1  0.67466374  0.61906567  0.80692126  1
  O  O216  1  0.07926792  0.02353893  0.25610457  1
  O  O217  1  0.08189095  0.00104334  0.58644435  1
  O  O218  1  0.07855944  0.02034724  0.92512223  1
  O  O219  1  0.07788130  0.52638294  0.26052546  1
  O  O220  1  0.08003804  0.52392788  0.58403796  1
  O  O221  1  0.08601605  0.52028285  0.91895175  1
  O  O222  1  0.40360051  0.00898842  0.25794796  1
  O  O223  1  0.41055363  0.01378098  0.58803112  1
  O  O224  1  0.42038426  0.01337999  0.91280631  1
  O  O225  1  0.40886776  0.52352188  0.25369166  1
  O  O226  1  0.40756719  0.51704510  0.58627816  1
  O  O227  1  0.41141895  0.51370000  0.92604504  1
  O  O228  1  0.74082494  0.01681638  0.25833594  1
  O  O229  1  0.75531531  0.01234535  0.57561474  1
  O  O230  1  0.75013009  0.02176945  0.91699746  1
  O  O231  1  0.74643860  0.52539250  0.24767524  1
  O  O232  1  0.74791296  0.52827053  0.58759715  1
  O  O233  1  0.75183408  0.52386013  0.91412348  1
  O  O234  1  0.23840703  0.24092117  0.24136036  1
  O  O235  1  0.25130466  0.23615879  0.58228794  1
  O  O236  1  0.24482898  0.23250746  0.91043489  1
  O  O237  1  0.24752664  0.72547460  0.24032462  1
  O  O238  1  0.24128864  0.72666750  0.58100477  1
  O  O239  1  0.24281556  0.73101986  0.90976889  1
  O  O240  1  0.58119423  0.24167157  0.25574001  1
  O  O241  1  0.58413890  0.25190724  0.58647867  1
  O  O242  1  0.58986094  0.23660523  0.92069559  1
  O  O243  1  0.57911714  0.72142365  0.24937267  1
  O  O244  1  0.58362088  0.73456535  0.57980494  1
  O  O245  1  0.58521857  0.73223080  0.92759418  1
  O  O246  1  0.91998699  0.23978537  0.25357950  1
  O  O247  1  0.91002827  0.23959790  0.57223453  1
  O  O248  1  0.91480312  0.23534676  0.91024365  1
  O  O249  1  0.90888026  0.73021439  0.24701523  1
  O  O250  1  0.91480675  0.71942982  0.58029254  1
  O  O251  1  0.91054153  0.73484843  0.90398775  1
  O  O252  1  0.09350166  0.49461592  0.09580626  1
  O  O253  1  0.08831395  0.47547422  0.42207090  1
  O  O254  1  0.07978853  0.49111345  0.74365997  1
  O  O255  1  0.09501650  0.97859969  0.08892757  1
  O  O256  1  0.08760756  0.98334348  0.42154076  1
  O  O257  1  0.08968689  0.97687462  0.75664550  1
  O  O258  1  0.42236531  0.48041124  0.09432401  1
  O  O259  1  0.41689297  0.47786755  0.42180113  1
  O  O260  1  0.41989925  0.48507836  0.75590536  1
  O  O261  1  0.41610577  0.98092535  0.08858913  1
  O  O262  1  0.41357943  0.98294895  0.41413412  1
  O  O263  1  0.40908322  0.98768647  0.74708508  1
  O  O264  1  0.74190613  0.49114554  0.07582001  1
  O  O265  1  0.75548861  0.48852805  0.42348606  1
  O  O266  1  0.75109808  0.47563115  0.75042491  1
  O  O267  1  0.74965301  0.99607038  0.08178998  1
  O  O268  1  0.75120976  0.98912097  0.41631391  1
  O  O269  1  0.76364798  0.99019916  0.75597138  1
  O  O270  1  0.25482915  0.26908445  0.08183476  1
  O  O271  1  0.25176732  0.27358938  0.40760971  1
  O  O272  1  0.25557743  0.25643435  0.74597364  1
  O  O273  1  0.25728521  0.77413306  0.07485718  1
  O  O274  1  0.25147945  0.77213932  0.41191115  1
  O  O275  1  0.25160052  0.77359453  0.74422861  1
  O  O276  1  0.58144218  0.27534764  0.08398492  1
  O  O277  1  0.58397416  0.27220702  0.42145228  1
  O  O278  1  0.58282744  0.27590974  0.75605709  1
  O  O279  1  0.57678299  0.76166800  0.09326972  1
  O  O280  1  0.59171647  0.76325369  0.40419975  1
  O  O281  1  0.59094869  0.75142819  0.74814949  1
  O  O282  1  0.92163257  0.25617952  0.07808583  1
  O  O283  1  0.92232676  0.27507700  0.41245342  1
  O  O284  1  0.91403324  0.27364808  0.74348501  1
  O  O285  1  0.92431085  0.76229276  0.07035773  1
  O  O286  1  0.91502846  0.75859553  0.41893873  1
  O  O287  1  0.92758982  0.77196134  0.74299062  1
  O  O288  1  0.25560137  0.48482254  0.08221834  1
  O  O289  1  0.25229714  0.47516925  0.40970819  1
  O  O290  1  0.25280677  0.49411608  0.74216460  1
  O  O291  1  0.25515737  0.97245192  0.07647162  1
  O  O292  1  0.25161540  0.97944864  0.41112643  1
  O  O293  1  0.25196825  0.97305464  0.74663913  1
  O  O294  1  0.58005673  0.47831666  0.08692023  1
  O  O295  1  0.58435457  0.47688512  0.42327512  1
  O  O296  1  0.58530504  0.47460219  0.75609475  1
  O  O297  1  0.58025301  0.98328907  0.09014055  1
  O  O298  1  0.58962162  0.98922759  0.40995309  1
  O  O299  1  0.58248122  0.99728879  0.75492917  1
  O  O300  1  0.91443403  0.49642521  0.08240632  1
  O  O301  1  0.92474038  0.48054579  0.41267423  1
  O  O302  1  0.91496904  0.47802770  0.74137840  1
  O  O303  1  0.92810756  0.98924528  0.07106210  1
  O  O304  1  0.91181374  0.98663923  0.41909699  1
  O  O305  1  0.92529314  0.97420475  0.74698577  1
  O  O306  1  0.09497362  0.26204024  0.09646194  1
  O  O307  1  0.08579303  0.27566844  0.41675433  1
  O  O308  1  0.08355905  0.26006765  0.74963524  1
  O  O309  1  0.09601688  0.76292299  0.08902010  1
  O  O310  1  0.09122838  0.76551633  0.43318426  1
  O  O311  1  0.08950526  0.77488655  0.75521335  1
  O  O312  1  0.42023977  0.26921620  0.09073213  1
  O  O313  1  0.42034227  0.27613452  0.42320212  1
  O  O314  1  0.42020085  0.26799610  0.75423099  1
  O  O315  1  0.41836443  0.77187211  0.08947167  1
  O  O316  1  0.41167693  0.76199067  0.40720557  1
  O  O317  1  0.40974907  0.75770673  0.74740206  1
  O  O318  1  0.74349603  0.26051831  0.07213722  1
  O  O319  1  0.75676968  0.26800121  0.42134995  1
  O  O320  1  0.74933242  0.27509493  0.74860258  1
  O  O321  1  0.75155044  0.75002159  0.08883219  1
  O  O322  1  0.75452892  0.75556027  0.42187927  1
  O  O323  1  0.76797166  0.76138791  0.75534507  1
  O  O324  1  0.24054270  0.01092086  0.24064425  1
  O  O325  1  0.25308059  0.01348437  0.58609451  1
  O  O326  1  0.23922054  0.01525188  0.90642733  1
  O  O327  1  0.24368194  0.52455024  0.24391198  1
  O  O328  1  0.24233708  0.52264522  0.57691121  1
  O  O329  1  0.24824878  0.52123316  0.91425380  1
  O  O330  1  0.58189157  0.00919418  0.25382486  1
  O  O331  1  0.58514798  0.00555063  0.58106562  1
  O  O332  1  0.58799643  0.01682186  0.91863050  1
  O  O333  1  0.57968913  0.51926040  0.25046842  1
  O  O334  1  0.58757811  0.50856450  0.58878685  1
  O  O335  1  0.59190227  0.51440609  0.92633428  1
  O  O336  1  0.91603511  0.01263963  0.25368842  1
  O  O337  1  0.91262397  0.01630059  0.57726924  1
  O  O338  1  0.91307741  0.01560529  0.90754087  1
  O  O339  1  0.91417939  0.52067768  0.24738070  1
  O  O340  1  0.91444110  0.52277220  0.57638123  1
  O  O341  1  0.91203930  0.51483964  0.90868807  1
  O  O342  1  0.07691963  0.22698728  0.25875522  1
  O  O343  1  0.08172285  0.24891647  0.58154531  1
  O  O344  1  0.08265848  0.22967548  0.92378796  1
  O  O345  1  0.08083792  0.72529369  0.25949378  1
  O  O346  1  0.07521295  0.72785457  0.59307425  1
  O  O347  1  0.08172438  0.72778417  0.91949984  1
  O  O348  1  0.40049569  0.24062185  0.26213598  1
  O  O349  1  0.41175887  0.23644488  0.59143423  1
  O  O350  1  0.42537640  0.23694913  0.91141840  1
  O  O351  1  0.41537340  0.72375981  0.24894995  1
  O  O352  1  0.40711831  0.73303540  0.58380735  1
  O  O353  1  0.40687965  0.73696368  0.92679167  1
  O  O354  1  0.74337369  0.23486713  0.25809716  1
  O  O355  1  0.75357041  0.23208680  0.57926397  1
  O  O356  1  0.75339236  0.22944594  0.91145193  1
  O  O357  1  0.74374149  0.71997988  0.25405688  1
  O  O358  1  0.74832777  0.72510732  0.58889770  1
  O  O359  1  0.74840500  0.72798542  0.91890242  1
