# generated using pymatgen
data_Ba17Sr5La8Pr42Mn72O216
_symmetry_space_group_name_H-M   'P 1'
_cell_length_a   16.67525466
_cell_length_b   15.70786974
_cell_length_c   16.82025690
_cell_angle_alpha   89.98994246
_cell_angle_beta   90.00892311
_cell_angle_gamma   89.99639631
_symmetry_Int_Tables_number   1
_chemical_formula_structural   Ba17Sr5La8Pr42Mn72O216
_chemical_formula_sum   'Ba17 Sr5 La8 Pr42 Mn72 O216'
_cell_volume   4405.77564822
_cell_formula_units_Z   1
loop_
 _symmetry_equiv_pos_site_id
 _symmetry_equiv_pos_as_xyz
  1  'x, y, z'
loop_
 _atom_site_type_symbol
 _atom_site_label
 _atom_site_symmetry_multiplicity
 _atom_site_fract_x
 _atom_site_fract_y
 _atom_site_fract_z
 _atom_site_occupancy
  Ba  Ba0  1  0.50179061  0.37407208  0.16400019  1
  Ba  Ba1  1  0.83142872  0.62609972  0.17101353  1
  Ba  Ba2  1  0.83363130  0.62494303  0.83866568  1
  Ba  Ba3  1  0.00052097  0.37487501  0.33741621  1
  Ba  Ba4  1  -0.00092032  0.37148388  0.00349687  1
  Ba  Ba5  1  0.50307729  0.87402503  0.83049944  1
  Ba  Ba6  1  0.66712262  0.37499074  0.33737537  1
  Ba  Ba7  1  0.33541111  0.87703842  -0.00367723  1
  Ba  Ba8  1  0.16476001  0.37447327  0.16693832  1
  Ba  Ba9  1  0.66699032  0.12398140  0.33390335  1
  Ba  Ba10  1  0.33028743  0.62840321  0.32993072  1
  Ba  Ba11  1  0.66625676  0.87631552  0.33595042  1
  Ba  Ba12  1  0.49789073  0.87581962  0.49795337  1
  Ba  Ba13  1  0.49876949  0.37493709  0.49527542  1
  Ba  Ba14  1  -0.00103057  0.12418048  0.66670926  1
  Ba  Ba15  1  0.16848717  0.87458104  0.83135576  1
  Ba  Ba16  1  0.16715250  0.62425189  0.16738501  1
  Sr  Sr17  1  0.83543671  0.37362500  0.49987351  1
  Sr  Sr18  1  0.33210672  0.12308040  0.66155333  1
  Sr  Sr19  1  0.33232801  0.87543054  0.33047822  1
  Sr  Sr20  1  0.16413901  0.37186220  0.49590770  1
  Sr  Sr21  1  0.49839820  0.62629711  0.83244611  1
  La  La22  1  0.83551044  0.87779043  0.50386111  1
  La  La23  1  0.49743691  0.12301577  0.16517196  1
  La  La24  1  0.67070279  0.87458338  0.67030859  1
  La  La25  1  0.66173344  0.62307206  0.99687642  1
  La  La26  1  0.49622630  0.62711429  0.16558688  1
  La  La27  1  0.83005937  0.87580310  0.17061720  1
  La  La28  1  0.66330785  0.12492704  0.66257004  1
  La  La29  1  0.00212193  0.62013149  1.00151082  1
  Pr  Pr30  1  0.33325526  0.62964514  0.66122891  1
  Pr  Pr31  1  0.16500975  0.62066319  0.49899109  1
  Pr  Pr32  1  -0.00232425  0.87381831  0.00608517  1
  Pr  Pr33  1  0.00275550  0.12584625  0.33619823  1
  Pr  Pr34  1  0.00096863  0.37345696  0.66951341  1
  Pr  Pr35  1  0.66252152  0.12619565  0.99751073  1
  Pr  Pr36  1  0.83988654  0.37628074  0.83313791  1
  Pr  Pr37  1  0.65785792  0.62479884  0.33394385  1
  Pr  Pr38  1  0.49567119  0.12469527  0.49702911  1
  Pr  Pr39  1  0.50480422  0.37567950  0.82471310  1
  Pr  Pr40  1  0.83169323  0.62116699  0.50412642  1
  Pr  Pr41  1  0.83244219  0.37376381  0.17016191  1
  Pr  Pr42  1  0.83361277  0.12524960  0.84008672  1
  Pr  Pr43  1  0.50099076  0.87428422  0.16319490  1
  Pr  Pr44  1  0.16902156  0.62381458  0.83787209  1
  Pr  Pr45  1  -0.00007637  0.62196325  0.33175103  1
  Pr  Pr46  1  0.00026458  0.87139412  0.33443378  1
  Pr  Pr47  1  0.16749864  0.37361345  0.83019647  1
  Pr  Pr48  1  0.33395463  0.12852500  0.99415115  1
  Pr  Pr49  1  0.17123643  0.12475935  0.16592263  1
  Pr  Pr50  1  0.66764646  0.87009440  0.00361581  1
  Pr  Pr51  1  0.17064424  0.12414844  0.83327559  1
  Pr  Pr52  1  0.83651232  0.87370473  0.83487309  1
  Pr  Pr53  1  0.67304700  0.37594709  0.66614085  1
  Pr  Pr54  1  0.32768166  0.37800032  0.33610938  1
  Pr  Pr55  1  0.33828588  0.87668795  0.67279247  1
  Pr  Pr56  1  0.16605440  0.87876417  0.49944047  1
  Pr  Pr57  1  0.00092463  0.62676125  0.66652308  1
  Pr  Pr58  1  0.66112450  0.62583205  0.66598851  1
  Pr  Pr59  1  0.33456754  0.37618194  0.00179515  1
  Pr  Pr60  1  0.00057980  0.87549973  0.67498655  1
  Pr  Pr61  1  0.83208777  0.13058903  0.50056477  1
  Pr  Pr62  1  0.33422877  0.12520009  0.33314441  1
  Pr  Pr63  1  0.83669464  0.12543252  0.17403052  1
  Pr  Pr64  1  0.33435437  0.37470358  0.66554307  1
  Pr  Pr65  1  0.16567670  0.12889675  0.50360821  1
  Pr  Pr66  1  0.00644309  0.12567163  0.99780182  1
  Pr  Pr67  1  0.33259605  0.62279776  0.99722674  1
  Pr  Pr68  1  0.16770794  0.87072620  0.16170159  1
  Pr  Pr69  1  0.67237777  0.37869477  0.00390007  1
  Pr  Pr70  1  0.49404635  0.62628737  0.49642733  1
  Pr  Pr71  1  0.49353685  0.12272161  0.83092407  1
  Mn  Mn72  1  0.00068875  0.00125351  0.16817178  1
  Mn  Mn73  1  -0.00063943  -0.00220540  0.50135151  1
  Mn  Mn74  1  0.00050488  0.00161080  0.83632215  1
  Mn  Mn75  1  -0.00205113  0.49965358  0.16814102  1
  Mn  Mn76  1  -0.00020417  0.50233546  0.50244950  1
  Mn  Mn77  1  0.00260584  0.49837215  0.83323324  1
  Mn  Mn78  1  0.33312337  0.00058814  0.16568422  1
  Mn  Mn79  1  0.32989989  -0.00090405  0.49846373  1
  Mn  Mn80  1  0.33397952  0.00161458  0.82936186  1
  Mn  Mn81  1  0.33435839  0.49791384  0.16507222  1
  Mn  Mn82  1  0.33061470  0.50085064  0.49974784  1
  Mn  Mn83  1  0.33439805  0.49819450  0.83084865  1
  Mn  Mn84  1  0.66724261  0.00054018  0.16314303  1
  Mn  Mn85  1  0.66646850  0.00077480  0.50323435  1
  Mn  Mn86  1  0.66944059  0.00257598  0.83301585  1
  Mn  Mn87  1  0.66654535  0.50086144  0.16696522  1
  Mn  Mn88  1  0.66702301  0.50255944  0.50103451  1
  Mn  Mn89  1  0.66645841  0.49824318  0.83361168  1
  Mn  Mn90  1  -0.00118662  0.24591366  0.16769599  1
  Mn  Mn91  1  -0.00093900  0.24931110  0.50227531  1
  Mn  Mn92  1  0.00135513  0.24856676  0.83440144  1
  Mn  Mn93  1  -0.00067608  0.75119980  0.16972874  1
  Mn  Mn94  1  0.00065262  0.75132347  0.50248629  1
  Mn  Mn95  1  0.00182958  0.74936602  0.83585210  1
  Mn  Mn96  1  0.33371737  0.24844993  0.16409745  1
  Mn  Mn97  1  0.33097028  0.24955335  0.49876856  1
  Mn  Mn98  1  0.33445438  0.25159276  0.83045273  1
  Mn  Mn99  1  0.33371844  0.75311086  0.16371731  1
  Mn  Mn100  1  0.32980158  0.75154589  0.49871117  1
  Mn  Mn101  1  0.33442457  0.74741976  0.82930733  1
  Mn  Mn102  1  0.66774960  0.24975490  0.16463746  1
  Mn  Mn103  1  0.66634811  0.24938413  0.50161838  1
  Mn  Mn104  1  0.66773941  0.25028344  0.83228227  1
  Mn  Mn105  1  0.66537684  0.74908825  0.16805795  1
  Mn  Mn106  1  0.66750383  0.74855430  0.50161432  1
  Mn  Mn107  1  0.66783644  0.74982237  0.83454163  1
  Mn  Mn108  1  0.16901125  0.24871893  -0.00131514  1
  Mn  Mn109  1  0.16683699  0.24616150  0.33442800  1
  Mn  Mn110  1  0.16818292  0.25229914  0.66514971  1
  Mn  Mn111  1  0.16677647  0.74987668  -0.00140255  1
  Mn  Mn112  1  0.16493819  0.75459190  0.33371925  1
  Mn  Mn113  1  0.16649372  0.74797667  0.66454350  1
  Mn  Mn114  1  0.50066713  0.25013762  -0.00653442  1
  Mn  Mn115  1  0.49769162  0.24831290  0.33120913  1
  Mn  Mn116  1  0.50038560  0.25108972  0.66379423  1
  Mn  Mn117  1  0.50043653  0.74923511  -0.00192664  1
  Mn  Mn118  1  0.49774827  0.75158052  0.33180474  1
  Mn  Mn119  1  0.50077518  0.74774748  0.66425899  1
  Mn  Mn120  1  0.83078328  0.24715515  0.00411155  1
  Mn  Mn121  1  0.83539275  0.24915706  0.33640258  1
  Mn  Mn122  1  0.83260217  0.25167362  0.67012959  1
  Mn  Mn123  1  0.83412691  0.75093706  0.00365614  1
  Mn  Mn124  1  0.83371226  0.75085231  0.33926976  1
  Mn  Mn125  1  0.83366222  0.74831488  0.66982797  1
  Mn  Mn126  1  0.16652876  0.00004927  -0.00004101  1
  Mn  Mn127  1  0.16612801  -0.00013753  0.33225006  1
  Mn  Mn128  1  0.16737642  0.00068110  0.66419379  1
  Mn  Mn129  1  0.16800862  0.49950994  -0.00178980  1
  Mn  Mn130  1  0.16556055  0.49956994  0.33522532  1
  Mn  Mn131  1  0.16733511  0.49885083  0.66677976  1
  Mn  Mn132  1  0.50229733  0.00151284  -0.00228016  1
  Mn  Mn133  1  0.49708700  0.00127605  0.33124844  1
  Mn  Mn134  1  0.50047672  0.00222049  0.66383220  1
  Mn  Mn135  1  0.49939785  0.49957778  -0.00572090  1
  Mn  Mn136  1  0.49727945  0.50081909  0.33081759  1
  Mn  Mn137  1  0.50023347  0.50006654  0.66407795  1
  Mn  Mn138  1  0.83224470  0.00083199  0.00427152  1
  Mn  Mn139  1  0.83624583  -0.00190078  0.33680478  1
  Mn  Mn140  1  0.83229048  0.00027821  0.67051880  1
  Mn  Mn141  1  0.83373943  0.49978869  0.00316975  1
  Mn  Mn142  1  0.83306603  0.50147205  0.33837981  1
  Mn  Mn143  1  0.83420168  0.50018661  0.66911757  1
  O  O144  1  0.17460667  0.12401005  0.01958104  1
  O  O145  1  0.16890903  0.12003997  0.36071908  1
  O  O146  1  0.16954404  0.12952374  0.69050309  1
  O  O147  1  0.17152864  0.62460614  0.00843911  1
  O  O148  1  0.15998500  0.63124525  0.35490478  1
  O  O149  1  0.16626289  0.62090649  0.69525136  1
  O  O150  1  0.49966583  0.12617497  0.01907633  1
  O  O151  1  0.48990782  0.12414700  0.35111193  1
  O  O152  1  0.50425520  0.13023711  0.68914965  1
  O  O153  1  0.50013928  0.62558711  0.01996690  1
  O  O154  1  0.49940338  0.62774201  0.34933348  1
  O  O155  1  0.49941728  0.62197874  0.68472832  1
  O  O156  1  0.82330256  0.12268844  0.03140587  1
  O  O157  1  0.84179925  0.11962014  0.35689829  1
  O  O158  1  0.82458280  0.12842683  0.69530109  1
  O  O159  1  0.83511629  0.62837414  0.01380102  1
  O  O160  1  0.84181117  0.63009810  0.36002410  1
  O  O161  1  0.83297241  0.62488778  0.68408045  1
  O  O162  1  0.17085795  0.36899321  0.32384193  1
  O  O163  1  0.16786089  0.37719894  0.64318281  1
  O  O164  1  0.17271549  0.37296388  0.97526813  1
  O  O165  1  0.15664648  0.88024407  0.30449723  1
  O  O166  1  0.16461924  0.87183260  0.64313551  1
  O  O167  1  0.15620322  0.87683709  0.98823796  1
  O  O168  1  0.49376168  0.37184524  0.32164053  1
  O  O169  1  0.49995679  0.37560431  0.64983379  1
  O  O170  1  0.49441249  0.37201164  0.96817959  1
  O  O171  1  0.49835184  0.87765074  0.30970954  1
  O  O172  1  0.49896199  0.87338503  0.65482320  1
  O  O173  1  0.50987149  0.87690715  0.98674907  1
  O  O174  1  0.83422960  0.37424126  0.31584959  1
  O  O175  1  0.83843504  0.37723115  0.64912895  1
  O  O176  1  0.82726498  0.37012725  0.97640700  1
  O  O177  1  0.83757587  0.87590729  0.31483998  1
  O  O178  1  0.83866979  0.87063969  0.64792174  1
  O  O179  1  0.83511824  0.87775880  0.97691999  1
  O  O180  1  -0.00592331  0.36867613  0.17925187  1
  O  O181  1  0.00078575  0.37920474  0.52549242  1
  O  O182  1  0.00063814  0.37276857  0.84794025  1
  O  O183  1  0.01208395  0.87901325  0.19017212  1
  O  O184  1  0.00285931  0.87355689  0.53344157  1
  O  O185  1  -0.00395480  0.88029144  0.86051329  1
  O  O186  1  0.33419641  0.36830445  0.18834011  1
  O  O187  1  0.32913867  0.37627949  0.52233368  1
  O  O188  1  0.33501895  0.37411005  0.85956461  1
  O  O189  1  0.33526743  0.87985065  0.17991031  1
  O  O190  1  0.32341013  0.87369523  0.52840241  1
  O  O191  1  0.33590393  0.87515357  0.83696558  1
  O  O192  1  0.67065912  0.37686351  0.17992687  1
  O  O193  1  0.66520766  0.37711382  0.52129656  1
  O  O194  1  0.65691068  0.37183176  0.86149859  1
  O  O195  1  0.65605817  0.87512424  0.17784857  1
  O  O196  1  0.66673741  0.87306082  0.52517216  1
  O  O197  1  0.67058595  0.88138989  0.85978969  1
  O  O198  1  -0.01301524  0.12112217  0.14079034  1
  O  O199  1  -0.00257208  0.11795490  0.48095106  1
  O  O200  1  -0.00458147  0.12547987  0.82180028  1
  O  O201  1  -0.00305489  0.62965866  0.14648332  1
  O  O202  1  0.00107823  0.63143419  0.47496845  1
  O  O203  1  0.00703123  0.61979363  0.81031428  1
  O  O204  1  0.32936428  0.12398698  0.13746876  1
  O  O205  1  0.32599697  0.12383264  0.47756478  1
  O  O206  1  0.33147278  0.12896914  0.81070578  1
  O  O207  1  0.33875497  0.62769712  0.14332174  1
  O  O208  1  0.33235788  0.62669858  0.48631035  1
  O  O209  1  0.32625175  0.61940288  0.80461953  1
  O  O210  1  0.67670539  0.12402174  0.14179799  1
  O  O211  1  0.68223046  0.12400695  0.49621522  1
  O  O212  1  0.67923550  0.12824685  0.80495304  1
  O  O213  1  0.66279339  0.62506977  0.14171022  1
  O  O214  1  0.68105956  0.62687071  0.48035099  1
  O  O215  1  0.66873170  0.61931677  0.81016758  1
  O  O216  1  0.08626738  0.03013280  0.24579522  1
  O  O217  1  0.08865294  0.01540417  0.57515186  1
  O  O218  1  0.08699181  0.02574855  0.91581339  1
  O  O219  1  0.07852189  0.51389053  0.25587747  1
  O  O220  1  0.08139039  0.52628938  0.58727270  1
  O  O221  1  0.08852391  0.51643990  0.91122448  1
  O  O222  1  0.41251301  0.02367286  0.24756618  1
  O  O223  1  0.41432548  0.01704114  0.57794596  1
  O  O224  1  0.41580034  0.02186402  0.91692198  1
  O  O225  1  0.42066382  0.51415570  0.24101680  1
  O  O226  1  0.41364029  0.52005012  0.58220168  1
  O  O227  1  0.41192625  0.52143176  0.91543957  1
  O  O228  1  0.75711043  0.00916194  0.24295016  1
  O  O229  1  0.74104585  0.00730756  0.59888108  1
  O  O230  1  0.74877824  0.02551570  0.91856206  1
  O  O231  1  0.74466645  0.51781433  0.26251134  1
  O  O232  1  0.74412795  0.51622243  0.59304386  1
  O  O233  1  0.74129108  0.50955464  0.92580058  1
  O  O234  1  0.24944190  0.22452834  0.24976384  1
  O  O235  1  0.24796325  0.23264676  0.58161064  1
  O  O236  1  0.25081098  0.22920843  0.91095876  1
  O  O237  1  0.24575881  0.75207066  0.24560742  1
  O  O238  1  0.24471378  0.72438990  0.58088941  1
  O  O239  1  0.25134809  0.73048767  0.91035751  1
  O  O240  1  0.58057708  0.23219910  0.23878812  1
  O  O241  1  0.58027919  0.22787228  0.58052869  1
  O  O242  1  0.58008186  0.22226820  0.90496999  1
  O  O243  1  0.58081764  0.72906760  0.24579941  1
  O  O244  1  0.57945936  0.72304545  0.57737686  1
  O  O245  1  0.58428813  0.73101464  0.91605107  1
  O  O246  1  0.92247578  0.22560621  0.25636319  1
  O  O247  1  0.90841568  0.23509691  0.58260697  1
  O  O248  1  0.91374547  0.22621296  0.92568859  1
  O  O249  1  0.91975876  0.74227824  0.25815924  1
  O  O250  1  0.91721743  0.72779856  0.58398231  1
  O  O251  1  0.92426095  0.74011242  0.92824960  1
  O  O252  1  0.08004195  0.49751632  0.07818138  1
  O  O253  1  0.08539370  0.49598029  0.42420307  1
  O  O254  1  0.08530857  0.47394232  0.74819703  1
  O  O255  1  0.07581812  0.98989348  0.07902375  1
  O  O256  1  0.08025050  0.97825973  0.41229549  1
  O  O257  1  0.08188315  0.98578249  0.74308802  1
  O  O258  1  0.41412733  0.48558080  0.07305689  1
  O  O259  1  0.40899826  0.48810116  0.41043591  1
  O  O260  1  0.41660400  0.47564414  0.74980452  1
  O  O261  1  0.42658851  0.98882936  0.08987517  1
  O  O262  1  0.40675177  0.99158861  0.41352798  1
  O  O263  1  0.41939592  0.99342344  0.74590785  1
  O  O264  1  0.75295704  0.48037326  0.08848456  1
  O  O265  1  0.75585259  0.49093802  0.42756905  1
  O  O266  1  0.75294809  0.47243442  0.75788729  1
  O  O267  1  0.75022816  0.97124873  0.08241988  1
  O  O268  1  0.75740914  0.98721027  0.43127026  1
  O  O269  1  0.75755048  0.97570083  0.75953454  1
  O  O270  1  0.25495017  0.26482737  0.07547681  1
  O  O271  1  0.25111582  0.26468664  0.41470534  1
  O  O272  1  0.25299520  0.27701486  0.74884486  1
  O  O273  1  0.24814811  0.76477968  0.08247576  1
  O  O274  1  0.24383894  0.77221982  0.41882338  1
  O  O275  1  0.25600841  0.76278592  0.73730199  1
  O  O276  1  0.58945181  0.26204317  0.06457605  1
  O  O277  1  0.57953214  0.24719124  0.41821280  1
  O  O278  1  0.59047059  0.27221672  0.74498430  1
  O  O279  1  0.58575213  0.76403878  0.07943127  1
  O  O280  1  0.58669465  0.75008770  0.41435501  1
  O  O281  1  0.59342888  0.75924396  0.73885915  1
  O  O282  1  0.90444405  0.26046466  0.09503308  1
  O  O283  1  0.91450025  0.25501482  0.42145193  1
  O  O284  1  0.91646187  0.26982192  0.75183053  1
  O  O285  1  0.91572919  0.77677890  0.08920568  1
  O  O286  1  0.92054446  0.77680702  0.42242568  1
  O  O287  1  0.91878278  0.76983469  0.75441096  1
  O  O288  1  0.25564811  0.48602121  0.07430977  1
  O  O289  1  0.24802421  0.48646851  0.41982956  1
  O  O290  1  0.25160415  0.47137531  0.74997970  1
  O  O291  1  0.24093748  0.98524372  0.09073488  1
  O  O292  1  0.24343864  0.97685514  0.41744456  1
  O  O293  1  0.25483113  0.98700821  0.74049832  1
  O  O294  1  0.58936916  0.48711537  0.06975968  1
  O  O295  1  0.58409728  0.50469015  0.41549809  1
  O  O296  1  0.58968247  0.47851883  0.74477594  1
  O  O297  1  0.59309178  0.99145108  0.07073468  1
  O  O298  1  0.58172875  0.99980755  0.41765783  1
  O  O299  1  0.59686856  0.98990174  0.74108282  1
  O  O300  1  0.91153941  0.48490692  0.08986767  1
  O  O301  1  0.91505589  0.49386701  0.42431790  1
  O  O302  1  0.92088330  0.47974557  0.75000027  1
  O  O303  1  0.91443883  0.97422372  0.09131108  1
  O  O304  1  0.92097466  0.97281632  0.41964745  1
  O  O305  1  0.91670751  0.97945815  0.75313325  1
  O  O306  1  0.08155573  0.24528923  0.08252742  1
  O  O307  1  0.08390844  0.25003460  0.41756615  1
  O  O308  1  0.08828242  0.27181576  0.74778008  1
  O  O309  1  0.07976756  0.76739433  0.08389056  1
  O  O310  1  0.08294318  0.77781448  0.42150472  1
  O  O311  1  0.07853370  0.76338244  0.74152836  1
  O  O312  1  0.41394493  0.26199228  0.07214277  1
  O  O313  1  0.40591728  0.25938906  0.40857860  1
  O  O314  1  0.41930161  0.27283859  0.75003091  1
  O  O315  1  0.42447507  0.76504365  0.08512693  1
  O  O316  1  0.41425015  0.76102957  0.41478925  1
  O  O317  1  0.41473060  0.75752026  0.74296933  1
  O  O318  1  0.74895322  0.27409617  0.08188288  1
  O  O319  1  0.75416912  0.25632902  0.42422302  1
  O  O320  1  0.75395286  0.28089141  0.75776674  1
  O  O321  1  0.75169902  0.77161789  0.08885139  1
  O  O322  1  0.76032186  0.76613862  0.43160587  1
  O  O323  1  0.75409840  0.77348896  0.75738358  1
  O  O324  1  0.25033781  0.02252090  0.25191360  1
  O  O325  1  0.24500362  0.01867842  0.57784429  1
  O  O326  1  0.25104646  0.01996370  0.91425352  1
  O  O327  1  0.25180100  0.50241515  0.25295818  1
  O  O328  1  0.24912725  0.52330729  0.58672846  1
  O  O329  1  0.25154598  0.51772576  0.91178191  1
  O  O330  1  0.57690155  0.01539260  0.23457322  1
  O  O331  1  0.57784849  0.02395522  0.57857478  1
  O  O332  1  0.58262322  0.02912863  0.90683598  1
  O  O333  1  0.58164762  0.52203010  0.24576257  1
  O  O334  1  0.58218205  0.52655961  0.57900908  1
  O  O335  1  0.57929392  0.51797448  0.90953533  1
  O  O336  1  0.92396111  0.01754390  0.25388679  1
  O  O337  1  0.90518693  0.01428884  0.57909473  1
  O  O338  1  0.91528473  0.02373082  0.92644067  1
  O  O339  1  0.91752241  0.51408541  0.25781554  1
  O  O340  1  0.91856961  0.52512519  0.58560050  1
  O  O341  1  0.92203109  0.51110790  0.92184775  1
  O  O342  1  0.08519118  0.22276827  0.24893894  1
  O  O343  1  0.08491637  0.23632917  0.58101434  1
  O  O344  1  0.08842946  0.22754524  0.91469576  1
  O  O345  1  0.07561457  0.73535680  0.25857167  1
  O  O346  1  0.08372686  0.72263287  0.58267476  1
  O  O347  1  0.08481544  0.72781832  0.91457056  1
  O  O348  1  0.41499217  0.22432202  0.24393909  1
  O  O349  1  0.41559143  0.23155431  0.57752369  1
  O  O350  1  0.41659250  0.22550521  0.91206167  1
  O  O351  1  0.42124237  0.74240353  0.24115268  1
  O  O352  1  0.41475823  0.73160041  0.58288154  1
  O  O353  1  0.41333651  0.73004537  0.91867656  1
  O  O354  1  0.76246630  0.23698565  0.24567853  1
  O  O355  1  0.74394873  0.24120933  0.59598651  1
  O  O356  1  0.74873087  0.22673346  0.91887650  1
  O  O357  1  0.74308823  0.73702307  0.26059909  1
  O  O358  1  0.74332084  0.73307767  0.59393832  1
  O  O359  1  0.74498999  0.74083489  0.92764258  1
