# generated using pymatgen
data_Ba17Sr5La8Pr42Mn72O216
_symmetry_space_group_name_H-M   'P 1'
_cell_length_a   16.67895496
_cell_length_b   15.70064591
_cell_length_c   16.82048021
_cell_angle_alpha   89.99535246
_cell_angle_beta   90.01775368
_cell_angle_gamma   90.00402958
_symmetry_Int_Tables_number   1
_chemical_formula_structural   Ba17Sr5La8Pr42Mn72O216
_chemical_formula_sum   'Ba17 Sr5 La8 Pr42 Mn72 O216'
_cell_volume   4404.78507296
_cell_formula_units_Z   1
loop_
 _symmetry_equiv_pos_site_id
 _symmetry_equiv_pos_as_xyz
  1  'x, y, z'
loop_
 _atom_site_type_symbol
 _atom_site_label
 _atom_site_symmetry_multiplicity
 _atom_site_fract_x
 _atom_site_fract_y
 _atom_site_fract_z
 _atom_site_occupancy
  Ba  Ba0  1  0.00550680  0.12499893  1.00143419  1
  Ba  Ba1  1  0.33930620  0.12628490  0.33079432  1
  Ba  Ba2  1  0.16481427  0.87587998  0.50135165  1
  Ba  Ba3  1  0.17205567  0.12328661  0.16692294  1
  Ba  Ba4  1  -0.00332891  0.62539336  0.66737452  1
  Ba  Ba5  1  0.50143097  0.62654980  0.50100915  1
  Ba  Ba6  1  0.16747628  0.62448473  0.16640451  1
  Ba  Ba7  1  -0.00068463  0.62657225  1.00026411  1
  Ba  Ba8  1  0.33298948  0.87552173  0.66743153  1
  Ba  Ba9  1  0.66818094  0.12477581  1.00031136  1
  Ba  Ba10  1  0.17042853  0.87361758  0.16578774  1
  Ba  Ba11  1  0.16233274  0.37402670  0.50168549  1
  Ba  Ba12  1  0.17084705  0.12547284  0.49891530  1
  Ba  Ba13  1  -0.00018060  0.87554904  0.00023426  1
  Ba  Ba14  1  -0.00602456  0.37523749  0.66342912  1
  Ba  Ba15  1  0.16544423  0.62402491  0.83570410  1
  Ba  Ba16  1  0.49788821  0.37483014  0.83184915  1
  Sr  Sr17  1  0.49672397  0.87162042  0.49794813  1
  Sr  Sr18  1  0.83538054  0.62743682  0.16699517  1
  Sr  Sr19  1  0.49786027  0.62583628  0.83297654  1
  Sr  Sr20  1  0.33296275  0.87151323  0.00044937  1
  Sr  Sr21  1  0.82938626  0.37738930  0.49898677  1
  La  La22  1  0.50721275  0.12506807  0.16865967  1
  La  La23  1  0.67414270  0.12461461  0.32818426  1
  La  La24  1  0.32537048  0.37659710  0.67008028  1
  La  La25  1  0.49778008  0.87453816  0.83193915  1
  La  La26  1  0.66341100  0.37703554  0.66581909  1
  La  La27  1  0.84428691  0.12375768  0.16837068  1
  La  La28  1  -0.00135483  0.87773559  0.66983124  1
  La  La29  1  0.16803463  0.62501126  0.50576917  1
  Pr  Pr30  1  0.50722924  0.12234448  0.50004435  1
  Pr  Pr31  1  0.66928789  0.62656183  0.33177685  1
  Pr  Pr32  1  0.33566434  0.62720239  0.33480506  1
  Pr  Pr33  1  0.33804610  0.12258417  1.00204998  1
  Pr  Pr34  1  0.15469225  0.37529359  0.82893755  1
  Pr  Pr35  1  0.83987966  0.12632200  0.83711831  1
  Pr  Pr36  1  0.66357336  0.37743583  0.33586645  1
  Pr  Pr37  1  0.50214503  0.62537502  0.16896269  1
  Pr  Pr38  1  0.82897859  0.37628411  0.16460809  1
  Pr  Pr39  1  0.66228379  0.87121351  0.66740062  1
  Pr  Pr40  1  -0.00554582  0.37691662  -0.00053600  1
  Pr  Pr41  1  0.49865744  0.87539964  0.16421200  1
  Pr  Pr42  1  0.66326655  0.87296700  0.33562324  1
  Pr  Pr43  1  0.66008470  0.37725563  0.00157027  1
  Pr  Pr44  1  0.33156576  0.62724067  0.99700752  1
  Pr  Pr45  1  0.67038622  0.12674382  0.66438236  1
  Pr  Pr46  1  0.34354082  0.12644107  0.66007671  1
  Pr  Pr47  1  0.32759149  0.87449309  0.33911876  1
  Pr  Pr48  1  0.83289375  0.62392637  0.83771873  1
  Pr  Pr49  1  0.15824089  0.87309700  0.83241190  1
  Pr  Pr50  1  0.66430930  0.87454483  0.00325434  1
  Pr  Pr51  1  0.82838586  0.37432754  0.83141372  1
  Pr  Pr52  1  0.83092867  0.62325878  0.50343429  1
  Pr  Pr53  1  0.83272473  0.87469472  0.16241226  1
  Pr  Pr54  1  0.01138472  0.12470203  0.32932511  1
  Pr  Pr55  1  0.32484101  0.37775896  0.33574575  1
  Pr  Pr56  1  0.00800157  0.12594440  0.66559307  1
  Pr  Pr57  1  -0.00662801  0.37482077  0.33992967  1
  Pr  Pr58  1  0.50414576  0.12123367  0.83355915  1
  Pr  Pr59  1  0.00069790  0.87485071  0.33264395  1
  Pr  Pr60  1  0.32595662  0.37763492  -0.00044544  1
  Pr  Pr61  1  0.17662981  0.12553502  0.83753304  1
  Pr  Pr62  1  0.83994852  0.12659427  0.50089120  1
  Pr  Pr63  1  0.16011764  0.37258194  0.16809609  1
  Pr  Pr64  1  0.49506579  0.37647040  0.49815752  1
  Pr  Pr65  1  0.00307931  0.62425680  0.32980901  1
  Pr  Pr66  1  0.83198059  0.87741318  0.83342830  1
  Pr  Pr67  1  0.66409391  0.62282049  0.66491497  1
  Pr  Pr68  1  0.49456828  0.37426387  0.16053546  1
  Pr  Pr69  1  0.66585407  0.62488260  0.99643091  1
  Pr  Pr70  1  0.33456199  0.62371825  0.66582328  1
  Pr  Pr71  1  0.83207714  0.87313931  0.49802812  1
  Mn  Mn72  1  0.00102423  -0.00146317  0.16850026  1
  Mn  Mn73  1  -0.00241784  0.00033295  0.50059129  1
  Mn  Mn74  1  -0.00068301  0.00154110  0.83188703  1
  Mn  Mn75  1  -0.00298388  0.49903001  0.16897356  1
  Mn  Mn76  1  -0.00418404  0.50098072  0.49716028  1
  Mn  Mn77  1  -0.00453555  0.49957231  0.83441671  1
  Mn  Mn78  1  0.33921057  -0.00236256  0.16614678  1
  Mn  Mn79  1  0.33691793  0.00022231  0.49890597  1
  Mn  Mn80  1  0.33375070  0.00031690  0.83402327  1
  Mn  Mn81  1  0.33502945  0.50012985  0.16760530  1
  Mn  Mn82  1  0.33336579  0.49916195  0.50093281  1
  Mn  Mn83  1  0.33306187  0.49945747  0.83490607  1
  Mn  Mn84  1  0.66923427  -0.00157157  0.16799439  1
  Mn  Mn85  1  0.66788956  -0.00059220  0.49829565  1
  Mn  Mn86  1  0.66707894  -0.00191458  0.83151107  1
  Mn  Mn87  1  0.66755421  0.50180504  0.16730839  1
  Mn  Mn88  1  0.66616710  0.49906598  0.49948981  1
  Mn  Mn89  1  0.66525335  0.50098071  0.83298958  1
  Mn  Mn90  1  -0.00131878  0.25409155  0.16911268  1
  Mn  Mn91  1  -0.00312336  0.24901851  0.49876596  1
  Mn  Mn92  1  -0.00185195  0.24919911  0.83313019  1
  Mn  Mn93  1  -0.00162675  0.74845964  0.16795607  1
  Mn  Mn94  1  -0.00347376  0.75020505  0.49866306  1
  Mn  Mn95  1  -0.00332113  0.75150101  0.83276577  1
  Mn  Mn96  1  0.33664081  0.25378878  0.16594154  1
  Mn  Mn97  1  0.33725860  0.25027765  0.49898605  1
  Mn  Mn98  1  0.33363365  0.24825263  0.83271486  1
  Mn  Mn99  1  0.33728888  0.74737798  0.16707828  1
  Mn  Mn100  1  0.33368193  0.74954576  0.50033588  1
  Mn  Mn101  1  0.33341736  0.75057339  0.83500453  1
  Mn  Mn102  1  0.66977025  0.25234110  0.16802943  1
  Mn  Mn103  1  0.66698735  0.24912403  0.49730596  1
  Mn  Mn104  1  0.66605815  0.24908367  0.83137977  1
  Mn  Mn105  1  0.66728913  0.74893714  0.16658876  1
  Mn  Mn106  1  0.66750859  0.75083584  0.50038717  1
  Mn  Mn107  1  0.66603379  0.75019877  0.83399499  1
  Mn  Mn108  1  0.16894115  0.25160170  -0.00125886  1
  Mn  Mn109  1  0.16786170  0.25201737  0.33161521  1
  Mn  Mn110  1  0.16666324  0.24882350  0.67053234  1
  Mn  Mn111  1  0.16822704  0.75066803  -0.00022202  1
  Mn  Mn112  1  0.16613330  0.74887717  0.33555345  1
  Mn  Mn113  1  0.16579725  0.75001838  0.66763980  1
  Mn  Mn114  1  0.49937968  0.24994824  -0.00114516  1
  Mn  Mn115  1  0.50469137  0.25409427  0.33211170  1
  Mn  Mn116  1  0.50154400  0.24989046  0.66407474  1
  Mn  Mn117  1  0.50049485  0.74857028  -0.00027936  1
  Mn  Mn118  1  0.50094122  0.74813589  0.33180595  1
  Mn  Mn119  1  0.49995362  0.74995555  0.66830785  1
  Mn  Mn120  1  0.83192065  0.25108401  -0.00050486  1
  Mn  Mn121  1  0.83304269  0.25025508  0.33370498  1
  Mn  Mn122  1  0.83017321  0.24845384  0.66681191  1
  Mn  Mn123  1  0.82988308  0.75025931  0.00006627  1
  Mn  Mn124  1  0.83368904  0.75077013  0.33297029  1
  Mn  Mn125  1  0.83028697  0.75161117  0.66674292  1
  Mn  Mn126  1  0.17131951  0.00071663  -0.00091551  1
  Mn  Mn127  1  0.16878383  -0.00173064  0.33291208  1
  Mn  Mn128  1  0.16723374  0.00079275  0.66946807  1
  Mn  Mn129  1  0.16590722  0.49660086  0.00101350  1
  Mn  Mn130  1  0.16563581  0.50128572  0.33480923  1
  Mn  Mn131  1  0.16484167  0.50102910  0.66839581  1
  Mn  Mn132  1  0.49997715  -0.00118905  -0.00053953  1
  Mn  Mn133  1  0.50384492  -0.00221565  0.33361126  1
  Mn  Mn134  1  0.50291663  -0.00097892  0.66625962  1
  Mn  Mn135  1  0.49910000  0.50070358  0.00016796  1
  Mn  Mn136  1  0.50146352  0.49975917  0.33107762  1
  Mn  Mn137  1  0.49896650  0.50034521  0.66645084  1
  Mn  Mn138  1  0.83184158  0.00040701  -0.00058061  1
  Mn  Mn139  1  0.83395789  -0.00155827  0.33384204  1
  Mn  Mn140  1  0.83041773  0.00103029  0.66571953  1
  Mn  Mn141  1  0.82978319  0.49968034  -0.00021151  1
  Mn  Mn142  1  0.83179355  0.50231079  0.33275444  1
  Mn  Mn143  1  0.82941950  0.49965396  0.66743386  1
  O  O144  1  0.17271224  0.12971614  0.01069838  1
  O  O145  1  0.15997721  0.12551154  0.33794595  1
  O  O146  1  0.16177210  0.12484282  0.69157137  1
  O  O147  1  0.17142665  0.61890959  0.00956621  1
  O  O148  1  0.16129939  0.62419746  0.35579855  1
  O  O149  1  0.17479733  0.62552981  0.67725484  1
  O  O150  1  0.49486089  0.12821488  0.02557355  1
  O  O151  1  0.50991460  0.12999842  0.35528891  1
  O  O152  1  0.49965250  0.12498857  0.68801932  1
  O  O153  1  0.50411554  0.62370762  0.02585308  1
  O  O154  1  0.50307659  0.62267358  0.34740393  1
  O  O155  1  0.50266194  0.62693441  0.68261483  1
  O  O156  1  0.83253969  0.12729150  0.02222784  1
  O  O157  1  0.82483880  0.12086317  0.35770455  1
  O  O158  1  0.82013271  0.12239334  0.69541913  1
  O  O159  1  0.82464433  0.62350931  0.01674383  1
  O  O160  1  0.82873503  0.62767948  0.36080711  1
  O  O161  1  0.82236208  0.62565026  0.69387134  1
  O  O162  1  0.17129110  0.37888397  0.31590935  1
  O  O163  1  0.17091143  0.37325733  0.66051349  1
  O  O164  1  0.17595012  0.37253126  0.97363678  1
  O  O165  1  0.17183551  0.87200754  0.32602812  1
  O  O166  1  0.15763781  0.87673829  0.65854554  1
  O  O167  1  0.17493602  0.87939569  0.97816821  1
  O  O168  1  0.51188130  0.37905392  0.30313502  1
  O  O169  1  0.50401133  0.37258225  0.64311907  1
  O  O170  1  0.50707566  0.37488852  0.98735131  1
  O  O171  1  0.50752652  0.86834586  0.30744284  1
  O  O172  1  0.50726667  0.87546300  0.64845914  1
  O  O173  1  0.50585355  0.87061789  0.97518794  1
  O  O174  1  0.83329883  0.37846549  0.30880140  1
  O  O175  1  0.82351406  0.37305423  0.64796529  1
  O  O176  1  0.83042454  0.37480275  0.97641620  1
  O  O177  1  0.83428363  0.87444180  0.30532971  1
  O  O178  1  0.83021829  0.87920303  0.63931784  1
  O  O179  1  0.82335539  0.87533164  0.97944333  1
  O  O180  1  -0.01161574  0.37689147  0.19417161  1
  O  O181  1  -0.00537872  0.37365437  0.50614266  1
  O  O182  1  -0.00247394  0.37227583  0.85165736  1
  O  O183  1  -0.01239887  0.87260140  0.18811899  1
  O  O184  1  -0.00969029  0.87751969  0.52598543  1
  O  O185  1  0.00029443  0.87812561  0.84011227  1
  O  O186  1  0.34644008  0.37862733  0.19305931  1
  O  O187  1  0.34177219  0.37403737  0.52265585  1
  O  O188  1  0.33441635  0.37220953  0.85590103  1
  O  O189  1  0.34797105  0.86863139  0.19209015  1
  O  O190  1  0.33666415  0.87409530  0.50634524  1
  O  O191  1  0.34460795  0.87774036  0.85210480  1
  O  O192  1  0.67475914  0.37901141  0.19313051  1
  O  O193  1  0.66775646  0.37024323  0.52321858  1
  O  O194  1  0.67358257  0.37672256  0.85735251  1
  O  O195  1  0.66836015  0.87240501  0.19217348  1
  O  O196  1  0.67551540  0.87405652  0.52530693  1
  O  O197  1  0.66828385  0.87406888  0.86006686  1
  O  O198  1  -0.00351916  0.12890831  0.16113710  1
  O  O199  1  -0.01054718  0.12322311  0.47408901  1
  O  O200  1  -0.01029958  0.12456986  0.81113940  1
  O  O201  1  -0.00205070  0.62154966  0.15676714  1
  O  O202  1  -0.01225851  0.62645123  0.47423890  1
  O  O203  1  -0.01286460  0.62727682  0.82610428  1
  O  O204  1  0.34441383  0.12998214  0.14762375  1
  O  O205  1  0.34475992  0.12718025  0.48886825  1
  O  O206  1  0.32608933  0.12491892  0.80390888  1
  O  O207  1  0.34241087  0.62099094  0.14051433  1
  O  O208  1  0.32925091  0.62325758  0.48078653  1
  O  O209  1  0.33370416  0.62504411  0.81100035  1
  O  O210  1  0.66341567  0.12483873  0.15795036  1
  O  O211  1  0.66050042  0.12575404  0.47006799  1
  O  O212  1  0.65977711  0.12067379  0.80804156  1
  O  O213  1  0.66301059  0.62507492  0.13898308  1
  O  O214  1  0.67344236  0.62824722  0.47580264  1
  O  O215  1  0.67251397  0.62696570  0.80798003  1
  O  O216  1  0.08179200  0.00336706  0.25202981  1
  O  O217  1  0.07891615  0.01672362  0.58380437  1
  O  O218  1  0.09442746  0.01220307  0.90351807  1
  O  O219  1  0.08241845  0.50757523  0.25170326  1
  O  O220  1  0.08465953  0.51609962  0.57403955  1
  O  O221  1  0.07896831  0.49656433  0.92079392  1
  O  O222  1  0.43478381  0.01279336  0.23846873  1
  O  O223  1  0.42618666  0.01800373  0.58011656  1
  O  O224  1  0.41797043  0.02551834  0.91347566  1
  O  O225  1  0.42280330  0.52157010  0.24515335  1
  O  O226  1  0.41396198  0.51363966  0.58470336  1
  O  O227  1  0.41769495  0.51832221  0.91789267  1
  O  O228  1  0.76082744  0.01713019  0.24274264  1
  O  O229  1  0.75393877  0.02550383  0.57558811  1
  O  O230  1  0.75585814  0.01546797  0.90355184  1
  O  O231  1  0.75006508  0.52331517  0.24999054  1
  O  O232  1  0.74789849  0.52152102  0.58496059  1
  O  O233  1  0.74782032  0.52142272  0.91499579  1
  O  O234  1  0.25933841  0.25141156  0.25166236  1
  O  O235  1  0.26112096  0.23812032  0.60176528  1
  O  O236  1  0.26465214  0.22969534  0.92464295  1
  O  O237  1  0.25990881  0.73394143  0.25660841  1
  O  O238  1  0.25093905  0.73245476  0.58430259  1
  O  O239  1  0.25707307  0.73732737  0.92079370  1
  O  O240  1  0.60019949  0.23805556  0.26300611  1
  O  O241  1  0.59112439  0.22546417  0.58354543  1
  O  O242  1  0.58572586  0.23593118  0.91450034  1
  O  O243  1  0.58549411  0.72704971  0.24744333  1
  O  O244  1  0.59040576  0.73769459  0.59007271  1
  O  O245  1  0.58566886  0.72874774  0.91892203  1
  O  O246  1  0.92451656  0.23210485  0.26376202  1
  O  O247  1  0.91659505  0.22435972  0.59216967  1
  O  O248  1  0.92144977  0.24040336  0.92113141  1
  O  O249  1  0.91770587  0.72997056  0.25657987  1
  O  O250  1  0.90638077  0.73563203  0.57478806  1
  O  O251  1  0.90479527  0.74481691  0.90815408  1
  O  O252  1  0.07998298  0.47130578  0.08510687  1
  O  O253  1  0.07298856  0.48922911  0.40926669  1
  O  O254  1  0.08074740  0.48895241  0.75364124  1
  O  O255  1  0.08645212  0.99248757  0.07962915  1
  O  O256  1  0.07147761  0.98734853  0.41057407  1
  O  O257  1  0.07317278  0.98927341  0.74250014  1
  O  O258  1  0.41328306  0.47825080  0.07902530  1
  O  O259  1  0.41522771  0.47964965  0.41067467  1
  O  O260  1  0.40708138  0.48813300  0.74346612  1
  O  O261  1  0.42025051  0.97881443  0.08085611  1
  O  O262  1  0.41703722  0.98142042  0.40595685  1
  O  O263  1  0.42125187  0.99232538  0.75358884  1
  O  O264  1  0.74508332  0.47723599  0.08001265  1
  O  O265  1  0.74437354  0.48381702  0.41213916  1
  O  O266  1  0.74607398  0.47807699  0.74976850  1
  O  O267  1  0.74463356  0.97803849  0.08138664  1
  O  O268  1  0.74539726  0.97590738  0.40849453  1
  O  O269  1  0.74384462  0.97530939  0.74233562  1
  O  O270  1  0.24659651  0.27585948  0.08912229  1
  O  O271  1  0.25228127  0.26400167  0.41706830  1
  O  O272  1  0.23824799  0.26538733  0.76731025  1
  O  O273  1  0.25926747  0.75617641  0.08259687  1
  O  O274  1  0.25285794  0.75547125  0.41581404  1
  O  O275  1  0.24557906  0.76762958  0.75920401  1
  O  O276  1  0.58029038  0.26894040  0.09496649  1
  O  O277  1  0.57663589  0.27661092  0.42387028  1
  O  O278  1  0.58273705  0.26230783  0.74608915  1
  O  O279  1  0.58563737  0.77209264  0.08259978  1
  O  O280  1  0.58786005  0.76604308  0.41324215  1
  O  O281  1  0.58500361  0.77048972  0.75294054  1
  O  O282  1  0.90926228  0.26987804  0.09329575  1
  O  O283  1  0.90475915  0.26394274  0.42297808  1
  O  O284  1  0.90196203  0.26177952  0.76017304  1
  O  O285  1  0.90825052  0.76266730  0.08905287  1
  O  O286  1  0.91417420  0.77722634  0.41503597  1
  O  O287  1  0.91280948  0.77315088  0.74560266  1
  O  O288  1  0.24724364  0.47455243  0.09153342  1
  O  O289  1  0.25075318  0.48806466  0.41842085  1
  O  O290  1  0.24701294  0.47909643  0.75913991  1
  O  O291  1  0.25974827  0.99404371  0.08081988  1
  O  O292  1  0.25192145  0.99139559  0.41574144  1
  O  O293  1  0.23881050  0.98454903  0.76548243  1
  O  O294  1  0.58134366  0.47917034  0.08919653  1
  O  O295  1  0.58039667  0.47767858  0.41781263  1
  O  O296  1  0.58645446  0.48867146  0.74755624  1
  O  O297  1  0.58256687  0.97947151  0.08797565  1
  O  O298  1  0.58232224  0.97688652  0.42159868  1
  O  O299  1  0.58317596  0.97650487  0.75123001  1
  O  O300  1  0.91245423  0.47712255  0.08300848  1
  O  O301  1  0.91220917  0.48328142  0.41365092  1
  O  O302  1  0.90564724  0.48691795  0.75488706  1
  O  O303  1  0.90813639  0.98952263  0.09622715  1
  O  O304  1  0.90741432  0.97757087  0.42313778  1
  O  O305  1  0.90765733  0.98112449  0.75083738  1
  O  O306  1  0.07656934  0.27751888  0.07816374  1
  O  O307  1  0.07255008  0.25969338  0.40447001  1
  O  O308  1  0.07520160  0.25928652  0.74703127  1
  O  O309  1  0.08204233  0.75743382  0.08460755  1
  O  O310  1  0.07308884  0.76314745  0.41261668  1
  O  O311  1  0.07790415  0.76475098  0.74776814  1
  O  O312  1  0.40850801  0.27345787  0.07463215  1
  O  O313  1  0.41789439  0.27874765  0.40361083  1
  O  O314  1  0.40173347  0.26240384  0.73605245  1
  O  O315  1  0.42607918  0.76466927  0.08906048  1
  O  O316  1  0.41407552  0.76110952  0.40932647  1
  O  O317  1  0.42208710  0.76216553  0.75713112  1
  O  O318  1  0.74257025  0.27496809  0.07748527  1
  O  O319  1  0.73855483  0.26608158  0.40327798  1
  O  O320  1  0.74029195  0.26760232  0.74108044  1
  O  O321  1  0.74655356  0.77207745  0.08403112  1
  O  O322  1  0.75095761  0.77345022  0.41648441  1
  O  O323  1  0.74892774  0.77685701  0.75175638  1
  O  O324  1  0.26211414  0.00052451  0.25200540  1
  O  O325  1  0.25739877  0.01618729  0.59614084  1
  O  O326  1  0.25782031  0.02397675  0.91998711  1
  O  O327  1  0.26116482  0.51505499  0.25926693  1
  O  O328  1  0.25352348  0.51453560  0.58935902  1
  O  O329  1  0.26083140  0.51067707  0.92692304  1
  O  O330  1  0.59549734  0.01237994  0.25933545  1
  O  O331  1  0.59048621  0.02189855  0.58731731  1
  O  O332  1  0.57982237  0.01281042  0.91336270  1
  O  O333  1  0.58940237  0.52392696  0.25163080  1
  O  O334  1  0.58901358  0.51127393  0.58597631  1
  O  O335  1  0.58859357  0.51635078  0.92335250  1
  O  O336  1  0.92154730  0.02013807  0.26329164  1
  O  O337  1  0.91721266  0.02640849  0.58953014  1
  O  O338  1  0.91606559  0.01198502  0.91361361  1
  O  O339  1  0.91698194  0.52042490  0.25529362  1
  O  O340  1  0.90827281  0.51461838  0.57845329  1
  O  O341  1  0.90777229  0.50803301  0.91416156  1
  O  O342  1  0.08805430  0.25011042  0.24307140  1
  O  O343  1  0.08076095  0.23389965  0.58292022  1
  O  O344  1  0.09458285  0.23964213  0.90499112  1
  O  O345  1  0.07832656  0.74050725  0.25601569  1
  O  O346  1  0.08338875  0.73393359  0.57505769  1
  O  O347  1  0.08362929  0.74997322  0.91226543  1
  O  O348  1  0.43782182  0.23901518  0.23599852  1
  O  O349  1  0.43105612  0.23240078  0.57214579  1
  O  O350  1  0.42164322  0.22285229  0.90450081  1
  O  O351  1  0.42010579  0.72263154  0.24878033  1
  O  O352  1  0.41153187  0.73508032  0.58901606  1
  O  O353  1  0.41606005  0.72932368  0.92236710  1
  O  O354  1  0.76459126  0.23413219  0.23787000  1
  O  O355  1  0.75329650  0.22420388  0.57510747  1
  O  O356  1  0.75875722  0.23419995  0.90226008  1
  O  O357  1  0.74704713  0.73109113  0.25383948  1
  O  O358  1  0.74800151  0.72710097  0.58555193  1
  O  O359  1  0.74561956  0.72860811  0.91734441  1
