# generated using pymatgen
data_Ba17Sr5La8Pr42Mn72O216
_symmetry_space_group_name_H-M   'P 1'
_cell_length_a   16.67265800
_cell_length_b   15.70800809
_cell_length_c   16.81922895
_cell_angle_alpha   90.00271290
_cell_angle_beta   90.02159199
_cell_angle_gamma   89.99662461
_symmetry_Int_Tables_number   1
_chemical_formula_structural   Ba17Sr5La8Pr42Mn72O216
_chemical_formula_sum   'Ba17 Sr5 La8 Pr42 Mn72 O216'
_cell_volume   4404.85897289
_cell_formula_units_Z   1
loop_
 _symmetry_equiv_pos_site_id
 _symmetry_equiv_pos_as_xyz
  1  'x, y, z'
loop_
 _atom_site_type_symbol
 _atom_site_label
 _atom_site_symmetry_multiplicity
 _atom_site_fract_x
 _atom_site_fract_y
 _atom_site_fract_z
 _atom_site_occupancy
  Ba  Ba0  1  0.33529347  0.37532778  0.66934244  1
  Ba  Ba1  1  0.00213888  0.87533239  0.33403493  1
  Ba  Ba2  1  0.16701613  0.87587817  0.83152344  1
  Ba  Ba3  1  0.33443855  0.62467260  0.66401534  1
  Ba  Ba4  1  0.16719355  0.87396811  0.16508411  1
  Ba  Ba5  1  0.16594566  0.37490950  0.83051243  1
  Ba  Ba6  1  0.66838325  0.87580029  0.00171382  1
  Ba  Ba7  1  0.33433915  0.87559451  0.00097818  1
  Ba  Ba8  1  -0.00423034  0.12587859  0.99807281  1
  Ba  Ba9  1  -0.00118746  0.62417102  0.33120622  1
  Ba  Ba10  1  0.83492353  0.62530205  0.50157300  1
  Ba  Ba11  1  -0.00257588  0.62402951  0.99925985  1
  Ba  Ba12  1  0.00068477  0.87579909  -0.00014705  1
  Ba  Ba13  1  0.16670622  0.62419283  0.16668390  1
  Ba  Ba14  1  0.33616669  0.37425120  -0.00007383  1
  Ba  Ba15  1  0.50330343  0.37505022  0.83095702  1
  Ba  Ba16  1  0.83607121  0.87525949  0.50006009  1
  Sr  Sr17  1  0.49908957  0.62467750  0.50212535  1
  Sr  Sr18  1  0.66025335  0.12532948  0.99893816  1
  Sr  Sr19  1  0.49826477  0.62473675  0.16909906  1
  Sr  Sr20  1  0.67052244  0.37676815  0.66934047  1
  Sr  Sr21  1  0.50368500  0.37568653  0.16215484  1
  La  La22  1  0.83426712  0.37377974  0.83322292  1
  La  La23  1  0.50247099  0.87410267  0.16424621  1
  La  La24  1  0.83612842  0.37533719  0.49780574  1
  La  La25  1  0.32723121  0.12484887  0.33218919  1
  La  La26  1  0.66317974  0.62159188  0.66372595  1
  La  La27  1  0.82550980  0.12119925  0.16498368  1
  La  La28  1  0.16178910  0.12364385  0.16443511  1
  La  La29  1  0.16620919  0.62469549  0.49850984  1
  Pr  Pr30  1  0.49325274  0.62372574  0.83477521  1
  Pr  Pr31  1  0.16660349  0.12867853  0.83612350  1
  Pr  Pr32  1  0.65811089  0.12414362  0.33144317  1
  Pr  Pr33  1  0.00089538  0.37611674  0.66647993  1
  Pr  Pr34  1  -0.01116970  0.12441012  0.32606977  1
  Pr  Pr35  1  0.82976444  0.62904540  0.17207292  1
  Pr  Pr36  1  0.15876869  0.12665711  0.50039584  1
  Pr  Pr37  1  0.00365697  0.62359056  0.66312744  1
  Pr  Pr38  1  0.82770345  0.12287549  0.50307052  1
  Pr  Pr39  1  0.17166022  0.62246213  0.83671603  1
  Pr  Pr40  1  0.34452891  0.87469409  0.67281008  1
  Pr  Pr41  1  0.82580675  0.12578704  0.83963176  1
  Pr  Pr42  1  0.66750710  0.37369413  0.00387710  1
  Pr  Pr43  1  0.66663800  0.37653489  0.33569646  1
  Pr  Pr44  1  0.00997561  0.37575173  0.33422087  1
  Pr  Pr45  1  0.82839973  0.62525290  0.83531929  1
  Pr  Pr46  1  0.66446713  0.62600932  0.33264217  1
  Pr  Pr47  1  0.17370098  0.37558641  0.50023306  1
  Pr  Pr48  1  0.65951226  0.62465871  1.00146377  1
  Pr  Pr49  1  0.83672518  0.37545071  0.16396631  1
  Pr  Pr50  1  0.00323414  0.37391013  0.00081161  1
  Pr  Pr51  1  0.49206821  0.12583363  0.83675660  1
  Pr  Pr52  1  0.67902513  0.87181051  0.67186218  1
  Pr  Pr53  1  0.00278331  0.87379566  0.66701143  1
  Pr  Pr54  1  0.66909020  0.87346295  0.33574868  1
  Pr  Pr55  1  0.83971300  0.87353384  0.16492261  1
  Pr  Pr56  1  0.49293993  0.12437759  0.16586975  1
  Pr  Pr57  1  0.50282319  0.37841136  0.50041501  1
  Pr  Pr58  1  -0.00365711  0.12637909  0.66735211  1
  Pr  Pr59  1  0.16750494  0.37649623  0.16076373  1
  Pr  Pr60  1  0.32967617  0.62552693  0.99983845  1
  Pr  Pr61  1  0.17268809  0.87432486  0.49459176  1
  Pr  Pr62  1  0.33458667  0.62496726  0.33052304  1
  Pr  Pr63  1  0.33751802  0.37661031  0.33441112  1
  Pr  Pr64  1  0.66014590  0.12616583  0.66631703  1
  Pr  Pr65  1  0.33619957  0.87273174  0.33344389  1
  Pr  Pr66  1  0.32915322  0.12497315  0.99981116  1
  Pr  Pr67  1  0.32422885  0.12784801  0.66665961  1
  Pr  Pr68  1  0.49279484  0.12491491  0.50417555  1
  Pr  Pr69  1  0.84220622  0.87691321  0.83348079  1
  Pr  Pr70  1  0.50906852  0.87532570  0.83250387  1
  Pr  Pr71  1  0.50593545  0.87115760  0.50008281  1
  Mn  Mn72  1  -0.00266647  0.00258272  0.16604543  1
  Mn  Mn73  1  0.00128648  0.00424117  0.49903784  1
  Mn  Mn74  1  -0.00058374  0.00148080  0.82990634  1
  Mn  Mn75  1  -0.00265722  0.49749789  0.16655772  1
  Mn  Mn76  1  0.00251003  0.49727645  0.50005651  1
  Mn  Mn77  1  -0.00326489  0.50034936  0.83032822  1
  Mn  Mn78  1  0.33319242  0.00179754  0.16782094  1
  Mn  Mn79  1  0.33357294  0.00093319  0.50221492  1
  Mn  Mn80  1  0.33513072  -0.00041388  0.83222239  1
  Mn  Mn81  1  0.33651124  0.49891510  0.16758080  1
  Mn  Mn82  1  0.33559242  0.49830648  0.49821215  1
  Mn  Mn83  1  0.33452231  0.50088155  0.83308051  1
  Mn  Mn84  1  0.66434877  0.00193792  0.16863304  1
  Mn  Mn85  1  0.66464511  0.00100586  0.50058671  1
  Mn  Mn86  1  0.66735141  -0.00009929  0.83253437  1
  Mn  Mn87  1  0.66665578  0.49936869  0.16789391  1
  Mn  Mn88  1  0.66660740  0.49826245  0.50126325  1
  Mn  Mn89  1  0.66702896  0.50151784  0.83404489  1
  Mn  Mn90  1  -0.00333639  0.24995769  0.16720317  1
  Mn  Mn91  1  -0.00014325  0.25016448  0.49705253  1
  Mn  Mn92  1  -0.00319651  0.25041176  0.83104107  1
  Mn  Mn93  1  -0.00086726  0.74886455  0.16571990  1
  Mn  Mn94  1  0.00271466  0.75001699  0.50096884  1
  Mn  Mn95  1  -0.00074178  0.74862432  0.82987962  1
  Mn  Mn96  1  0.33369781  0.24981586  0.16821599  1
  Mn  Mn97  1  0.33484505  0.24914958  0.49884002  1
  Mn  Mn98  1  0.33393246  0.24874219  0.83238890  1
  Mn  Mn99  1  0.33596536  0.74852822  0.16720677  1
  Mn  Mn100  1  0.33480061  0.75203102  0.50048539  1
  Mn  Mn101  1  0.33541029  0.75155252  0.83282122  1
  Mn  Mn102  1  0.66512877  0.24887713  0.16798590  1
  Mn  Mn103  1  0.66590166  0.24986806  0.50037828  1
  Mn  Mn104  1  0.66625073  0.24919619  0.83294546  1
  Mn  Mn105  1  0.66571589  0.74956563  0.16860834  1
  Mn  Mn106  1  0.66671877  0.74914502  0.50143487  1
  Mn  Mn107  1  0.66797309  0.74910354  0.83389879  1
  Mn  Mn108  1  0.16570882  0.25072981  0.00006651  1
  Mn  Mn109  1  0.16785536  0.24940797  0.33215223  1
  Mn  Mn110  1  0.16395938  0.24767837  0.66533290  1
  Mn  Mn111  1  0.16681605  0.74884175  -0.00097842  1
  Mn  Mn112  1  0.16977887  0.75109683  0.33381304  1
  Mn  Mn113  1  0.16715392  0.75074119  0.66361800  1
  Mn  Mn114  1  0.50124970  0.24930355  0.00109124  1
  Mn  Mn115  1  0.49995930  0.25057102  0.33347649  1
  Mn  Mn116  1  0.50182773  0.24739135  0.66703097  1
  Mn  Mn117  1  0.50011854  0.74845283  0.00124653  1
  Mn  Mn118  1  0.50038471  0.74999387  0.33434217  1
  Mn  Mn119  1  0.50400985  0.75127020  0.66606997  1
  Mn  Mn120  1  0.82918296  0.25165208  -0.00041465  1
  Mn  Mn121  1  0.83017415  0.25154629  0.33348502  1
  Mn  Mn122  1  0.83238098  0.24825803  0.66664342  1
  Mn  Mn123  1  0.83087195  0.74813742  0.00161453  1
  Mn  Mn124  1  0.83158681  0.74945592  0.33364361  1
  Mn  Mn125  1  0.83620175  0.74949672  0.66997199  1
  Mn  Mn126  1  0.16612085  0.00202918  -0.00089368  1
  Mn  Mn127  1  0.16765635  0.00256091  0.33458218  1
  Mn  Mn128  1  0.16615491  0.00110124  0.66320774  1
  Mn  Mn129  1  0.16659008  0.49929262  -0.00111640  1
  Mn  Mn130  1  0.17013883  0.49681666  0.33231073  1
  Mn  Mn131  1  0.16645900  0.50129388  0.66593388  1
  Mn  Mn132  1  0.49991860  0.00080877  0.00048577  1
  Mn  Mn133  1  0.49885309  -0.00005558  0.33563396  1
  Mn  Mn134  1  0.50280327  0.00107137  0.66736709  1
  Mn  Mn135  1  0.50077576  0.50097218  0.00160035  1
  Mn  Mn136  1  0.50096509  0.49914543  0.33249038  1
  Mn  Mn137  1  0.50296557  0.49980988  0.66593650  1
  Mn  Mn138  1  0.82972598  0.00061650  0.00040115  1
  Mn  Mn139  1  0.82967679  0.00200094  0.33473967  1
  Mn  Mn140  1  0.83408050  0.00260332  0.66858587  1
  Mn  Mn141  1  0.82990771  0.49963728  0.00050782  1
  Mn  Mn142  1  0.83145749  0.49713695  0.33155128  1
  Mn  Mn143  1  0.83405661  0.49788860  0.66828158  1
  O  O144  1  0.17126080  0.12949061  0.01717549  1
  O  O145  1  0.17168604  0.12924742  0.35933196  1
  O  O146  1  0.16971192  0.12226387  0.69058577  1
  O  O147  1  0.17442341  0.62133346  0.00620666  1
  O  O148  1  0.17737288  0.62375318  0.35473713  1
  O  O149  1  0.16059991  0.62879306  0.68929903  1
  O  O150  1  0.49945696  0.12535400  0.02136774  1
  O  O151  1  0.50434700  0.12395886  0.36282245  1
  O  O152  1  0.51155257  0.12098550  0.69229154  1
  O  O153  1  0.50643192  0.62524968  0.02005647  1
  O  O154  1  0.50081486  0.62611350  0.35536472  1
  O  O155  1  0.50899897  0.63077998  0.68704312  1
  O  O156  1  0.82846160  0.12902886  0.02066916  1
  O  O157  1  0.83611860  0.13153133  0.35959087  1
  O  O158  1  0.84004120  0.12555345  0.69590567  1
  O  O159  1  0.82630262  0.62079062  0.02767133  1
  O  O160  1  0.82793103  0.62246997  0.34389273  1
  O  O161  1  0.84194545  0.62702852  0.69067966  1
  O  O162  1  0.16916404  0.36736720  0.30431425  1
  O  O163  1  0.15866635  0.37105964  0.64476272  1
  O  O164  1  0.15882535  0.37429166  0.98847036  1
  O  O165  1  0.17590815  0.87900044  0.32381877  1
  O  O166  1  0.15798567  0.87875933  0.63841437  1
  O  O167  1  0.16665281  0.87599233  0.99146620  1
  O  O168  1  0.49945187  0.37170498  0.31034349  1
  O  O169  1  0.50339978  0.36896928  0.64581992  1
  O  O170  1  0.50870711  0.37543510  0.98750261  1
  O  O171  1  0.49695366  0.87790931  0.30710194  1
  O  O172  1  0.49562064  0.87907601  0.64395567  1
  O  O173  1  0.50042753  0.87342282  0.97732548  1
  O  O174  1  0.81995832  0.37184561  0.30741746  1
  O  O175  1  0.83214205  0.36796390  0.64006936  1
  O  O176  1  0.82092362  0.37629688  0.97585726  1
  O  O177  1  0.82128729  0.87533362  0.31126624  1
  O  O178  1  0.82877343  0.87773068  0.65453312  1
  O  O179  1  0.83139614  0.87335780  0.97947546  1
  O  O180  1  -0.00279284  0.37113875  0.19006620  1
  O  O181  1  0.00182014  0.37140025  0.52344320  1
  O  O182  1  -0.00543340  0.37523164  0.85634898  1
  O  O183  1  -0.00834858  0.87933457  0.17562056  1
  O  O184  1  0.00906430  0.88137110  0.52200732  1
  O  O185  1  -0.00437828  0.87652555  0.84320034  1
  O  O186  1  0.32949223  0.37188523  0.19116398  1
  O  O187  1  0.33104668  0.37069589  0.51363503  1
  O  O188  1  0.33537812  0.37517597  0.84073791  1
  O  O189  1  0.33868193  0.87885150  0.18945032  1
  O  O190  1  0.32355973  0.88297797  0.53033862  1
  O  O191  1  0.34368934  0.87649080  0.84333239  1
  O  O192  1  0.66602763  0.37343712  0.19243174  1
  O  O193  1  0.66305062  0.37240377  0.52118769  1
  O  O194  1  0.67124441  0.37877351  0.85872059  1
  O  O195  1  0.65936623  0.87882587  0.19306889  1
  O  O196  1  0.66023552  0.88021139  0.52758305  1
  O  O197  1  0.66404921  0.87422590  0.84596397  1
  O  O198  1  -0.00522319  0.12886842  0.15712078  1
  O  O199  1  0.00470415  0.13076769  0.46887103  1
  O  O200  1  -0.00933374  0.12663380  0.81090989  1
  O  O201  1  -0.01118761  0.61904634  0.15882652  1
  O  O202  1  0.00644707  0.61790283  0.48762637  1
  O  O203  1  -0.01288479  0.62330310  0.80638826  1
  O  O204  1  0.34078832  0.12627510  0.14639980  1
  O  O205  1  0.34211281  0.12522583  0.47464383  1
  O  O206  1  0.33378506  0.12060325  0.81117029  1
  O  O207  1  0.33827679  0.62210794  0.14773993  1
  O  O208  1  0.33280308  0.62073123  0.47479139  1
  O  O209  1  0.33273374  0.62824606  0.82207401  1
  O  O210  1  0.67053893  0.12580640  0.14764479  1
  O  O211  1  0.66896361  0.12579330  0.47456145  1
  O  O212  1  0.67319011  0.12121515  0.80849253  1
  O  O213  1  0.67297403  0.62170894  0.14491678  1
  O  O214  1  0.66439527  0.62024087  0.47705192  1
  O  O215  1  0.67352788  0.62732186  0.80717861  1
  O  O216  1  0.07650239  0.02217529  0.25598545  1
  O  O217  1  0.07747642  0.03060438  0.58485040  1
  O  O218  1  0.08434534  0.01873467  0.90731530  1
  O  O219  1  0.08361018  0.49944410  0.25207427  1
  O  O220  1  0.08693072  0.51679521  0.58140913  1
  O  O221  1  0.08350861  0.51588240  0.90509783  1
  O  O222  1  0.41088943  0.02281619  0.26040029  1
  O  O223  1  0.41003139  0.02359650  0.59376010  1
  O  O224  1  0.41109078  0.02381335  0.92279011  1
  O  O225  1  0.41531907  0.51642275  0.25599413  1
  O  O226  1  0.42169269  0.50531799  0.57562775  1
  O  O227  1  0.41650205  0.52126466  0.92056348  1
  O  O228  1  0.74146798  0.02331463  0.25692965  1
  O  O229  1  0.74684589  0.02359522  0.59047122  1
  O  O230  1  0.74443296  0.01869195  0.91853508  1
  O  O231  1  0.74399911  0.52004099  0.25286308  1
  O  O232  1  0.74757800  0.51371541  0.59189216  1
  O  O233  1  0.74167128  0.52466149  0.92440424  1
  O  O234  1  0.24382358  0.22456346  0.24878460  1
  O  O235  1  0.24392804  0.22929418  0.57755860  1
  O  O236  1  0.25012796  0.22988921  0.91610095  1
  O  O237  1  0.25742375  0.73780488  0.25654978  1
  O  O238  1  0.24073072  0.73490175  0.57206696  1
  O  O239  1  0.24843943  0.73428383  0.91209764  1
  O  O240  1  0.57642436  0.22490218  0.24696888  1
  O  O241  1  0.57741392  0.22579353  0.57622985  1
  O  O242  1  0.57726582  0.22925946  0.90827518  1
  O  O243  1  0.58430107  0.73310738  0.25415195  1
  O  O244  1  0.58290702  0.73495399  0.58168234  1
  O  O245  1  0.57838085  0.72986119  0.90866311  1
  O  O246  1  0.90562400  0.23206778  0.24641544  1
  O  O247  1  0.90977926  0.22576114  0.57866660  1
  O  O248  1  0.90457046  0.23990725  0.90730803  1
  O  O249  1  0.90527752  0.74296134  0.24355770  1
  O  O250  1  0.92374834  0.74144699  0.59111414  1
  O  O251  1  0.90535122  0.73627243  0.90789236  1
  O  O252  1  0.07956498  0.47989559  0.08364032  1
  O  O253  1  0.08959713  0.47477076  0.41830679  1
  O  O254  1  0.07327825  0.48872407  0.73961020  1
  O  O255  1  0.08535438  1.00267915  0.08858665  1
  O  O256  1  0.09661937  0.99046154  0.42810709  1
  O  O257  1  0.08050148  0.99082224  0.74237475  1
  O  O258  1  0.42076638  0.48909195  0.08788189  1
  O  O259  1  0.41828355  0.47632476  0.41520586  1
  O  O260  1  0.42184127  0.50023866  0.75357389  1
  O  O261  1  0.42466459  0.98843345  0.09711401  1
  O  O262  1  0.42290677  0.97591805  0.42891256  1
  O  O263  1  0.43112704  0.98371316  0.75819117  1
  O  O264  1  0.75292126  0.47470263  0.08928405  1
  O  O265  1  0.75060825  0.47624513  0.41946128  1
  O  O266  1  0.75730331  0.48644153  0.76140165  1
  O  O267  1  0.75495800  0.98531870  0.09816301  1
  O  O268  1  0.74640978  0.98754988  0.41713963  1
  O  O269  1  0.75689635  0.98136321  0.75746051  1
  O  O270  1  0.24641738  0.26157870  0.08947820  1
  O  O271  1  0.25415313  0.26957639  0.40673858  1
  O  O272  1  0.24914500  0.25116126  0.74700044  1
  O  O273  1  0.25770767  0.75150791  0.08068774  1
  O  O274  1  0.25842418  0.77147105  0.41415224  1
  O  O275  1  0.25748419  0.76889443  0.73648304  1
  O  O276  1  0.59149252  0.26480300  0.07749890  1
  O  O277  1  0.58816175  0.27039441  0.40913401  1
  O  O278  1  0.59479609  0.25824855  0.73991888  1
  O  O279  1  0.58510664  0.76102664  0.08486424  1
  O  O280  1  0.58287829  0.77402610  0.41409263  1
  O  O281  1  0.59157176  0.77209304  0.74391373  1
  O  O282  1  0.91617374  0.27559604  0.07518704  1
  O  O283  1  0.91999318  0.27586313  0.40761396  1
  O  O284  1  0.91965008  0.27331471  0.74214665  1
  O  O285  1  0.91190049  0.76026383  0.08298661  1
  O  O286  1  0.91833081  0.75777055  0.41594650  1
  O  O287  1  0.91809089  0.77444582  0.74829622  1
  O  O288  1  0.24804260  0.48397660  0.09179020  1
  O  O289  1  0.25215237  0.47408210  0.41495022  1
  O  O290  1  0.24513603  0.49742989  0.75079902  1
  O  O291  1  0.25587665  1.00182718  0.08160669  1
  O  O292  1  0.26249252  0.98471392  0.41124460  1
  O  O293  1  0.26334603  0.98599260  0.73436754  1
  O  O294  1  0.59331059  0.48575403  0.07683719  1
  O  O295  1  0.58356567  0.47614607  0.41508431  1
  O  O296  1  0.59290115  0.49244636  0.74536200  1
  O  O297  1  0.58265488  0.98874928  0.08675202  1
  O  O298  1  0.58540140  0.97643637  0.41154371  1
  O  O299  1  0.59411272  0.97875567  0.73799424  1
  O  O300  1  0.91749493  0.47209127  0.07565704  1
  O  O301  1  0.92062127  0.47450599  0.41254254  1
  O  O302  1  0.91612289  0.47200233  0.74745574  1
  O  O303  1  0.91112902  0.99194203  0.08676947  1
  O  O304  1  0.91983164  0.99707346  0.41466135  1
  O  O305  1  0.92136533  0.98030369  0.74175106  1
  O  O306  1  0.08337487  0.26790023  0.08625873  1
  O  O307  1  0.09339833  0.27616475  0.41709969  1
  O  O308  1  0.07724164  0.25842384  0.74297767  1
  O  O309  1  0.08371886  0.75142686  0.08125251  1
  O  O310  1  0.09634542  0.76109131  0.42614404  1
  O  O311  1  0.07880946  0.76395815  0.74008875  1
  O  O312  1  0.42370146  0.25850124  0.09111359  1
  O  O313  1  0.42554913  0.27158168  0.42170776  1
  O  O314  1  0.42203340  0.24795980  0.75215411  1
  O  O315  1  0.42501203  0.76430626  0.09246448  1
  O  O316  1  0.41965779  0.77659425  0.41906776  1
  O  O317  1  0.42829238  0.76710744  0.75532011  1
  O  O318  1  0.75393418  0.27114136  0.09027343  1
  O  O319  1  0.75519375  0.27148146  0.42317820  1
  O  O320  1  0.75826462  0.26429567  0.75819464  1
  O  O321  1  0.75646926  0.76557030  0.09567486  1
  O  O322  1  0.74398435  0.76332805  0.41416701  1
  O  O323  1  0.75869308  0.76737090  0.76055294  1
  O  O324  1  0.24513418  0.02459250  0.24580538  1
  O  O325  1  0.24336740  0.02865712  0.57367273  1
  O  O326  1  0.24751822  0.02151890  0.91047152  1
  O  O327  1  0.25851646  0.51143924  0.25876075  1
  O  O328  1  0.24555576  0.51009986  0.57451513  1
  O  O329  1  0.25359051  0.51589887  0.91636732  1
  O  O330  1  0.57751269  0.02399894  0.24749545  1
  O  O331  1  0.57636038  0.02398866  0.57631961  1
  O  O332  1  0.57425329  0.01367741  0.90183209  1
  O  O333  1  0.58617333  0.51754295  0.25353349  1
  O  O334  1  0.58445247  0.51557664  0.58079372  1
  O  O335  1  0.58076808  0.52572225  0.91111766  1
  O  O336  1  0.90765598  0.01901356  0.24811784  1
  O  O337  1  0.91426994  0.02577197  0.57998425  1
  O  O338  1  0.90645390  0.01186935  0.90470967  1
  O  O339  1  0.90502570  0.50413763  0.23983555  1
  O  O340  1  0.92384246  0.50677000  0.58718019  1
  O  O341  1  0.90412216  0.51268225  0.90841538  1
  O  O342  1  0.07926801  0.23013054  0.26040685  1
  O  O343  1  0.07993275  0.22541234  0.58454706  1
  O  O344  1  0.08331607  0.23568163  0.91038667  1
  O  O345  1  0.08522141  0.74450932  0.25442744  1
  O  O346  1  0.08324752  0.72819599  0.58489713  1
  O  O347  1  0.08451085  0.73191553  0.90414682  1
  O  O348  1  0.41175409  0.22763718  0.25916537  1
  O  O349  1  0.41515022  0.22443738  0.58948281  1
  O  O350  1  0.41353045  0.22829904  0.92102440  1
  O  O351  1  0.41453901  0.73402147  0.25821613  1
  O  O352  1  0.41721688  0.74621830  0.58280748  1
  O  O353  1  0.41548100  0.72665456  0.92367038  1
  O  O354  1  0.74195424  0.22700947  0.25921010  1
  O  O355  1  0.74674788  0.22265618  0.58901987  1
  O  O356  1  0.74352013  0.23229002  0.92098567  1
  O  O357  1  0.74369102  0.73030361  0.25430120  1
  O  O358  1  0.74583824  0.73667456  0.59655828  1
  O  O359  1  0.74319067  0.72529355  0.92407394  1
