# generated using pymatgen
data_Ba17Sr5La8Pr42Mn72O216
_symmetry_space_group_name_H-M   'P 1'
_cell_length_a   16.67769016
_cell_length_b   15.70579900
_cell_length_c   16.81941441
_cell_angle_alpha   89.99270101
_cell_angle_beta   89.99776809
_cell_angle_gamma   89.99219939
_symmetry_Int_Tables_number   1
_chemical_formula_structural   Ba17Sr5La8Pr42Mn72O216
_chemical_formula_sum   'Ba17 Sr5 La8 Pr42 Mn72 O216'
_cell_volume   4405.61761145
_cell_formula_units_Z   1
loop_
 _symmetry_equiv_pos_site_id
 _symmetry_equiv_pos_as_xyz
  1  'x, y, z'
loop_
 _atom_site_type_symbol
 _atom_site_label
 _atom_site_symmetry_multiplicity
 _atom_site_fract_x
 _atom_site_fract_y
 _atom_site_fract_z
 _atom_site_occupancy
  Ba  Ba0  1  0.66574082  0.37282958  0.33579465  1
  Ba  Ba1  1  0.32742580  0.37490122  0.33476342  1
  Ba  Ba2  1  0.00275081  0.37211047  0.66332883  1
  Ba  Ba3  1  0.17074222  0.62566513  0.83161010  1
  Ba  Ba4  1  0.83207683  0.87749513  0.50073860  1
  Ba  Ba5  1  0.33602164  0.87542495  0.66639733  1
  Ba  Ba6  1  0.83556882  0.62666762  0.50192800  1
  Ba  Ba7  1  0.33384299  0.37462958  0.66572036  1
  Ba  Ba8  1  -0.00119683  0.62546143  0.33146814  1
  Ba  Ba9  1  0.00333180  0.12505256  0.66539949  1
  Ba  Ba10  1  0.83296384  0.62399429  0.83442689  1
  Ba  Ba11  1  0.66477932  0.87568649  0.00283642  1
  Ba  Ba12  1  0.17030434  0.12476376  0.83500305  1
  Ba  Ba13  1  0.66837449  0.37385466  0.66918998  1
  Ba  Ba14  1  0.66384446  0.87595227  0.33486101  1
  Ba  Ba15  1  0.67100967  0.62212454  0.66838546  1
  Ba  Ba16  1  0.49817694  0.87483709  0.49701768  1
  Sr  Sr17  1  0.15621818  0.87282325  0.16494127  1
  Sr  Sr18  1  0.83412951  0.12371249  0.16934777  1
  Sr  Sr19  1  0.16253990  0.37298344  0.49772718  1
  Sr  Sr20  1  0.83198295  0.12448908  0.50130564  1
  Sr  Sr21  1  -0.00023261  0.87398703  -0.00126746  1
  La  La22  1  0.33711393  0.62502328  0.99756611  1
  La  La23  1  0.83684926  0.37425533  0.50125543  1
  La  La24  1  0.49937586  0.37491967  0.82989594  1
  La  La25  1  0.33503381  0.62389698  0.33283858  1
  La  La26  1  0.32664491  0.87554692  0.33660023  1
  La  La27  1  0.50372749  0.12829893  0.49781803  1
  La  La28  1  0.00102299  0.62851595  0.99701990  1
  La  La29  1  -0.00223270  0.37399757  -0.00328097  1
  Pr  Pr30  1  0.66626786  0.37694060  0.00747126  1
  Pr  Pr31  1  0.82914938  0.62756334  0.17094670  1
  Pr  Pr32  1  0.50733944  0.12562276  0.16882223  1
  Pr  Pr33  1  0.33900611  0.12579229  0.66275311  1
  Pr  Pr34  1  0.67364922  0.87433915  0.67040357  1
  Pr  Pr35  1  0.66863689  0.12411754  0.66618215  1
  Pr  Pr36  1  0.83302400  0.37393439  0.16821421  1
  Pr  Pr37  1  0.33860413  0.12652092  0.33055834  1
  Pr  Pr38  1  0.15967090  0.87439207  0.83024809  1
  Pr  Pr39  1  0.50126356  0.12531533  0.83132392  1
  Pr  Pr40  1  0.66484516  0.62792966  0.99555150  1
  Pr  Pr41  1  0.83707458  0.87623920  0.16426968  1
  Pr  Pr42  1  0.83718359  0.37446659  0.83014156  1
  Pr  Pr43  1  0.32078535  0.37432541  0.00286965  1
  Pr  Pr44  1  0.17244979  0.12737009  0.50273909  1
  Pr  Pr45  1  0.50412747  0.87467143  0.82552627  1
  Pr  Pr46  1  0.33759960  0.12559912  0.99694094  1
  Pr  Pr47  1  0.00575671  0.62443856  0.65758678  1
  Pr  Pr48  1  -0.00416044  0.37359299  0.33841085  1
  Pr  Pr49  1  0.83923938  0.87659233  0.83247680  1
  Pr  Pr50  1  0.50574249  0.62235675  0.49884774  1
  Pr  Pr51  1  0.17348466  0.62345152  0.50459841  1
  Pr  Pr52  1  0.16242792  0.37551121  0.82610655  1
  Pr  Pr53  1  0.34418142  0.62468210  0.66339789  1
  Pr  Pr54  1  0.66907430  0.62759307  0.33694467  1
  Pr  Pr55  1  0.32342934  0.87588768  0.00145377  1
  Pr  Pr56  1  0.50336252  0.62481748  0.83113113  1
  Pr  Pr57  1  0.83394797  0.12921108  0.83717383  1
  Pr  Pr58  1  0.66788739  0.12237508  0.99981319  1
  Pr  Pr59  1  0.17233149  0.62833606  0.16934735  1
  Pr  Pr60  1  -0.00279610  0.87627496  0.66572705  1
  Pr  Pr61  1  0.49987596  0.37829111  0.49589580  1
  Pr  Pr62  1  -0.00102751  0.12001645  0.99371770  1
  Pr  Pr63  1  0.67320772  0.12113161  0.33434586  1
  Pr  Pr64  1  -0.00816815  0.87649768  0.33211755  1
  Pr  Pr65  1  0.15547117  0.37776193  0.16777135  1
  Pr  Pr66  1  0.50588611  0.62515495  0.16793135  1
  Pr  Pr67  1  0.49352617  0.87620348  0.16128192  1
  Pr  Pr68  1  0.16071300  0.87781051  0.49662435  1
  Pr  Pr69  1  0.49294663  0.37435492  0.16054559  1
  Pr  Pr70  1  0.16926259  0.12227353  0.16812160  1
  Pr  Pr71  1  0.00120219  0.12395766  0.33060127  1
  Mn  Mn72  1  0.00000639  0.00216542  0.16381421  1
  Mn  Mn73  1  0.00127266  0.00131790  0.49742300  1
  Mn  Mn74  1  0.00063453  -0.00018737  0.83364282  1
  Mn  Mn75  1  -0.00322227  0.49900733  0.16362871  1
  Mn  Mn76  1  0.00390892  0.49958193  0.49715192  1
  Mn  Mn77  1  0.00037222  0.50219012  0.83214552  1
  Mn  Mn78  1  0.33136479  0.00056900  0.16610774  1
  Mn  Mn79  1  0.33284607  0.00101344  0.49792339  1
  Mn  Mn80  1  0.33605774  -0.00073426  0.83477998  1
  Mn  Mn81  1  0.33107726  0.49840205  0.16450233  1
  Mn  Mn82  1  0.33338366  0.49987826  0.49936331  1
  Mn  Mn83  1  0.33600721  0.50039063  0.83449804  1
  Mn  Mn84  1  0.66589569  0.00013336  0.16728677  1
  Mn  Mn85  1  0.66578969  0.00257600  0.50113020  1
  Mn  Mn86  1  0.66844166  0.00148068  0.83478088  1
  Mn  Mn87  1  0.66490154  0.49923322  0.16811889  1
  Mn  Mn88  1  0.66798962  0.49726017  0.50018210  1
  Mn  Mn89  1  0.66607670  0.49817335  0.83971741  1
  Mn  Mn90  1  -0.00094819  0.24902364  0.16554777  1
  Mn  Mn91  1  0.00022188  0.24750796  0.49664440  1
  Mn  Mn92  1  0.00063324  0.24840727  0.83460188  1
  Mn  Mn93  1  -0.00178705  0.74946955  0.16326874  1
  Mn  Mn94  1  0.00415942  0.75228250  0.49773342  1
  Mn  Mn95  1  0.00096968  0.74952928  0.83164538  1
  Mn  Mn96  1  0.33045443  0.24972540  0.16465647  1
  Mn  Mn97  1  0.33405898  0.25015946  0.49816686  1
  Mn  Mn98  1  0.33567622  0.25025493  0.83508321  1
  Mn  Mn99  1  0.33198395  0.75103045  0.16628945  1
  Mn  Mn100  1  0.33232645  0.75017111  0.49879246  1
  Mn  Mn101  1  0.33629898  0.75096499  0.83430405  1
  Mn  Mn102  1  0.66575389  0.24990542  0.16848049  1
  Mn  Mn103  1  0.66740905  0.24964311  0.50231609  1
  Mn  Mn104  1  0.66704596  0.24900636  0.83859414  1
  Mn  Mn105  1  0.66417657  0.75059217  0.16733560  1
  Mn  Mn106  1  0.66601425  0.75005539  0.50140443  1
  Mn  Mn107  1  0.66756575  0.75154165  0.83637795  1
  Mn  Mn108  1  0.16440723  0.25037871  0.00238036  1
  Mn  Mn109  1  0.16408382  0.24673905  0.33277720  1
  Mn  Mn110  1  0.17026286  0.24938686  0.66638125  1
  Mn  Mn111  1  0.16631829  0.74955731  0.00099828  1
  Mn  Mn112  1  0.16537618  0.75081303  0.33328199  1
  Mn  Mn113  1  0.16925866  0.75196183  0.66501031  1
  Mn  Mn114  1  0.49939294  0.24975040  -0.00157076  1
  Mn  Mn115  1  0.49935108  0.25045948  0.33187181  1
  Mn  Mn116  1  0.50139538  0.24954405  0.66682854  1
  Mn  Mn117  1  0.49634525  0.75158769  -0.00127759  1
  Mn  Mn118  1  0.49703069  0.74809885  0.33007916  1
  Mn  Mn119  1  0.50450732  0.75026551  0.66487255  1
  Mn  Mn120  1  0.83207170  0.24963776  0.00283594  1
  Mn  Mn121  1  0.83392814  0.24796783  0.33380899  1
  Mn  Mn122  1  0.83427692  0.24819510  0.66797047  1
  Mn  Mn123  1  0.83368349  0.75087007  0.00254067  1
  Mn  Mn124  1  0.83143051  0.74994556  0.33266788  1
  Mn  Mn125  1  0.83646258  0.75090634  0.66902199  1
  Mn  Mn126  1  0.16622800  -0.00067278  0.00284778  1
  Mn  Mn127  1  0.16539818  0.00050910  0.33249489  1
  Mn  Mn128  1  0.17005946  0.00003188  0.66543167  1
  Mn  Mn129  1  0.16460388  0.49936407  -0.00021504  1
  Mn  Mn130  1  0.16459612  0.50209262  0.33321959  1
  Mn  Mn131  1  0.16955147  0.49977909  0.66644120  1
  Mn  Mn132  1  0.49650988  0.00087232  -0.00135342  1
  Mn  Mn133  1  0.49777190  0.00202632  0.33040192  1
  Mn  Mn134  1  0.50429070  0.00119201  0.66547949  1
  Mn  Mn135  1  0.49865975  0.49909156  -0.00151533  1
  Mn  Mn136  1  0.49867284  0.50041482  0.33063406  1
  Mn  Mn137  1  0.50170763  0.49856884  0.66601044  1
  Mn  Mn138  1  0.83349133  0.00059333  0.00184462  1
  Mn  Mn139  1  0.83362194  0.00251498  0.33260867  1
  Mn  Mn140  1  0.83463329  0.00135950  0.66898586  1
  Mn  Mn141  1  0.83239054  0.49773629  0.00339219  1
  Mn  Mn142  1  0.83185351  0.49968143  0.33265652  1
  Mn  Mn143  1  0.83770385  0.49823320  0.66682583  1
  O  O144  1  0.16574509  0.12520833  0.02428043  1
  O  O145  1  0.15452076  0.12157553  0.35870120  1
  O  O146  1  0.17555758  0.12404443  0.67781317  1
  O  O147  1  0.16667311  0.62073343  0.02446993  1
  O  O148  1  0.16591383  0.62978093  0.35757877  1
  O  O149  1  0.15725359  0.62781179  0.67538947  1
  O  O150  1  0.49238548  0.12650222  0.02710500  1
  O  O151  1  0.48929712  0.12798378  0.35155124  1
  O  O152  1  0.49798625  0.12589467  0.68862341  1
  O  O153  1  0.49603532  0.62188201  0.02588818  1
  O  O154  1  0.48960576  0.62366263  0.35269653  1
  O  O155  1  0.49680290  0.62462867  0.68642531  1
  O  O156  1  0.83940378  0.12630943  0.02147565  1
  O  O157  1  0.83327074  0.12610720  0.35116806  1
  O  O158  1  0.82649452  0.12354619  0.69332608  1
  O  O159  1  0.83295163  0.62016938  0.02658543  1
  O  O160  1  0.82682010  0.62379127  0.34221011  1
  O  O161  1  0.84372568  0.62624789  0.67618994  1
  O  O162  1  0.15975969  0.37123042  0.30944411  1
  O  O163  1  0.17022324  0.37353492  0.65128767  1
  O  O164  1  0.16726274  0.37662908  0.97103104  1
  O  O165  1  0.17706345  0.87658123  0.31129875  1
  O  O166  1  0.16766317  0.87660885  0.64214627  1
  O  O167  1  0.17178340  0.87640722  0.97656526  1
  O  O168  1  0.49962115  0.37490050  0.30510677  1
  O  O169  1  0.50132692  0.37183769  0.64241682  1
  O  O170  1  0.50931510  0.37356962  0.97227703  1
  O  O171  1  0.49411353  0.87427659  0.30560904  1
  O  O172  1  0.51300636  0.87699496  0.65489271  1
  O  O173  1  0.49405092  0.87941776  0.97136950  1
  O  O174  1  0.83876582  0.37277922  0.31127044  1
  O  O175  1  0.83595263  0.37091353  0.64929966  1
  O  O176  1  0.82510725  0.37210767  0.97383305  1
  O  O177  1  0.83817101  0.87740865  0.30996759  1
  O  O178  1  0.83580611  0.87767075  0.65818744  1
  O  O179  1  0.83342280  0.87906003  0.97652889  1
  O  O180  1  0.00255122  0.37330955  0.19398323  1
  O  O181  1  -0.00304103  0.37280784  0.50478233  1
  O  O182  1  0.00271612  0.37331846  0.85268382  1
  O  O183  1  -0.00396378  0.87809366  0.18825618  1
  O  O184  1  0.00741758  0.87734085  0.52020426  1
  O  O185  1  0.00113574  0.87489752  0.85007723  1
  O  O186  1  0.33885462  0.37576917  0.17961872  1
  O  O187  1  0.33909080  0.37443981  0.51019654  1
  O  O188  1  0.34403302  0.37525586  0.86010999  1
  O  O189  1  0.34252428  0.88006806  0.19399789  1
  O  O190  1  0.32679565  0.87644199  0.50854064  1
  O  O191  1  0.34640148  0.87503455  0.85843180  1
  O  O192  1  0.66187793  0.37499762  0.18097762  1
  O  O193  1  0.65762662  0.37245356  0.51182825  1
  O  O194  1  0.65993558  0.37103619  0.86485058  1
  O  O195  1  0.65774027  0.87439250  0.17898110  1
  O  O196  1  0.66235007  0.87990052  0.52168564  1
  O  O197  1  0.65747504  0.87804244  0.84781132  1
  O  O198  1  0.00237439  0.12791766  0.13628813  1
  O  O199  1  0.00706709  0.12342129  0.47454856  1
  O  O200  1  -0.00704098  0.12422018  0.82473110  1
  O  O201  1  -0.01388028  0.61996416  0.13934179  1
  O  O202  1  0.01270565  0.62711907  0.49048465  1
  O  O203  1  0.00046155  0.62847832  0.80577242  1
  O  O204  1  0.32426540  0.12460911  0.13784618  1
  O  O205  1  0.33512779  0.12464997  0.47544811  1
  O  O206  1  0.33830680  0.12373640  0.80857542  1
  O  O207  1  0.32522917  0.61992396  0.13951919  1
  O  O208  1  0.33362478  0.62611291  0.47814548  1
  O  O209  1  0.33810084  0.62686548  0.80850556  1
  O  O210  1  0.66136807  0.12684539  0.14237460  1
  O  O211  1  0.66645551  0.12746891  0.47911823  1
  O  O212  1  0.67093972  0.12502374  0.81024646  1
  O  O213  1  0.66506219  0.62283367  0.13903397  1
  O  O214  1  0.66298624  0.62129727  0.48276544  1
  O  O215  1  0.66189254  0.62626639  0.82577757  1
  O  O216  1  0.08652463  0.02185438  0.24517945  1
  O  O217  1  0.09366836  0.01314952  0.56908122  1
  O  O218  1  0.08099120  0.01188474  0.91857628  1
  O  O219  1  0.08857199  0.51773329  0.23358164  1
  O  O220  1  0.09371085  0.51265824  0.57567153  1
  O  O221  1  0.08099440  0.51651914  0.91894747  1
  O  O222  1  0.42052956  0.02642877  0.23894738  1
  O  O223  1  0.41991066  0.01942206  0.58048860  1
  O  O224  1  0.41957351  0.02792179  0.91493596  1
  O  O225  1  0.42020344  0.52025519  0.24167072  1
  O  O226  1  0.41932291  0.51995442  0.57946740  1
  O  O227  1  0.42305449  0.52333273  0.91101463  1
  O  O228  1  0.75029843  0.01714737  0.25317540  1
  O  O229  1  0.74502773  0.01381100  0.59536511  1
  O  O230  1  0.74981331  0.02427274  0.92007248  1
  O  O231  1  0.74604625  0.51951385  0.24957776  1
  O  O232  1  0.75670947  0.50026455  0.58327910  1
  O  O233  1  0.74054642  0.51269699  0.93279643  1
  O  O234  1  0.24917014  0.22423188  0.25532268  1
  O  O235  1  0.25859441  0.22905384  0.58496551  1
  O  O236  1  0.26117848  0.23762067  0.92992598  1
  O  O237  1  0.25520008  0.72806514  0.25814457  1
  O  O238  1  0.25826343  0.72676297  0.59170530  1
  O  O239  1  0.26029117  0.73791586  0.92986656  1
  O  O240  1  0.58542247  0.22504816  0.25445442  1
  O  O241  1  0.58575310  0.22623573  0.58754994  1
  O  O242  1  0.58580108  0.22038755  0.92278518  1
  O  O243  1  0.58409262  0.72361900  0.25190176  1
  O  O244  1  0.58091393  0.73108751  0.57993289  1
  O  O245  1  0.58027124  0.73179281  0.91862459  1
  O  O246  1  0.92330962  0.23093986  0.25168773  1
  O  O247  1  0.91648482  0.23759158  0.57541349  1
  O  O248  1  0.91486469  0.23488691  0.92037112  1
  O  O249  1  0.90937272  0.73950069  0.24149647  1
  O  O250  1  0.93409235  0.74324047  0.59203276  1
  O  O251  1  0.92147275  0.73478242  0.92228649  1
  O  O252  1  0.07583846  0.47693394  0.07693553  1
  O  O253  1  0.07735257  0.48166674  0.40647883  1
  O  O254  1  0.08706949  0.48631386  0.74892087  1
  O  O255  1  0.07961521  0.98643072  0.08009080  1
  O  O256  1  0.07891511  0.97392806  0.40559570  1
  O  O257  1  0.08259120  0.97965547  0.74690588  1
  O  O258  1  0.41264230  0.47615131  0.07169399  1
  O  O259  1  0.41869846  0.48696555  0.41722798  1
  O  O260  1  0.41962031  0.48801378  0.75071016  1
  O  O261  1  0.40774252  0.97859432  0.07659687  1
  O  O262  1  0.40349236  0.98824103  0.40216728  1
  O  O263  1  0.42896403  0.98692995  0.75482178  1
  O  O264  1  0.75138689  0.47582567  0.08955136  1
  O  O265  1  0.75262911  0.48473737  0.42009574  1
  O  O266  1  0.75169810  0.48202715  0.76615441  1
  O  O267  1  0.75226295  0.98765967  0.08830503  1
  O  O268  1  0.74728353  0.99733062  0.41783182  1
  O  O269  1  0.75490884  0.97865197  0.75920054  1
  O  O270  1  0.24067539  0.27347922  0.09044383  1
  O  O271  1  0.24156170  0.25389037  0.42151408  1
  O  O272  1  0.24919911  0.26786022  0.76342080  1
  O  O273  1  0.24493526  0.76778426  0.09223292  1
  O  O274  1  0.23929456  0.76501021  0.42504548  1
  O  O275  1  0.24499966  0.76993670  0.76106143  1
  O  O276  1  0.57517817  0.26916653  0.08610744  1
  O  O277  1  0.57535086  0.25981654  0.42477489  1
  O  O278  1  0.58015058  0.26074558  0.76070703  1
  O  O279  1  0.57153758  0.76132532  0.09047977  1
  O  O280  1  0.57549688  0.74990567  0.41422174  1
  O  O281  1  0.58811915  0.76668546  0.74937129  1
  O  O282  1  0.91289468  0.27601446  0.08592694  1
  O  O283  1  0.91597587  0.26653652  0.41386624  1
  O  O284  1  0.91333126  0.26061792  0.75812654  1
  O  O285  1  0.91378231  0.77136149  0.08422465  1
  O  O286  1  0.91956717  0.76438961  0.41243891  1
  O  O287  1  0.91708875  0.77320107  0.75346932  1
  O  O288  1  0.23915107  0.47527068  0.08892739  1
  O  O289  1  0.24423446  0.49413912  0.42623066  1
  O  O290  1  0.24784530  0.48401554  0.76093010  1
  O  O291  1  0.24445556  0.97849831  0.09277508  1
  O  O292  1  0.23956890  0.98835664  0.42281276  1
  O  O293  1  0.24795968  0.97983606  0.76272620  1
  O  O294  1  0.57778140  0.47923598  0.08597871  1
  O  O295  1  0.57661412  0.49073986  0.41828919  1
  O  O296  1  0.57921238  0.48681235  0.76025577  1
  O  O297  1  0.56910728  0.98937746  0.08887787  1
  O  O298  1  0.57578141  1.00052609  0.41648428  1
  O  O299  1  0.59200815  0.98920209  0.74565241  1
  O  O300  1  0.91335742  0.46824589  0.08390854  1
  O  O301  1  0.91540565  0.48352757  0.41495609  1
  O  O302  1  0.91418203  0.48257121  0.75625092  1
  O  O303  1  0.91411143  0.98164225  0.08486198  1
  O  O304  1  0.92140461  0.98844420  0.40955333  1
  O  O305  1  0.91891224  0.98128509  0.75171323  1
  O  O306  1  0.07931275  0.27685975  0.08366198  1
  O  O307  1  0.07361599  0.26328873  0.40314980  1
  O  O308  1  0.08726977  0.26103485  0.75647863  1
  O  O309  1  0.07732500  0.75627621  0.07705625  1
  O  O310  1  0.07904728  0.77815942  0.40738200  1
  O  O311  1  0.08098621  0.77329876  0.74067500  1
  O  O312  1  0.41164724  0.27241777  0.07127113  1
  O  O313  1  0.41798996  0.26408029  0.41603610  1
  O  O314  1  0.42044039  0.26228421  0.75180960  1
  O  O315  1  0.40979727  0.77327617  0.07533632  1
  O  O316  1  0.40355949  0.76234500  0.40100109  1
  O  O317  1  0.42619837  0.76294585  0.75240434  1
  O  O318  1  0.74688496  0.27038292  0.08329781  1
  O  O319  1  0.75502756  0.26345562  0.42621705  1
  O  O320  1  0.75435932  0.26562230  0.76625120  1
  O  O321  1  0.75502377  0.76345390  0.09435011  1
  O  O322  1  0.74532141  0.75518114  0.41601153  1
  O  O323  1  0.75295512  0.77138875  0.75913562  1
  O  O324  1  0.25465433  0.02607978  0.25775023  1
  O  O325  1  0.25872364  0.02211741  0.58522013  1
  O  O326  1  0.25955283  0.01318156  0.93212014  1
  O  O327  1  0.24927019  0.52166008  0.25500764  1
  O  O328  1  0.25776850  0.52352568  0.59093425  1
  O  O329  1  0.26122863  0.51283208  0.92914342  1
  O  O330  1  0.58500091  0.02432241  0.25366008  1
  O  O331  1  0.58406551  0.02808913  0.58372691  1
  O  O332  1  0.58357183  0.02519644  0.91723195  1
  O  O333  1  0.58424170  0.52598529  0.25108015  1
  O  O334  1  0.57924309  0.51157044  0.57862019  1
  O  O335  1  0.58269831  0.52353449  0.92265763  1
  O  O336  1  0.92222039  0.01861558  0.24991835  1
  O  O337  1  0.91869792  0.00968194  0.58328243  1
  O  O338  1  0.91357635  0.01737844  0.91591738  1
  O  O339  1  0.90874927  0.51019453  0.24095819  1
  O  O340  1  0.93088296  0.51153766  0.58471219  1
  O  O341  1  0.91898612  0.50979271  0.92569478  1
  O  O342  1  0.08657552  0.22455506  0.24208070  1
  O  O343  1  0.09061779  0.23714064  0.56985792  1
  O  O344  1  0.07719486  0.23493702  0.92622139  1
  O  O345  1  0.08912467  0.73468804  0.23986071  1
  O  O346  1  0.09696826  0.74076162  0.57134627  1
  O  O347  1  0.08531228  0.73970666  0.91233540  1
  O  O348  1  0.41874581  0.22958036  0.23969319  1
  O  O349  1  0.41993111  0.22825066  0.58065898  1
  O  O350  1  0.42365681  0.22624899  0.91167511  1
  O  O351  1  0.42150331  0.72685862  0.23813765  1
  O  O352  1  0.42054520  0.73094883  0.57943196  1
  O  O353  1  0.42020461  0.72418680  0.91334860  1
  O  O354  1  0.75029522  0.23239275  0.25337501  1
  O  O355  1  0.74682006  0.23153686  0.59041650  1
  O  O356  1  0.74846322  0.22350515  0.92309560  1
  O  O357  1  0.74461522  0.73023531  0.25058153  1
  O  O358  1  0.75031427  0.74930141  0.59216317  1
  O  O359  1  0.74524297  0.73606957  0.92713019  1
