# generated using pymatgen
data_Ba17Sr5La8Pr42Mn72O216
_symmetry_space_group_name_H-M   'P 1'
_cell_length_a   16.67556909
_cell_length_b   15.70550024
_cell_length_c   16.82135676
_cell_angle_alpha   90.00808888
_cell_angle_beta   89.96661021
_cell_angle_gamma   89.99005326
_symmetry_Int_Tables_number   1
_chemical_formula_structural   Ba17Sr5La8Pr42Mn72O216
_chemical_formula_sum   'Ba17 Sr5 La8 Pr42 Mn72 O216'
_cell_volume   4405.48142983
_cell_formula_units_Z   1
loop_
 _symmetry_equiv_pos_site_id
 _symmetry_equiv_pos_as_xyz
  1  'x, y, z'
loop_
 _atom_site_type_symbol
 _atom_site_label
 _atom_site_symmetry_multiplicity
 _atom_site_fract_x
 _atom_site_fract_y
 _atom_site_fract_z
 _atom_site_occupancy
  Ba  Ba0  1  -0.00136967  0.12707079  0.99966677  1
  Ba  Ba1  1  0.49863443  0.12645074  0.83397077  1
  Ba  Ba2  1  0.66389615  0.62545422  0.99846965  1
  Ba  Ba3  1  0.16908148  0.87601048  0.83358667  1
  Ba  Ba4  1  -0.00127262  0.37605171  0.33360787  1
  Ba  Ba5  1  0.49857495  0.12500689  0.50411231  1
  Ba  Ba6  1  0.66587954  0.12688570  0.66530937  1
  Ba  Ba7  1  0.83490788  0.87394963  0.49680300  1
  Ba  Ba8  1  0.83144411  0.12416039  0.50031155  1
  Ba  Ba9  1  0.66670127  0.37575111  0.00028024  1
  Ba  Ba10  1  0.50084557  0.37624386  0.16675049  1
  Ba  Ba11  1  0.83583355  0.87343153  0.16386674  1
  Ba  Ba12  1  0.49763800  0.62222261  0.83427225  1
  Ba  Ba13  1  0.66846330  0.87439071  -0.00005522  1
  Ba  Ba14  1  0.16424376  0.62338226  0.49922872  1
  Ba  Ba15  1  0.16373452  0.12696907  0.49889239  1
  Ba  Ba16  1  0.33238029  0.62583232  0.33157173  1
  Sr  Sr17  1  0.66424333  0.62135369  0.66571102  1
  Sr  Sr18  1  0.00390209  0.37508912  0.00434432  1
  Sr  Sr19  1  0.50212959  0.37656511  0.83516650  1
  Sr  Sr20  1  0.83623412  0.37606991  0.83389570  1
  Sr  Sr21  1  0.50102050  0.62366859  0.16612233  1
  La  La22  1  0.16250470  0.62480935  0.17119079  1
  La  La23  1  0.66924410  0.37133895  0.67280810  1
  La  La24  1  0.17411818  0.37588451  0.16362053  1
  La  La25  1  0.33967061  0.87557171  0.66847621  1
  La  La26  1  0.17231573  0.87497418  0.50008370  1
  La  La27  1  -0.00358920  0.62697953  0.66662043  1
  La  La28  1  0.82676669  0.12665069  0.16675281  1
  La  La29  1  0.15686515  0.12589583  0.17090002  1
  Pr  Pr30  1  0.33182957  0.62177883  0.99904784  1
  Pr  Pr31  1  0.33061118  0.12798238  0.99723218  1
  Pr  Pr32  1  0.34094912  0.37510737  0.00130852  1
  Pr  Pr33  1  0.50754201  0.87234537  0.83092426  1
  Pr  Pr34  1  -0.00712795  0.62427928  0.99736359  1
  Pr  Pr35  1  0.66526700  0.37645573  0.33302100  1
  Pr  Pr36  1  0.00442057  0.37539452  0.66838085  1
  Pr  Pr37  1  0.00761288  0.87530720  0.00382415  1
  Pr  Pr38  1  0.49579507  0.62367503  0.50615814  1
  Pr  Pr39  1  0.16311732  0.62457450  0.83682405  1
  Pr  Pr40  1  0.83775521  0.37684361  0.15797573  1
  Pr  Pr41  1  0.66972839  0.87323740  0.33603492  1
  Pr  Pr42  1  0.67382137  0.88015262  0.67077095  1
  Pr  Pr43  1  0.50918944  0.87453355  0.50197951  1
  Pr  Pr44  1  0.16286052  0.12500168  0.83512039  1
  Pr  Pr45  1  0.17293567  0.37579198  0.49609110  1
  Pr  Pr46  1  0.83933600  0.87299407  0.82941848  1
  Pr  Pr47  1  0.34184742  0.87561339  -0.00194212  1
  Pr  Pr48  1  -0.00293193  0.12360588  0.66508152  1
  Pr  Pr49  1  0.32976014  0.12418452  0.66331632  1
  Pr  Pr50  1  0.82635565  0.62240145  0.83471332  1
  Pr  Pr51  1  0.66411404  0.12256108  0.33516726  1
  Pr  Pr52  1  0.82644176  0.12812767  0.83515663  1
  Pr  Pr53  1  0.50368648  0.87057829  0.16633114  1
  Pr  Pr54  1  0.83287071  0.62328519  0.49950756  1
  Pr  Pr55  1  0.66542857  0.12584987  0.99819062  1
  Pr  Pr56  1  0.00650357  0.87589809  0.66514840  1
  Pr  Pr57  1  -0.01286909  0.12494203  0.32890993  1
  Pr  Pr58  1  0.50397299  0.37349403  0.49992538  1
  Pr  Pr59  1  0.32687820  0.12441385  0.32883321  1
  Pr  Pr60  1  0.16701607  0.37129367  0.83549014  1
  Pr  Pr61  1  0.33522632  0.37333478  0.66784891  1
  Pr  Pr62  1  0.32989267  0.62591284  0.66315016  1
  Pr  Pr63  1  0.66460660  0.62736502  0.33014394  1
  Pr  Pr64  1  0.34372308  0.87323181  0.33625241  1
  Pr  Pr65  1  0.82466213  0.62367468  0.16368176  1
  Pr  Pr66  1  0.17653705  0.87565977  0.16132083  1
  Pr  Pr67  1  0.50035984  0.12555987  0.17012259  1
  Pr  Pr68  1  0.33819236  0.37758249  0.33609714  1
  Pr  Pr69  1  -0.00734276  0.62615093  0.32875219  1
  Pr  Pr70  1  0.00960320  0.87640993  0.33492719  1
  Pr  Pr71  1  0.83036594  0.37513544  0.49820010  1
  Mn  Mn72  1  -0.00034540  -0.00052942  0.16755606  1
  Mn  Mn73  1  0.00173347  -0.00001440  0.49855040  1
  Mn  Mn74  1  -0.00050997  0.00014339  0.83239376  1
  Mn  Mn75  1  0.00065210  0.50120739  0.16502044  1
  Mn  Mn76  1  -0.00171577  0.49996330  0.50138145  1
  Mn  Mn77  1  0.00102810  0.49835153  0.83374742  1
  Mn  Mn78  1  0.33415319  -0.00037584  0.16545623  1
  Mn  Mn79  1  0.33377868  -0.00081277  0.49911878  1
  Mn  Mn80  1  0.33386708  0.00118354  0.83324506  1
  Mn  Mn81  1  0.33383046  0.50118575  0.16601584  1
  Mn  Mn82  1  0.33381182  0.49970909  0.50186875  1
  Mn  Mn83  1  0.32992964  0.49776669  0.83224428  1
  Mn  Mn84  1  0.66607283  0.00053127  0.16701664  1
  Mn  Mn85  1  0.66692011  -0.00168427  0.50141753  1
  Mn  Mn86  1  0.66807715  0.00061057  0.83525037  1
  Mn  Mn87  1  0.66641383  0.50094561  0.16845987  1
  Mn  Mn88  1  0.66509598  0.50066024  0.49969145  1
  Mn  Mn89  1  0.66688111  0.49785149  0.83111536  1
  Mn  Mn90  1  -0.00085538  0.25132774  0.16720050  1
  Mn  Mn91  1  -0.00146137  0.25178115  0.50148400  1
  Mn  Mn92  1  -0.00044623  0.25238156  0.83275614  1
  Mn  Mn93  1  0.00170653  0.74933976  0.16577221  1
  Mn  Mn94  1  0.00095444  0.74947575  0.49807352  1
  Mn  Mn95  1  0.00063960  0.74862527  0.83308430  1
  Mn  Mn96  1  0.33320045  0.24768433  0.16589032  1
  Mn  Mn97  1  0.33290541  0.25020052  0.50004720  1
  Mn  Mn98  1  0.33192382  0.25099098  0.83274629  1
  Mn  Mn99  1  0.33411743  0.75152299  0.16536110  1
  Mn  Mn100  1  0.33393517  0.75140677  0.50081881  1
  Mn  Mn101  1  0.33269577  0.74929092  0.83287853  1
  Mn  Mn102  1  0.66656770  0.24882735  0.16827560  1
  Mn  Mn103  1  0.66658193  0.25384827  0.50114650  1
  Mn  Mn104  1  0.66662718  0.25110846  0.83470269  1
  Mn  Mn105  1  0.66621443  0.74937077  0.16752235  1
  Mn  Mn106  1  0.66611186  0.74650084  0.50061511  1
  Mn  Mn107  1  0.66804026  0.75019090  0.83048244  1
  Mn  Mn108  1  0.16798083  0.25048026  0.00046963  1
  Mn  Mn109  1  0.16574673  0.25075841  0.33331629  1
  Mn  Mn110  1  0.16583366  0.25148095  0.66697634  1
  Mn  Mn111  1  0.16841872  0.74860184  0.00209730  1
  Mn  Mn112  1  0.16614822  0.75149685  0.33090181  1
  Mn  Mn113  1  0.16711951  0.74908252  0.66734026  1
  Mn  Mn114  1  0.49902458  0.24861426  0.00236275  1
  Mn  Mn115  1  0.49898079  0.24893700  0.33517489  1
  Mn  Mn116  1  0.49763469  0.25247154  0.66778212  1
  Mn  Mn117  1  0.49769255  0.75004923  -0.00058821  1
  Mn  Mn118  1  0.50166063  0.75017310  0.33507388  1
  Mn  Mn119  1  0.50071954  0.74899801  0.66697607  1
  Mn  Mn120  1  0.83478539  0.25060581  0.00014945  1
  Mn  Mn121  1  0.82970965  0.25244232  0.33214202  1
  Mn  Mn122  1  0.83707744  0.25232613  0.66699525  1
  Mn  Mn123  1  0.83624576  0.75008277  -0.00356468  1
  Mn  Mn124  1  0.83380102  0.74943043  0.33090580  1
  Mn  Mn125  1  0.83308034  0.74822925  0.66477290  1
  Mn  Mn126  1  0.16860860  0.00095612  0.00070144  1
  Mn  Mn127  1  0.16722381  -0.00056426  0.33135974  1
  Mn  Mn128  1  0.16722150  0.00098774  0.66600452  1
  Mn  Mn129  1  0.16759054  0.50023993  0.00091666  1
  Mn  Mn130  1  0.16511267  0.49957690  0.33223669  1
  Mn  Mn131  1  0.16649840  0.49796786  0.66929517  1
  Mn  Mn132  1  0.49883250  -0.00000203  0.00279240  1
  Mn  Mn133  1  0.50005783  0.00080968  0.33439921  1
  Mn  Mn134  1  0.49934088  -0.00072468  0.66801633  1
  Mn  Mn135  1  0.49878408  0.50039105  0.00031516  1
  Mn  Mn136  1  0.50058165  0.49924398  0.33634781  1
  Mn  Mn137  1  0.49875065  0.49939819  0.66724571  1
  Mn  Mn138  1  0.83539824  0.00032584  -0.00170308  1
  Mn  Mn139  1  0.83181685  -0.00078201  0.33077244  1
  Mn  Mn140  1  0.83635032  -0.00209499  0.66740455  1
  Mn  Mn141  1  0.83568846  0.49904837  -0.00234811  1
  Mn  Mn142  1  0.83053427  0.49988449  0.33148979  1
  Mn  Mn143  1  0.83483299  0.50084298  0.66509901  1
  O  O144  1  0.17608250  0.12520287  0.02603095  1
  O  O145  1  0.17553511  0.12341935  0.34416705  1
  O  O146  1  0.17048150  0.12731506  0.69115747  1
  O  O147  1  0.17598273  0.62548241  0.02803706  1
  O  O148  1  0.16172088  0.62558253  0.34238918  1
  O  O149  1  0.17224810  0.62002381  0.69237297  1
  O  O150  1  0.49392028  0.12135822  0.02549226  1
  O  O151  1  0.50080525  0.12439635  0.35006460  1
  O  O152  1  0.49141048  0.12613148  0.67758728  1
  O  O153  1  0.49025442  0.62805979  0.01402576  1
  O  O154  1  0.50806113  0.62209483  0.36193910  1
  O  O155  1  0.49249542  0.62441496  0.67873686  1
  O  O156  1  0.82981951  0.12565197  0.02065402  1
  O  O157  1  0.83585675  0.12398343  0.34382486  1
  O  O158  1  0.84479556  0.12351528  0.69117534  1
  O  O159  1  0.84065619  0.62551479  0.01782842  1
  O  O160  1  0.83576484  0.62392719  0.35582496  1
  O  O161  1  0.83922808  0.62566693  0.69193675  1
  O  O162  1  0.17261216  0.37451021  0.30898173  1
  O  O163  1  0.16200989  0.37497622  0.63955895  1
  O  O164  1  0.16817057  0.37605131  0.97854794  1
  O  O165  1  0.15933609  0.87713227  0.30455402  1
  O  O166  1  0.16094351  0.87718673  0.64532096  1
  O  O167  1  0.15962878  0.87395530  0.98899333  1
  O  O168  1  0.49657773  0.37227333  0.32123969  1
  O  O169  1  0.49231730  0.37764959  0.64420273  1
  O  O170  1  0.49114129  0.37420013  0.98842514  1
  O  O171  1  0.49916539  0.88001619  0.30863983  1
  O  O172  1  0.49638926  0.87204800  0.64625074  1
  O  O173  1  0.49238486  0.87636691  0.97596274  1
  O  O174  1  0.82258242  0.37797926  0.30259526  1
  O  O175  1  0.83973361  0.37997881  0.64137184  1
  O  O176  1  0.83832711  0.37592588  0.98775332  1
  O  O177  1  0.82408620  0.87489248  0.31998704  1
  O  O178  1  0.83016938  0.87038354  0.65273163  1
  O  O179  1  0.84305550  0.87392506  0.97536388  1
  O  O180  1  -0.00629233  0.37772568  0.17676331  1
  O  O181  1  -0.01230110  0.37586664  0.52524664  1
  O  O182  1  0.00362943  0.37724757  0.85624030  1
  O  O183  1  0.00462112  0.87341146  0.18975776  1
  O  O184  1  0.00451219  0.87287073  0.52024597  1
  O  O185  1  -0.00728952  0.87041979  0.86059826  1
  O  O186  1  0.32811122  0.36915648  0.19147318  1
  O  O187  1  0.32860342  0.37616611  0.52218131  1
  O  O188  1  0.32213245  0.37385818  0.86008359  1
  O  O189  1  0.32926984  0.87758439  0.19353673  1
  O  O190  1  0.32910205  0.87528094  0.52149113  1
  O  O191  1  0.33633026  0.87822727  0.85494623  1
  O  O192  1  0.67409297  0.37472010  0.18845323  1
  O  O193  1  0.66932809  0.38064004  0.52535004  1
  O  O194  1  0.66869851  0.37216869  0.84058243  1
  O  O195  1  0.66029365  0.87548166  0.19142801  1
  O  O196  1  0.66359074  0.86741200  0.52478909  1
  O  O197  1  0.66596108  0.87662612  0.84201121  1
  O  O198  1  0.00106191  0.12536343  0.15798447  1
  O  O199  1  0.00018418  0.12697654  0.47382700  1
  O  O200  1  0.00602998  0.12857780  0.80808271  1
  O  O201  1  0.00982987  0.62561125  0.14180160  1
  O  O202  1  -0.00433849  0.62563056  0.47291389  1
  O  O203  1  0.00949692  0.62308322  0.80957201  1
  O  O204  1  0.34034011  0.12142375  0.14070446  1
  O  O205  1  0.33373700  0.12289989  0.47387145  1
  O  O206  1  0.32849772  0.12724061  0.80643683  1
  O  O207  1  0.33013234  0.63104668  0.14428599  1
  O  O208  1  0.34117749  0.62572915  0.48884243  1
  O  O209  1  0.32509036  0.61934333  0.80670415  1
  O  O210  1  0.66751614  0.12365577  0.14459824  1
  O  O211  1  0.66476360  0.12957628  0.48070550  1
  O  O212  1  0.67326336  0.12550927  0.82255044  1
  O  O213  1  0.66841822  0.62581845  0.15777882  1
  O  O214  1  0.65929657  0.62224972  0.47334356  1
  O  O215  1  0.67400757  0.62575008  0.81661949  1
  O  O216  1  0.07344569  0.01921932  0.26218690  1
  O  O217  1  0.07801112  0.01527624  0.59089972  1
  O  O218  1  0.08266512  0.01447020  0.91489423  1
  O  O219  1  0.07528264  0.51824899  0.25363602  1
  O  O220  1  0.07542571  0.51418782  0.59819668  1
  O  O221  1  0.08157233  0.52410543  0.92407575  1
  O  O222  1  0.40969709  0.02030391  0.25536552  1
  O  O223  1  0.40720303  0.00956117  0.59604689  1
  O  O224  1  0.40589295  0.01646576  0.92856322  1
  O  O225  1  0.41682263  0.50897926  0.25447757  1
  O  O226  1  0.41395952  0.51715234  0.58575800  1
  O  O227  1  0.40351085  0.51053117  0.92166533  1
  O  O228  1  0.74389709  0.02086872  0.25227771  1
  O  O229  1  0.74758064  0.00428252  0.58942433  1
  O  O230  1  0.74863781  0.01988003  0.92070106  1
  O  O231  1  0.74851078  0.52514387  0.25337717  1
  O  O232  1  0.75221637  0.52010169  0.57522721  1
  O  O233  1  0.75554398  0.51137482  0.91257370  1
  O  O234  1  0.24774337  0.22595408  0.24047158  1
  O  O235  1  0.25038493  0.23679568  0.58531642  1
  O  O236  1  0.24639355  0.22665858  0.91196413  1
  O  O237  1  0.23865931  0.74080474  0.23718429  1
  O  O238  1  0.24870069  0.73869710  0.58168095  1
  O  O239  1  0.24248285  0.72759333  0.91315788  1
  O  O240  1  0.58194984  0.22889221  0.25098508  1
  O  O241  1  0.58002436  0.25246539  0.58141442  1
  O  O242  1  0.58337158  0.23505093  0.92420259  1
  O  O243  1  0.58523120  0.73476565  0.25663814  1
  O  O244  1  0.57358028  0.73165457  0.57482230  1
  O  O245  1  0.57779876  0.74748089  0.91065063  1
  O  O246  1  0.90975696  0.23541332  0.24671918  1
  O  O247  1  0.91954839  0.23165888  0.58623915  1
  O  O248  1  0.90979976  0.23450823  0.90500941  1
  O  O249  1  0.91244167  0.72442411  0.23791182  1
  O  O250  1  0.91209257  0.72834548  0.57707114  1
  O  O251  1  0.91452578  0.72253901  0.90689820  1
  O  O252  1  0.09484127  0.48415377  0.09106048  1
  O  O253  1  0.08802143  0.48045578  0.42886926  1
  O  O254  1  0.08992353  0.47663890  0.75847190  1
  O  O255  1  0.09155897  0.98575586  0.09418687  1
  O  O256  1  0.09262942  0.97664320  0.42073443  1
  O  O257  1  0.08157501  0.98676588  0.74852647  1
  O  O258  1  0.41243210  0.49110053  0.08150912  1
  O  O259  1  0.41904209  0.47896357  0.42254672  1
  O  O260  1  0.41153113  0.47911450  0.75053229  1
  O  O261  1  0.42082645  0.97257869  0.09125778  1
  O  O262  1  0.42277129  0.97448922  0.42104040  1
  O  O263  1  0.42302124  0.97846249  0.75750690  1
  O  O264  1  0.76125438  0.49095005  0.09174056  1
  O  O265  1  0.74499812  0.47909103  0.41405986  1
  O  O266  1  0.75273866  0.48430463  0.74283306  1
  O  O267  1  0.75376044  0.99404617  0.08583063  1
  O  O268  1  0.74505227  0.98986398  0.41098573  1
  O  O269  1  0.75892355  0.98330346  0.75503557  1
  O  O270  1  0.25560559  0.27094455  0.07892138  1
  O  O271  1  0.25504532  0.27110071  0.41084227  1
  O  O272  1  0.25005423  0.27358862  0.74760348  1
  O  O273  1  0.25846164  0.77404089  0.07551338  1
  O  O274  1  0.25548694  0.77256632  0.40889520  1
  O  O275  1  0.26127549  0.76398789  0.74123676  1
  O  O276  1  0.58456050  0.25086895  0.08669491  1
  O  O277  1  0.58651377  0.27236017  0.41637008  1
  O  O278  1  0.58376353  0.26619085  0.74668656  1
  O  O279  1  0.57937122  0.76287039  0.08978068  1
  O  O280  1  0.58604799  0.77518237  0.41583832  1
  O  O281  1  0.58850698  0.76925971  0.74162771  1
  O  O282  1  0.91852615  0.26404123  0.08252695  1
  O  O283  1  0.90873017  0.26681449  0.41706961  1
  O  O284  1  0.92496452  0.27104431  0.74413119  1
  O  O285  1  0.93393245  0.76243246  0.06941528  1
  O  O286  1  0.92745604  0.76388626  0.40062528  1
  O  O287  1  0.92231845  0.76863379  0.74457182  1
  O  O288  1  0.25536871  0.47827125  0.07406508  1
  O  O289  1  0.25421737  0.48007302  0.41449479  1
  O  O290  1  0.24938168  0.47082690  0.74925458  1
  O  O291  1  0.25979250  0.97784641  0.07730618  1
  O  O292  1  0.25726570  0.97830494  0.40294838  1
  O  O293  1  0.25970868  0.98708287  0.73998182  1
  O  O294  1  0.58460282  0.49609173  0.08748176  1
  O  O295  1  0.58319485  0.47269382  0.41935761  1
  O  O296  1  0.58560261  0.48427624  0.74197265  1
  O  O297  1  0.57818600  0.98608812  0.09140045  1
  O  O298  1  0.58658554  0.97699538  0.41350353  1
  O  O299  1  0.58598477  0.98160369  0.74790233  1
  O  O300  1  0.92336890  0.49158415  0.07825720  1
  O  O301  1  0.90604056  0.48542284  0.41852984  1
  O  O302  1  0.92586039  0.48489369  0.74345838  1
  O  O303  1  0.92806914  0.98328424  0.07205600  1
  O  O304  1  0.92725483  0.98721699  0.40296145  1
  O  O305  1  0.92261774  0.97389130  0.74592913  1
  O  O306  1  0.09213787  0.26316236  0.09186175  1
  O  O307  1  0.08863387  0.27182917  0.42956223  1
  O  O308  1  0.08766697  0.27344637  0.75380939  1
  O  O309  1  0.09436101  0.76700497  0.09477847  1
  O  O310  1  0.09071780  0.77308041  0.42030251  1
  O  O311  1  0.08313954  0.76330093  0.75220533  1
  O  O312  1  0.41332931  0.26194778  0.08340646  1
  O  O313  1  0.41718184  0.27196144  0.42074139  1
  O  O314  1  0.41358084  0.27176323  0.75197435  1
  O  O315  1  0.41819222  0.77512798  0.08704162  1
  O  O316  1  0.42290872  0.77140110  0.42226571  1
  O  O317  1  0.42492658  0.77032653  0.75570180  1
  O  O318  1  0.75867520  0.26164991  0.09557422  1
  O  O319  1  0.74756786  0.27546453  0.41511884  1
  O  O320  1  0.75714928  0.26363659  0.74953240  1
  O  O321  1  0.75578208  0.75379955  0.08482292  1
  O  O322  1  0.74480720  0.75711906  0.41388816  1
  O  O323  1  0.75326636  0.76866301  0.74897610  1
  O  O324  1  0.24288539  0.01882027  0.23827016  1
  O  O325  1  0.24767680  0.01285718  0.58075789  1
  O  O326  1  0.24708558  0.02336503  0.91064859  1
  O  O327  1  0.24254113  0.51242946  0.23724136  1
  O  O328  1  0.25259283  0.51226095  0.58835247  1
  O  O329  1  0.24283432  0.52284243  0.91222694  1
  O  O330  1  0.58061816  0.02399340  0.25117684  1
  O  O331  1  0.57872541  0.00044655  0.58225219  1
  O  O332  1  0.58338312  0.01423653  0.92433119  1
  O  O333  1  0.58834219  0.51138021  0.26066099  1
  O  O334  1  0.57747093  0.51574788  0.57616648  1
  O  O335  1  0.57788288  0.50320868  0.91659867  1
  O  O336  1  0.90961554  0.01708778  0.24225944  1
  O  O337  1  0.91997881  0.01036295  0.58744159  1
  O  O338  1  0.90750893  0.01809476  0.90183255  1
  O  O339  1  0.91178990  0.52238397  0.24434556  1
  O  O340  1  0.91434047  0.52738296  0.58052303  1
  O  O341  1  0.91597887  0.52309097  0.91009316  1
  O  O342  1  0.07723759  0.23189798  0.25790100  1
  O  O343  1  0.07600163  0.23584753  0.59609072  1
  O  O344  1  0.08768382  0.23649335  0.91241416  1
  O  O345  1  0.07172527  0.73295723  0.25855595  1
  O  O346  1  0.07510281  0.73538002  0.59157170  1
  O  O347  1  0.07884951  0.72807848  0.92579772  1
  O  O348  1  0.41113881  0.22692099  0.25238526  1
  O  O349  1  0.40746269  0.23972496  0.59057230  1
  O  O350  1  0.40743365  0.23665643  0.92333896  1
  O  O351  1  0.41667482  0.74412585  0.25065295  1
  O  O352  1  0.41109956  0.73572668  0.59142784  1
  O  O353  1  0.40236257  0.73618298  0.92540275  1
  O  O354  1  0.74220516  0.22587274  0.25638619  1
  O  O355  1  0.75132269  0.24897652  0.58349681  1
  O  O356  1  0.74797659  0.23112141  0.92257964  1
  O  O357  1  0.74903338  0.73055178  0.25222971  1
  O  O358  1  0.74798765  0.72407156  0.58044615  1
  O  O359  1  0.75618703  0.74022542  0.90867974  1
