# generated using pymatgen
data_Ba17Sr5La8Pr42Mn72O216
_symmetry_space_group_name_H-M   'P 1'
_cell_length_a   16.67669331
_cell_length_b   15.70336318
_cell_length_c   16.82108998
_cell_angle_alpha   90.00504040
_cell_angle_beta   90.00368077
_cell_angle_gamma   90.00856782
_symmetry_Int_Tables_number   1
_chemical_formula_structural   Ba17Sr5La8Pr42Mn72O216
_chemical_formula_sum   'Ba17 Sr5 La8 Pr42 Mn72 O216'
_cell_volume   4405.10985708
_cell_formula_units_Z   1
loop_
 _symmetry_equiv_pos_site_id
 _symmetry_equiv_pos_as_xyz
  1  'x, y, z'
loop_
 _atom_site_type_symbol
 _atom_site_label
 _atom_site_symmetry_multiplicity
 _atom_site_fract_x
 _atom_site_fract_y
 _atom_site_fract_z
 _atom_site_occupancy
  Ba  Ba0  1  0.49997860  0.62542875  0.50066999  1
  Ba  Ba1  1  -0.00232902  0.37468092  0.33532143  1
  Ba  Ba2  1  -0.00228634  0.37427287  0.00221203  1
  Ba  Ba3  1  0.50000299  0.12514184  0.83426372  1
  Ba  Ba4  1  0.16659870  0.87564276  0.16542545  1
  Ba  Ba5  1  0.17085583  0.62646144  0.83232801  1
  Ba  Ba6  1  0.16534915  0.87483228  0.83304331  1
  Ba  Ba7  1  0.16779966  0.37480705  0.16579782  1
  Ba  Ba8  1  -0.00215902  0.87587392  0.00328899  1
  Ba  Ba9  1  0.66676575  0.37440646  0.66621788  1
  Ba  Ba10  1  0.32961392  0.87694604  0.33270467  1
  Ba  Ba11  1  0.00118556  0.37324892  0.66875399  1
  Ba  Ba12  1  0.33565029  0.62647350  0.33198545  1
  Ba  Ba13  1  0.16927270  0.62399116  0.16646979  1
  Ba  Ba14  1  0.83444846  0.37622271  0.83216623  1
  Ba  Ba15  1  0.83380826  0.62543750  0.83270849  1
  Ba  Ba16  1  0.50074454  0.37183571  0.49952400  1
  Sr  Sr17  1  0.65974505  0.87341913  0.66703008  1
  Sr  Sr18  1  0.49859851  0.12187053  0.50346489  1
  Sr  Sr19  1  0.82891888  0.37336215  0.16376701  1
  Sr  Sr20  1  0.33764736  0.37501933  0.66627990  1
  Sr  Sr21  1  0.50141013  0.37101276  0.82494718  1
  La  La22  1  0.83661016  0.12657306  0.16825249  1
  La  La23  1  0.00689928  0.62383010  1.00008209  1
  La  La24  1  0.16390270  0.12559828  0.16653530  1
  La  La25  1  0.82759573  0.87603324  0.16501367  1
  La  La26  1  0.33398288  0.87537225  0.66592931  1
  La  La27  1  0.67018233  0.62446986  0.33212348  1
  La  La28  1  0.00186066  0.12583491  0.33397527  1
  La  La29  1  0.16835263  0.12693071  0.50014702  1
  Pr  Pr30  1  0.82845336  0.37591129  0.49706334  1
  Pr  Pr31  1  0.00545378  0.12444922  0.66879428  1
  Pr  Pr32  1  0.00372951  0.12566548  1.00145807  1
  Pr  Pr33  1  0.66867429  0.62388651  0.99709571  1
  Pr  Pr34  1  0.50492319  0.62677006  0.17333147  1
  Pr  Pr35  1  0.15950494  0.87442857  0.49411492  1
  Pr  Pr36  1  0.66867870  0.12573977  0.99403024  1
  Pr  Pr37  1  0.32880373  0.12571966  0.99441597  1
  Pr  Pr38  1  0.33421954  0.62402874  0.66178531  1
  Pr  Pr39  1  0.82794192  0.87476802  0.83037445  1
  Pr  Pr40  1  0.33689344  0.12869706  0.32891846  1
  Pr  Pr41  1  0.65963998  0.87398173  -0.00025255  1
  Pr  Pr42  1  0.17211125  0.62166074  0.50083043  1
  Pr  Pr43  1  0.67112735  0.61994934  0.66557989  1
  Pr  Pr44  1  0.66528534  0.37510305  -0.00233164  1
  Pr  Pr45  1  0.33603527  0.37586544  -0.00344067  1
  Pr  Pr46  1  -0.00472521  0.87470906  0.67516286  1
  Pr  Pr47  1  0.17030796  0.37629211  0.82876153  1
  Pr  Pr48  1  0.33616145  0.12658063  0.66525393  1
  Pr  Pr49  1  0.81956011  0.87567846  0.49839165  1
  Pr  Pr50  1  0.66575987  0.37467778  0.33706242  1
  Pr  Pr51  1  0.65598854  0.87544425  0.33583986  1
  Pr  Pr52  1  0.50238394  0.12229523  0.16656297  1
  Pr  Pr53  1  0.00974044  0.62400191  0.66979689  1
  Pr  Pr54  1  0.50044941  0.37757902  0.16586533  1
  Pr  Pr55  1  0.84146322  0.62411580  0.16881046  1
  Pr  Pr56  1  0.16578908  0.37543885  0.49490419  1
  Pr  Pr57  1  0.83397030  0.12748093  0.83284222  1
  Pr  Pr58  1  0.66742212  0.12560502  0.33107481  1
  Pr  Pr59  1  0.32835505  0.37800683  0.33731672  1
  Pr  Pr60  1  0.33186979  0.87505983  0.00244469  1
  Pr  Pr61  1  0.50173312  0.62150281  0.83247441  1
  Pr  Pr62  1  0.49812667  0.87771131  0.83148612  1
  Pr  Pr63  1  0.83999339  0.62631779  0.50623831  1
  Pr  Pr64  1  -0.00638056  0.87398579  0.33710862  1
  Pr  Pr65  1  0.33264068  0.62543990  0.99890190  1
  Pr  Pr66  1  0.49396439  0.87293392  0.16554603  1
  Pr  Pr67  1  0.49484472  0.87611726  0.49733186  1
  Pr  Pr68  1  0.00617291  0.62455156  0.33216481  1
  Pr  Pr69  1  0.16540768  0.12675084  0.83415573  1
  Pr  Pr70  1  0.83706532  0.12492433  0.50423102  1
  Pr  Pr71  1  0.66784573  0.12923090  0.66486549  1
  Mn  Mn72  1  -0.00234146  0.00169335  0.16979371  1
  Mn  Mn73  1  -0.00254617  -0.00164616  0.50394959  1
  Mn  Mn74  1  -0.00196369  0.00067677  0.83511433  1
  Mn  Mn75  1  -0.00179059  0.49937161  0.16746752  1
  Mn  Mn76  1  -0.00050838  0.50109786  0.50214250  1
  Mn  Mn77  1  0.00203053  0.50074376  0.83463658  1
  Mn  Mn78  1  0.33580374  0.00372188  0.16353825  1
  Mn  Mn79  1  0.33043818  0.00162349  0.50057975  1
  Mn  Mn80  1  0.33253851  -0.00074956  0.83260635  1
  Mn  Mn81  1  0.33784000  0.49748509  0.16514194  1
  Mn  Mn82  1  0.33354245  0.49783984  0.50061505  1
  Mn  Mn83  1  0.33671070  0.50058504  0.83184105  1
  Mn  Mn84  1  0.66576877  0.00030797  0.16486611  1
  Mn  Mn85  1  0.66535034  0.00044859  0.49965198  1
  Mn  Mn86  1  0.66709753  -0.00189810  0.83145765  1
  Mn  Mn87  1  0.66793062  0.49972200  0.16561744  1
  Mn  Mn88  1  0.66847447  0.50113279  0.49791630  1
  Mn  Mn89  1  0.66565438  0.50113462  0.83278744  1
  Mn  Mn90  1  -0.00234277  0.24989321  0.16745787  1
  Mn  Mn91  1  -0.00104071  0.24799582  0.50274873  1
  Mn  Mn92  1  0.00151351  0.24745327  0.83498896  1
  Mn  Mn93  1  -0.00202992  0.75041488  0.16987605  1
  Mn  Mn94  1  -0.00117881  0.75159741  0.50310663  1
  Mn  Mn95  1  -0.00188159  0.75082473  0.83634277  1
  Mn  Mn96  1  0.33775333  0.25008920  0.16346828  1
  Mn  Mn97  1  0.33339548  0.24862964  0.49826939  1
  Mn  Mn98  1  0.33358374  0.25022955  0.83092606  1
  Mn  Mn99  1  0.33532188  0.75041885  0.16454048  1
  Mn  Mn100  1  0.33073859  0.75105691  0.50169130  1
  Mn  Mn101  1  0.33681976  0.75114812  0.83239153  1
  Mn  Mn102  1  0.66498036  0.24930365  0.16512414  1
  Mn  Mn103  1  0.66734523  0.24678318  0.49734511  1
  Mn  Mn104  1  0.66720539  0.24847862  0.83185668  1
  Mn  Mn105  1  0.66736924  0.75086499  0.16577531  1
  Mn  Mn106  1  0.66609624  0.75142450  0.50061306  1
  Mn  Mn107  1  0.66503890  0.75101152  0.83268372  1
  Mn  Mn108  1  0.16897012  0.24979024  -0.00102216  1
  Mn  Mn109  1  0.16776737  0.24793693  0.33367512  1
  Mn  Mn110  1  0.16930199  0.24917192  0.66690428  1
  Mn  Mn111  1  0.16819890  0.75018804  -0.00013809  1
  Mn  Mn112  1  0.16402862  0.75200268  0.33398224  1
  Mn  Mn113  1  0.16770304  0.75114103  0.66241298  1
  Mn  Mn114  1  0.50074575  0.25332015  0.00049302  1
  Mn  Mn115  1  0.50087591  0.24739047  0.33071352  1
  Mn  Mn116  1  0.49976549  0.24765605  0.66559799  1
  Mn  Mn117  1  0.49991573  0.74714658  -0.00000221  1
  Mn  Mn118  1  0.50035816  0.75124669  0.33344888  1
  Mn  Mn119  1  0.50032824  0.75125797  0.66842854  1
  Mn  Mn120  1  0.83067879  0.24816755  0.00183837  1
  Mn  Mn121  1  0.83128408  0.24881649  0.33476733  1
  Mn  Mn122  1  0.83438088  0.24677625  0.66667568  1
  Mn  Mn123  1  0.82989807  0.75057589  0.00243161  1
  Mn  Mn124  1  0.83157280  0.75084661  0.33470916  1
  Mn  Mn125  1  0.83332453  0.75248409  0.66554236  1
  Mn  Mn126  1  0.16832797  0.00186900  -0.00025850  1
  Mn  Mn127  1  0.16488543  0.00104366  0.33442052  1
  Mn  Mn128  1  0.16725351  0.00035305  0.66402049  1
  Mn  Mn129  1  0.16916224  0.49942207  -0.00174259  1
  Mn  Mn130  1  0.16620452  0.49992157  0.33385217  1
  Mn  Mn131  1  0.16959730  0.49801937  0.66591226  1
  Mn  Mn132  1  0.50043090  0.00033460  0.00129473  1
  Mn  Mn133  1  0.49884011  0.00275603  0.33462137  1
  Mn  Mn134  1  0.50066407  -0.00008971  0.66548241  1
  Mn  Mn135  1  0.50038852  0.50000062  -0.00013769  1
  Mn  Mn136  1  0.50263471  0.49931159  0.33117814  1
  Mn  Mn137  1  0.49973145  0.49981506  0.66859600  1
  Mn  Mn138  1  0.83014832  0.00071392  -0.00009911  1
  Mn  Mn139  1  0.83093276  -0.00022507  0.33482859  1
  Mn  Mn140  1  0.83198343  -0.00188160  0.66676959  1
  Mn  Mn141  1  0.83101220  0.50008824  0.00344717  1
  Mn  Mn142  1  0.83227770  0.50172136  0.33448676  1
  Mn  Mn143  1  0.83569164  0.50192159  0.66532664  1
  O  O144  1  0.17813478  0.12674614  0.01988200  1
  O  O145  1  0.17054441  0.12414392  0.35505872  1
  O  O146  1  0.16735383  0.12401428  0.69119750  1
  O  O147  1  0.17272295  0.62415190  0.00751797  1
  O  O148  1  0.15892523  0.62697180  0.35419811  1
  O  O149  1  0.16792472  0.62515095  0.67689770  1
  O  O150  1  0.50507476  0.12978474  0.02390302  1
  O  O151  1  0.49629804  0.12395537  0.35408704  1
  O  O152  1  0.49566866  0.12117009  0.67657615  1
  O  O153  1  0.50010358  0.62379899  0.03089332  1
  O  O154  1  0.50611272  0.62735021  0.34109014  1
  O  O155  1  0.49105521  0.62988278  0.68740287  1
  O  O156  1  0.81822108  0.12185450  0.02531149  1
  O  O157  1  0.82390875  0.12234509  0.36136525  1
  O  O158  1  0.82105010  0.11773277  0.68760288  1
  O  O159  1  0.81777623  0.62681830  0.02588220  1
  O  O160  1  0.82595822  0.62876100  0.36241849  1
  O  O161  1  0.82057965  0.63058975  0.67255826  1
  O  O162  1  0.17131753  0.37171163  0.32506577  1
  O  O163  1  0.16867180  0.37157836  0.63913994  1
  O  O164  1  0.17376940  0.37249294  0.97568816  1
  O  O165  1  0.15824845  0.87830318  0.32316451  1
  O  O166  1  0.16766331  0.87733160  0.63745992  1
  O  O167  1  0.17531957  0.87777641  0.99181776  1
  O  O168  1  0.50966825  0.37090327  0.30992207  1
  O  O169  1  0.50005746  0.37136691  0.65796552  1
  O  O170  1  0.50046595  0.37805610  0.97344329  1
  O  O171  1  0.50560394  0.87897809  0.31110873  1
  O  O172  1  0.50019586  0.87715654  0.64071097  1
  O  O173  1  0.50197729  0.86913253  0.97394083  1
  O  O174  1  0.82597157  0.37476129  0.31422584  1
  O  O175  1  0.83701818  0.37407699  0.64260369  1
  O  O176  1  0.82623329  0.37196805  0.98897034  1
  O  O177  1  0.84036608  0.87545131  0.30765193  1
  O  O178  1  0.84643646  0.87618736  0.64116011  1
  O  O179  1  0.82909702  0.87823140  0.97502001  1
  O  O180  1  -0.00484921  0.37172927  0.17649768  1
  O  O181  1  0.00057417  0.37223524  0.51266092  1
  O  O182  1  0.00603066  0.37015125  0.84456570  1
  O  O183  1  -0.00736035  0.87759519  0.19063786  1
  O  O184  1  0.00799724  0.87434338  0.53312322  1
  O  O185  1  -0.00800121  0.87754838  0.84529838  1
  O  O186  1  0.34329242  0.36990371  0.19361614  1
  O  O187  1  0.32409976  0.37289544  0.51439693  1
  O  O188  1  0.33078820  0.37303097  0.85323431  1
  O  O189  1  0.34004649  0.87915972  0.17541220  1
  O  O190  1  0.32686398  0.87734714  0.52179582  1
  O  O191  1  0.34221753  0.87507946  0.85872249  1
  O  O192  1  0.66426071  0.36980227  0.19457077  1
  O  O193  1  0.67285805  0.37299898  0.50813322  1
  O  O194  1  0.66274495  0.37406405  0.85093625  1
  O  O195  1  0.67261232  0.87693602  0.19413838  1
  O  O196  1  0.66344661  0.87637091  0.51839236  1
  O  O197  1  0.66543757  0.87457883  0.85675728  1
  O  O198  1  -0.00594472  0.12467807  0.14912187  1
  O  O199  1  -0.00698727  0.12111680  0.47678419  1
  O  O200  1  0.00465467  0.12159956  0.81280175  1
  O  O201  1  -0.00918169  0.62678532  0.14944687  1
  O  O202  1  -0.00775887  0.63205147  0.47415923  1
  O  O203  1  0.00259501  0.62966982  0.81606490  1
  O  O204  1  0.34500386  0.12807021  0.13654002  1
  O  O205  1  0.33014478  0.12448150  0.47299037  1
  O  O206  1  0.32556490  0.12301517  0.80979877  1
  O  O207  1  0.34709076  0.62350886  0.14466968  1
  O  O208  1  0.32857803  0.62425041  0.48997518  1
  O  O209  1  0.34179510  0.62924235  0.80620399  1
  O  O210  1  0.65866230  0.12334276  0.13601967  1
  O  O211  1  0.67675345  0.12151452  0.47435306  1
  O  O212  1  0.67371279  0.11906402  0.81070948  1
  O  O213  1  0.65850563  0.62981087  0.13976179  1
  O  O214  1  0.67669516  0.62926930  0.47772324  1
  O  O215  1  0.66047903  0.63100152  0.80957496  1
  O  O216  1  0.08467706  0.02389877  0.25097122  1
  O  O217  1  0.08755883  0.02487751  0.57705815  1
  O  O218  1  0.08515382  0.02191832  0.91763945  1
  O  O219  1  0.07956709  0.51219105  0.25570245  1
  O  O220  1  0.08396891  0.52081867  0.58355112  1
  O  O221  1  0.08337234  0.51086823  0.91923203  1
  O  O222  1  0.41796416  0.02242706  0.24846277  1
  O  O223  1  0.41028121  0.01280769  0.58563554  1
  O  O224  1  0.40991899  0.01484205  0.92481211  1
  O  O225  1  0.43033633  0.51020769  0.23815771  1
  O  O226  1  0.41216552  0.51061868  0.58789217  1
  O  O227  1  0.41873403  0.52534120  0.91979420  1
  O  O228  1  0.75110812  0.02300375  0.24038324  1
  O  O229  1  0.75830378  0.01277632  0.57409095  1
  O  O230  1  0.75497004  0.01917954  0.91017114  1
  O  O231  1  0.75425049  0.52528623  0.24741545  1
  O  O232  1  0.75873961  0.51397340  0.57294317  1
  O  O233  1  0.74300834  0.51171451  0.92129779  1
  O  O234  1  0.25502305  0.22703613  0.24554543  1
  O  O235  1  0.24916841  0.22425967  0.58363751  1
  O  O236  1  0.24524924  0.22991082  0.90972268  1
  O  O237  1  0.25512872  0.74432359  0.24815655  1
  O  O238  1  0.25223482  0.73046950  0.58541277  1
  O  O239  1  0.26266499  0.74013809  0.92023961  1
  O  O240  1  0.58351056  0.22185928  0.24687695  1
  O  O241  1  0.58839100  0.22982019  0.58050381  1
  O  O242  1  0.59099553  0.23691390  0.92448794  1
  O  O243  1  0.59453094  0.73600546  0.25398861  1
  O  O244  1  0.59277338  0.73222252  0.59548032  1
  O  O245  1  0.58460233  0.72658282  0.92385302  1
  O  O246  1  0.91509819  0.22695866  0.25908105  1
  O  O247  1  0.91884418  0.22300494  0.58691750  1
  O  O248  1  0.91703273  0.22510277  0.92020695  1
  O  O249  1  0.92100392  0.72821706  0.26313944  1
  O  O250  1  0.92898467  0.72745357  0.59326139  1
  O  O251  1  0.91788147  0.73211430  0.93322923  1
  O  O252  1  0.08178435  0.49764254  0.08125794  1
  O  O253  1  0.08559876  0.49125951  0.42570949  1
  O  O254  1  0.09282129  0.48608761  0.75204038  1
  O  O255  1  0.08486082  1.00355808  0.08203369  1
  O  O256  1  0.06995141  0.98073379  0.41691129  1
  O  O257  1  0.07694581  0.98693924  0.73752560  1
  O  O258  1  0.41720183  0.47349163  0.07914905  1
  O  O259  1  0.41146282  0.48253393  0.40825386  1
  O  O260  1  0.41983800  0.48828942  0.75500808  1
  O  O261  1  0.42273308  0.98118964  0.08519368  1
  O  O262  1  0.41630666  0.98398512  0.42383175  1
  O  O263  1  0.41579996  0.98010574  0.75232096  1
  O  O264  1  0.74135172  0.48055486  0.08025328  1
  O  O265  1  0.74581412  0.48125848  0.40945539  1
  O  O266  1  0.74948794  0.49612236  0.74298029  1
  O  O267  1  0.74099250  0.97712079  0.07524075  1
  O  O268  1  0.74200436  0.97465357  0.40834325  1
  O  O269  1  0.74901652  0.97352541  0.74526910  1
  O  O270  1  0.26209842  0.26582019  0.07322519  1
  O  O271  1  0.24995013  0.26646137  0.41646556  1
  O  O272  1  0.25043728  0.27003043  0.74843676  1
  O  O273  1  0.25722346  0.75787430  0.07924271  1
  O  O274  1  0.23674531  0.76127829  0.42691309  1
  O  O275  1  0.25516824  0.76631717  0.74355984  1
  O  O276  1  0.58131226  0.27690043  0.08531094  1
  O  O277  1  0.59028246  0.25682937  0.40649073  1
  O  O278  1  0.58613154  0.24937720  0.74796395  1
  O  O279  1  0.57853787  0.77451360  0.08931220  1
  O  O280  1  0.57826710  0.77207534  0.42201802  1
  O  O281  1  0.57461910  0.76965158  0.75935385  1
  O  O282  1  0.90733421  0.25096427  0.08709816  1
  O  O283  1  0.90804244  0.26022820  0.42711616  1
  O  O284  1  0.91922454  0.24537640  0.75085057  1
  O  O285  1  0.90234959  0.76268410  0.09980196  1
  O  O286  1  0.90971000  0.77654818  0.43197284  1
  O  O287  1  0.90988017  0.76961389  0.75498853  1
  O  O288  1  0.25880996  0.48651678  0.07776551  1
  O  O289  1  0.24709956  0.48451111  0.42042382  1
  O  O290  1  0.25264386  0.48231366  0.74831015  1
  O  O291  1  0.26090754  0.99229220  0.07434350  1
  O  O292  1  0.23883782  0.98686857  0.42601954  1
  O  O293  1  0.25342111  0.98263049  0.74199764  1
  O  O294  1  0.58077592  0.47576946  0.08245280  1
  O  O295  1  0.58680943  0.48957678  0.41083385  1
  O  O296  1  0.58189029  0.49846894  0.75336957  1
  O  O297  1  0.58063523  0.97325716  0.09017435  1
  O  O298  1  0.57951432  0.98125892  0.42040616  1
  O  O299  1  0.57979908  0.98133057  0.75574634  1
  O  O300  1  0.90597622  0.49540944  0.09299161  1
  O  O301  1  0.90577784  0.48757020  0.42733377  1
  O  O302  1  0.92114091  0.50051634  0.74721678  1
  O  O303  1  0.90317619  0.98971714  0.09332516  1
  O  O304  1  0.90934705  0.97582748  0.43067142  1
  O  O305  1  0.90746057  0.98500230  0.75577181  1
  O  O306  1  0.08850942  0.24840261  0.08295105  1
  O  O307  1  0.08672207  0.25600901  0.42713780  1
  O  O308  1  0.09415692  0.25905603  0.75878609  1
  O  O309  1  0.07639544  0.75278174  0.08425279  1
  O  O310  1  0.07003731  0.77336679  0.41617517  1
  O  O311  1  0.07705425  0.76272403  0.73294518  1
  O  O312  1  0.42135897  0.27719423  0.08451047  1
  O  O313  1  0.41035756  0.26384583  0.40303332  1
  O  O314  1  0.41360787  0.25619533  0.74928201  1
  O  O315  1  0.41582720  0.77197427  0.07643379  1
  O  O316  1  0.41497740  0.76726472  0.42293111  1
  O  O317  1  0.41800486  0.77793607  0.75079237  1
  O  O318  1  0.73953769  0.26518233  0.07795385  1
  O  O319  1  0.74874374  0.26968749  0.41308530  1
  O  O320  1  0.75195942  0.25425110  0.74906899  1
  O  O321  1  0.74135745  0.77570710  0.07864867  1
  O  O322  1  0.74172135  0.77629178  0.40558135  1
  O  O323  1  0.74736475  0.77065706  0.74644726  1
  O  O324  1  0.25485061  0.02445608  0.24406871  1
  O  O325  1  0.25130804  0.02650683  0.58478855  1
  O  O326  1  0.24725539  0.02002911  0.91145248  1
  O  O327  1  0.25886818  0.50370796  0.25104482  1
  O  O328  1  0.24890768  0.51704116  0.58241163  1
  O  O329  1  0.25974758  0.51126921  0.91842956  1
  O  O330  1  0.58800307  0.02179367  0.25148072  1
  O  O331  1  0.59222213  0.02031029  0.58615221  1
  O  O332  1  0.58985566  0.01209085  0.92714568  1
  O  O333  1  0.59033627  0.51932005  0.24889850  1
  O  O334  1  0.59181634  0.51757599  0.58804314  1
  O  O335  1  0.58225587  0.52464338  0.92113729  1
  O  O336  1  0.91882235  0.02295376  0.26256448  1
  O  O337  1  0.92320643  0.02403449  0.59311083  1
  O  O338  1  0.91625279  0.02750377  0.92530479  1
  O  O339  1  0.91796068  0.52411995  0.26003664  1
  O  O340  1  0.92186074  0.52563916  0.58672797  1
  O  O341  1  0.91842443  0.51574223  0.92846363  1
  O  O342  1  0.08474246  0.22856883  0.25335846  1
  O  O343  1  0.08237133  0.22569827  0.58789032  1
  O  O344  1  0.08211854  0.22492121  0.92022218  1
  O  O345  1  0.07800242  0.73804138  0.25490570  1
  O  O346  1  0.08946247  0.72672466  0.57064892  1
  O  O347  1  0.08243167  0.74082485  0.91882463  1
  O  O348  1  0.42110724  0.22491346  0.24475947  1
  O  O349  1  0.41325470  0.23213762  0.58106368  1
  O  O350  1  0.40839177  0.23685379  0.92471769  1
  O  O351  1  0.42872044  0.74194995  0.23836658  1
  O  O352  1  0.41248850  0.74254502  0.59036162  1
  O  O353  1  0.42305426  0.72351476  0.91571073  1
  O  O354  1  0.74796094  0.22409531  0.24754781  1
  O  O355  1  0.75340542  0.22847025  0.57922166  1
  O  O356  1  0.75230626  0.22767519  0.91437285  1
  O  O357  1  0.75559918  0.72922603  0.23853535  1
  O  O358  1  0.76180598  0.74356021  0.57002158  1
  O  O359  1  0.74533066  0.73850045  0.91851859  1
