# generated using pymatgen
data_Ba17Sr5La8Pr42Mn72O216
_symmetry_space_group_name_H-M   'P 1'
_cell_length_a   16.66867824
_cell_length_b   15.70736056
_cell_length_c   16.81628606
_cell_angle_alpha   89.97531322
_cell_angle_beta   89.99162373
_cell_angle_gamma   89.99921720
_symmetry_Int_Tables_number   1
_chemical_formula_structural   Ba17Sr5La8Pr42Mn72O216
_chemical_formula_sum   'Ba17 Sr5 La8 Pr42 Mn72 O216'
_cell_volume   4402.85535141
_cell_formula_units_Z   1
loop_
 _symmetry_equiv_pos_site_id
 _symmetry_equiv_pos_as_xyz
  1  'x, y, z'
loop_
 _atom_site_type_symbol
 _atom_site_label
 _atom_site_symmetry_multiplicity
 _atom_site_fract_x
 _atom_site_fract_y
 _atom_site_fract_z
 _atom_site_occupancy
  Ba  Ba0  1  0.33298069  0.87462091  0.66537706  1
  Ba  Ba1  1  0.33307729  0.12377804  0.99819083  1
  Ba  Ba2  1  0.16641466  0.62576125  0.50077958  1
  Ba  Ba3  1  0.66693621  0.87679346  0.66942780  1
  Ba  Ba4  1  0.83250668  0.62779888  0.16974383  1
  Ba  Ba5  1  0.16648226  0.12541797  0.83575332  1
  Ba  Ba6  1  0.33221361  0.62830234  0.33039659  1
  Ba  Ba7  1  0.16691899  0.37512797  0.83352961  1
  Ba  Ba8  1  0.83520428  0.37167030  0.50114093  1
  Ba  Ba9  1  0.50232838  0.37441911  0.16297346  1
  Ba  Ba10  1  0.33404807  0.62510774  0.66139859  1
  Ba  Ba11  1  -0.00017871  0.87531401  0.67291082  1
  Ba  Ba12  1  0.83295803  0.87541959  0.83222729  1
  Ba  Ba13  1  0.00061028  0.37429685  0.33634077  1
  Ba  Ba14  1  0.50341539  0.37483379  0.83019617  1
  Ba  Ba15  1  0.32945619  0.12131720  0.32999572  1
  Ba  Ba16  1  0.50190543  0.62573083  0.49794745  1
  Sr  Sr17  1  0.83180988  0.12913554  0.50275247  1
  Sr  Sr18  1  0.00134252  0.37508702  0.66721687  1
  Sr  Sr19  1  0.66906107  0.37503455  0.66552713  1
  Sr  Sr20  1  0.16736828  0.87809263  0.82933473  1
  Sr  Sr21  1  0.33428144  0.87688078  0.33575228  1
  La  La22  1  0.16420699  0.12406542  0.50353348  1
  La  La23  1  0.83372980  0.88033640  0.50278055  1
  La  La24  1  0.50091010  0.62674182  0.82789077  1
  La  La25  1  0.17399368  0.37500180  0.16560842  1
  La  La26  1  0.49553176  0.87543203  0.16494450  1
  La  La27  1  0.83008464  0.12397617  0.83164238  1
  La  La28  1  0.66579665  0.62335709  0.99944366  1
  La  La29  1  0.17090951  0.87327354  0.50094460  1
  Pr  Pr30  1  0.15557286  0.12383359  0.17037175  1
  Pr  Pr31  1  0.33007705  0.87874743  -0.00434939  1
  Pr  Pr32  1  0.33577367  0.37997929  0.66491061  1
  Pr  Pr33  1  0.83606622  0.37563896  0.82867192  1
  Pr  Pr34  1  0.66536717  0.62324963  0.33094218  1
  Pr  Pr35  1  0.50054031  0.62454894  0.17135920  1
  Pr  Pr36  1  0.66824250  0.87405241  0.33855879  1
  Pr  Pr37  1  0.00537232  0.87553106  0.00261262  1
  Pr  Pr38  1  0.83585629  0.87589214  0.16359207  1
  Pr  Pr39  1  0.33760928  0.36974436  -0.00054595  1
  Pr  Pr40  1  0.17058391  0.37597396  0.49835643  1
  Pr  Pr41  1  0.66176749  0.12615902  0.99744641  1
  Pr  Pr42  1  0.33493261  0.62168065  0.99480731  1
  Pr  Pr43  1  0.66905788  0.62271736  0.66563640  1
  Pr  Pr44  1  0.49654117  0.12153280  0.50030276  1
  Pr  Pr45  1  0.83626886  0.62156970  0.50343951  1
  Pr  Pr46  1  0.67319245  0.37460140  0.00314907  1
  Pr  Pr47  1  0.66490074  0.12679365  0.33224443  1
  Pr  Pr48  1  0.49800834  0.12201816  0.83254533  1
  Pr  Pr49  1  0.66865033  0.37634592  0.33713866  1
  Pr  Pr50  1  0.82764755  0.12402926  0.16945407  1
  Pr  Pr51  1  0.00947030  0.37517379  0.00593800  1
  Pr  Pr52  1  0.49837872  0.87214607  0.49659044  1
  Pr  Pr53  1  -0.00167953  0.87124705  0.34152848  1
  Pr  Pr54  1  0.66516318  0.12738451  0.66544765  1
  Pr  Pr55  1  0.16145986  0.62503191  0.17384250  1
  Pr  Pr56  1  -0.00388171  0.62386404  0.99875642  1
  Pr  Pr57  1  0.00273831  0.62398769  0.67016135  1
  Pr  Pr58  1  0.33037082  0.12939357  0.66478939  1
  Pr  Pr59  1  0.49765073  0.87697306  0.82754445  1
  Pr  Pr60  1  0.16749352  0.62972521  0.83191856  1
  Pr  Pr61  1  -0.00539222  0.12647433  0.99615433  1
  Pr  Pr62  1  -0.00953454  0.12547973  0.33529561  1
  Pr  Pr63  1  0.33636851  0.37357911  0.33454746  1
  Pr  Pr64  1  -0.00342745  0.12612174  0.66992976  1
  Pr  Pr65  1  0.83933341  0.37464157  0.16611056  1
  Pr  Pr66  1  0.83255131  0.62955102  0.83566980  1
  Pr  Pr67  1  0.50108395  0.37745610  0.49433907  1
  Pr  Pr68  1  0.49455645  0.12574568  0.16948719  1
  Pr  Pr69  1  0.17399423  0.87447962  0.16650693  1
  Pr  Pr70  1  0.66714850  0.87485280  0.00235547  1
  Pr  Pr71  1  -0.00171608  0.62036055  0.33448999  1
  Mn  Mn72  1  -0.00174654  -0.00160510  0.16928366  1
  Mn  Mn73  1  -0.00075179  0.00059468  0.50209592  1
  Mn  Mn74  1  -0.00114918  0.00203418  0.83579816  1
  Mn  Mn75  1  0.00020138  0.49989670  0.16744385  1
  Mn  Mn76  1  0.00128603  0.49970879  0.50303368  1
  Mn  Mn77  1  -0.00037852  0.50042767  0.83542283  1
  Mn  Mn78  1  0.33167594  -0.00148047  0.16550049  1
  Mn  Mn79  1  0.33253327  0.00076007  0.49787602  1
  Mn  Mn80  1  0.33325051  -0.00013325  0.83095812  1
  Mn  Mn81  1  0.33367946  0.50045205  0.16238248  1
  Mn  Mn82  1  0.33471810  0.49821437  0.49811512  1
  Mn  Mn83  1  0.33407879  0.50045549  0.83142746  1
  Mn  Mn84  1  0.66559996  -0.00035233  0.16716052  1
  Mn  Mn85  1  0.66618627  0.00146160  0.49996077  1
  Mn  Mn86  1  0.66560165  0.00232437  0.83459604  1
  Mn  Mn87  1  0.66903911  0.49908177  0.16615383  1
  Mn  Mn88  1  0.66815850  0.49969643  0.49980864  1
  Mn  Mn89  1  0.66771892  0.50018487  0.83312263  1
  Mn  Mn90  1  -0.00126120  0.24836077  0.16655764  1
  Mn  Mn91  1  0.00215809  0.24803714  0.50196632  1
  Mn  Mn92  1  -0.00211341  0.25170298  0.83543101  1
  Mn  Mn93  1  0.00002604  0.75209170  0.17077288  1
  Mn  Mn94  1  -0.00207563  0.75089268  0.50385381  1
  Mn  Mn95  1  0.00111936  0.74804886  0.83653921  1
  Mn  Mn96  1  0.33216128  0.24806301  0.16665047  1
  Mn  Mn97  1  0.33392860  0.24894050  0.49797054  1
  Mn  Mn98  1  0.33540923  0.25261277  0.83039346  1
  Mn  Mn99  1  0.33289595  0.75230086  0.16079046  1
  Mn  Mn100  1  0.33426238  0.75209041  0.49739583  1
  Mn  Mn101  1  0.33385438  0.74730305  0.83295634  1
  Mn  Mn102  1  0.66862236  0.24867530  0.16582942  1
  Mn  Mn103  1  0.66407711  0.24864919  0.49941311  1
  Mn  Mn104  1  0.66674579  0.25038320  0.83367776  1
  Mn  Mn105  1  0.66520675  0.75305234  0.16832059  1
  Mn  Mn106  1  0.66963842  0.75101755  0.50070977  1
  Mn  Mn107  1  0.66557528  0.74873538  0.83444797  1
  Mn  Mn108  1  0.16699053  0.25042090  0.00272756  1
  Mn  Mn109  1  0.16469261  0.24741677  0.33414320  1
  Mn  Mn110  1  0.16589615  0.25008428  0.66578132  1
  Mn  Mn111  1  0.16720672  0.74936928  0.00167023  1
  Mn  Mn112  1  0.16405052  0.75169303  0.33242889  1
  Mn  Mn113  1  0.16591763  0.75104472  0.66840729  1
  Mn  Mn114  1  0.50223993  0.24926815  -0.00226489  1
  Mn  Mn115  1  0.50064405  0.24940301  0.33201949  1
  Mn  Mn116  1  0.50072807  0.24937078  0.66337367  1
  Mn  Mn117  1  0.50033490  0.75019298  -0.00120193  1
  Mn  Mn118  1  0.50122404  0.75149134  0.33025983  1
  Mn  Mn119  1  0.50263476  0.75104075  0.66493955  1
  Mn  Mn120  1  0.83359259  0.25000031  0.00020093  1
  Mn  Mn121  1  0.83090937  0.24744636  0.33300601  1
  Mn  Mn122  1  0.83336121  0.25204012  0.66839712  1
  Mn  Mn123  1  0.83332865  0.75125313  0.00212767  1
  Mn  Mn124  1  0.83199268  0.75174994  0.33731523  1
  Mn  Mn125  1  0.83333834  0.74691777  0.66792371  1
  Mn  Mn126  1  0.16446742  -0.00271090  0.00138294  1
  Mn  Mn127  1  0.16124930  -0.00139560  0.33411212  1
  Mn  Mn128  1  0.16637786  0.00237626  0.66793916  1
  Mn  Mn129  1  0.16812790  0.50278525  0.00242978  1
  Mn  Mn130  1  0.16707720  0.49893951  0.33224351  1
  Mn  Mn131  1  0.16565303  0.49772843  0.66664228  1
  Mn  Mn132  1  0.50152574  -0.00228170  -0.00180442  1
  Mn  Mn133  1  0.50239108  -0.00002363  0.33181286  1
  Mn  Mn134  1  0.49875478  0.00275149  0.66596483  1
  Mn  Mn135  1  0.50179963  0.50156235  -0.00197636  1
  Mn  Mn136  1  0.50018276  0.49946192  0.32962887  1
  Mn  Mn137  1  0.50391348  0.49824767  0.66327767  1
  Mn  Mn138  1  0.83283597  -0.00034587  0.00219417  1
  Mn  Mn139  1  0.83190373  -0.00008212  0.33259463  1
  Mn  Mn140  1  0.83234698  0.00362165  0.66629430  1
  Mn  Mn141  1  0.83422367  0.49995602  -0.00077785  1
  Mn  Mn142  1  0.83208497  0.50038149  0.33484774  1
  Mn  Mn143  1  0.83435318  0.49900642  0.66959782  1
  O  O144  1  0.15973210  0.12230017  0.02517881  1
  O  O145  1  0.15906443  0.12036989  0.35808330  1
  O  O146  1  0.17919006  0.12723635  0.67739200  1
  O  O147  1  0.17403741  0.62676110  0.03172740  1
  O  O148  1  0.16193981  0.62551262  0.34295598  1
  O  O149  1  0.16351510  0.62266726  0.68495244  1
  O  O150  1  0.50794975  0.12220767  0.02672567  1
  O  O151  1  0.50676759  0.12419405  0.35507878  1
  O  O152  1  0.49742579  0.12626328  0.68985770  1
  O  O153  1  0.49924263  0.62867507  0.02884769  1
  O  O154  1  0.50550949  0.62349462  0.34045294  1
  O  O155  1  0.50762276  0.62539798  0.68221413  1
  O  O156  1  0.83707164  0.12415387  0.02846075  1
  O  O157  1  0.83241465  0.12222204  0.35192999  1
  O  O158  1  0.83210483  0.13152699  0.68677757  1
  O  O159  1  0.83378535  0.62687159  0.01558881  1
  O  O160  1  0.82779292  0.63127224  0.35858373  1
  O  O161  1  0.82874319  0.61975025  0.69159219  1
  O  O162  1  0.17046041  0.37494155  0.30980272  1
  O  O163  1  0.16270303  0.37147007  0.64352620  1
  O  O164  1  0.15868868  0.37807878  0.99075854  1
  O  O165  1  0.15120904  0.87600006  0.30842330  1
  O  O166  1  0.16287881  0.87985239  0.64953201  1
  O  O167  1  0.15870073  0.87126921  0.97822604  1
  O  O168  1  0.50147431  0.37504821  0.31885997  1
  O  O169  1  0.50192697  0.36908999  0.63874078  1
  O  O170  1  0.50349888  0.37589921  0.98673143  1
  O  O171  1  0.51176158  0.87778289  0.30892538  1
  O  O172  1  0.50326600  0.88076165  0.64373079  1
  O  O173  1  0.50930058  0.87179973  0.96923749  1
  O  O174  1  0.82519162  0.36919509  0.30988324  1
  O  O175  1  0.83233191  0.37484503  0.65638271  1
  O  O176  1  0.82828594  0.37411041  0.97320400  1
  O  O177  1  0.83427355  0.87725493  0.30665314  1
  O  O178  1  0.83379449  0.87378012  0.64671123  1
  O  O179  1  0.83128669  0.87531448  0.98756850  1
  O  O180  1  -0.00446078  0.37373844  0.17928590  1
  O  O181  1  0.00771504  0.37104421  0.51665417  1
  O  O182  1  -0.00840455  0.37701581  0.86235838  1
  O  O183  1  -0.00835607  0.87801606  0.19849875  1
  O  O184  1  -0.00824760  0.87663702  0.51722654  1
  O  O185  1  0.00271184  0.87246094  0.85686675  1
  O  O186  1  0.32802909  0.37016216  0.19002810  1
  O  O187  1  0.33742059  0.36845868  0.52005388  1
  O  O188  1  0.33628770  0.37940553  0.85579482  1
  O  O189  1  0.33106684  0.87633463  0.18570480  1
  O  O190  1  0.33783997  0.87956429  0.50646700  1
  O  O191  1  0.34264812  0.86887263  0.85320096  1
  O  O192  1  0.67341869  0.36924197  0.19209288  1
  O  O193  1  0.65701034  0.37079501  0.51560685  1
  O  O194  1  0.67217013  0.37500757  0.86054408  1
  O  O195  1  0.66429646  0.87797164  0.19453445  1
  O  O196  1  0.66413135  0.87781425  0.51456577  1
  O  O197  1  0.65905503  0.87592986  0.85807074  1
  O  O198  1  0.00080361  0.12193825  0.13856308  1
  O  O199  1  0.00699239  0.12203935  0.47647668  1
  O  O200  1  -0.00635794  0.12923041  0.81844110  1
  O  O201  1  0.00574738  0.62558500  0.14309342  1
  O  O202  1  -0.00546161  0.63015978  0.47688277  1
  O  O203  1  -0.00141323  0.62238663  0.81639792  1
  O  O204  1  0.33862715  0.12176029  0.15444192  1
  O  O205  1  0.33092999  0.12510382  0.48395836  1
  O  O206  1  0.34162978  0.12837472  0.81126200  1
  O  O207  1  0.33372275  0.63095919  0.13901418  1
  O  O208  1  0.33355434  0.62531078  0.48892183  1
  O  O209  1  0.32994635  0.62315054  0.81920013  1
  O  O210  1  0.67397481  0.12264517  0.13871541  1
  O  O211  1  0.66145522  0.12350010  0.47416592  1
  O  O212  1  0.66684671  0.12759057  0.81238824  1
  O  O213  1  0.66142220  0.63021410  0.14396452  1
  O  O214  1  0.67671918  0.62876722  0.47352282  1
  O  O215  1  0.66981749  0.62272311  0.81150471  1
  O  O216  1  0.07258512  0.02551403  0.25590241  1
  O  O217  1  0.08123860  0.02367018  0.58886553  1
  O  O218  1  0.07172360  0.01291875  0.93141904  1
  O  O219  1  0.07930627  0.51881171  0.25352007  1
  O  O220  1  0.07687393  0.51496069  0.59172213  1
  O  O221  1  0.07994446  0.52244132  0.92593384  1
  O  O222  1  0.42388295  0.00925313  0.24352530  1
  O  O223  1  0.41569704  0.02336303  0.58506251  1
  O  O224  1  0.42437029  0.01096893  0.91044342  1
  O  O225  1  0.41821622  0.51462924  0.24164425  1
  O  O226  1  0.42128409  0.49938383  0.57729563  1
  O  O227  1  0.41923802  0.52249713  0.91539197  1
  O  O228  1  0.74585865  0.02084834  0.25251661  1
  O  O229  1  0.74654216  0.01964659  0.58280496  1
  O  O230  1  0.74554326  0.02048990  0.92153495  1
  O  O231  1  0.74286330  0.51554456  0.25646524  1
  O  O232  1  0.75266647  0.51977638  0.58464633  1
  O  O233  1  0.74696950  0.52084253  0.92074373  1
  O  O234  1  0.23436474  0.23184641  0.24170928  1
  O  O235  1  0.24766834  0.23592608  0.57398347  1
  O  O236  1  0.25037030  0.24695545  0.91947319  1
  O  O237  1  0.24199567  0.74019289  0.23595001  1
  O  O238  1  0.24570326  0.75124168  0.57959618  1
  O  O239  1  0.25077023  0.72905342  0.91970852  1
  O  O240  1  0.58328988  0.22507976  0.24301748  1
  O  O241  1  0.57841807  0.22183842  0.57801846  1
  O  O242  1  0.58134651  0.22645732  0.91234765  1
  O  O243  1  0.58342863  0.72990452  0.24778499  1
  O  O244  1  0.59479279  0.73400150  0.58930499  1
  O  O245  1  0.58439492  0.72271405  0.92088781  1
  O  O246  1  0.90810420  0.23025670  0.23964824  1
  O  O247  1  0.92031853  0.23188499  0.58640570  1
  O  O248  1  0.90784545  0.22789632  0.91513526  1
  O  O249  1  0.92100653  0.73359927  0.26429472  1
  O  O250  1  0.91609762  0.72332212  0.58592458  1
  O  O251  1  0.92025889  0.73062579  0.92031113  1
  O  O252  1  0.08864429  0.48468619  0.08974852  1
  O  O253  1  0.09127375  0.48639868  0.42240643  1
  O  O254  1  0.08194675  0.49340606  0.75447558  1
  O  O255  1  0.08500601  0.97399319  0.09490051  1
  O  O256  1  0.08358908  0.97560763  0.42159961  1
  O  O257  1  0.08361399  0.99729941  0.75574343  1
  O  O258  1  0.41364301  0.48714909  0.07341583  1
  O  O259  1  0.41658773  0.47868744  0.41182219  1
  O  O260  1  0.41848444  0.48642483  0.74105094  1
  O  O261  1  0.41856431  0.97550326  0.07568713  1
  O  O262  1  0.42562258  0.98658257  0.41906639  1
  O  O263  1  0.42108113  0.98683263  0.75202306  1
  O  O264  1  0.75644000  0.47652441  0.08666174  1
  O  O265  1  0.74554214  0.48266525  0.41444095  1
  O  O266  1  0.75430383  0.48186380  0.75692804  1
  O  O267  1  0.75132624  0.97768715  0.08882129  1
  O  O268  1  0.75230168  0.97917748  0.41481871  1
  O  O269  1  0.74777935  0.99916060  0.75284442  1
  O  O270  1  0.25314270  0.27082785  0.08049395  1
  O  O271  1  0.25766505  0.27255617  0.41322981  1
  O  O272  1  0.25727623  0.26623334  0.73808161  1
  O  O273  1  0.25250786  0.77846979  0.07712244  1
  O  O274  1  0.24565494  0.77023762  0.41113543  1
  O  O275  1  0.24660720  0.75705617  0.75697465  1
  O  O276  1  0.59806848  0.26245378  0.07273279  1
  O  O277  1  0.58421306  0.26862853  0.41228731  1
  O  O278  1  0.59000440  0.25802342  0.73957453  1
  O  O279  1  0.58242691  0.77542340  0.08251107  1
  O  O280  1  0.58672761  0.76911181  0.41750852  1
  O  O281  1  0.57722128  0.76236598  0.76051192  1
  O  O282  1  0.92353965  0.27091794  0.07461312  1
  O  O283  1  0.92042842  0.25147916  0.41320632  1
  O  O284  1  0.91667332  0.26772919  0.75431161  1
  O  O285  1  0.91972392  0.77205325  0.08908759  1
  O  O286  1  0.91155420  0.77306789  0.42288867  1
  O  O287  1  0.91503198  0.74946141  0.75355646  1
  O  O288  1  0.25561355  0.47631227  0.07710658  1
  O  O289  1  0.25441980  0.47581608  0.41061897  1
  O  O290  1  0.25367078  0.48267515  0.74238056  1
  O  O291  1  0.24936516  0.97728464  0.07911603  1
  O  O292  1  0.24466817  0.98118318  0.41318602  1
  O  O293  1  0.25215010  0.99256251  0.74858901  1
  O  O294  1  0.59541076  0.48806099  0.07335538  1
  O  O295  1  0.58423794  0.48358574  0.41334152  1
  O  O296  1  0.59009543  0.49160294  0.74593145  1
  O  O297  1  0.58562231  0.97575459  0.08166387  1
  O  O298  1  0.58585279  0.98052886  0.41401477  1
  O  O299  1  0.57752504  0.99148284  0.75766498  1
  O  O300  1  0.92134169  0.48057108  0.07813494  1
  O  O301  1  0.91655348  0.49734700  0.41828535  1
  O  O302  1  0.91590111  0.48382961  0.75327902  1
  O  O303  1  0.92128663  0.97621452  0.08342018  1
  O  O304  1  0.91853310  0.98305099  0.40941824  1
  O  O305  1  0.91634346  1.00048511  0.75192384  1
  O  O306  1  0.09008912  0.26522874  0.09492339  1
  O  O307  1  0.09568925  0.26241450  0.42694552  1
  O  O308  1  0.07981830  0.25667581  0.74910098  1
  O  O309  1  0.08594661  0.77321862  0.08759200  1
  O  O310  1  0.07914502  0.77073347  0.42108977  1
  O  O311  1  0.08618859  0.75280080  0.75900364  1
  O  O312  1  0.41761615  0.26148265  0.07659613  1
  O  O313  1  0.41921702  0.26861400  0.42011614  1
  O  O314  1  0.41457974  0.26755935  0.73786778  1
  O  O315  1  0.41557578  0.77822056  0.07493823  1
  O  O316  1  0.42142794  0.76914658  0.41032547  1
  O  O317  1  0.42196619  0.75912778  0.75421488  1
  O  O318  1  0.76043695  0.27216366  0.09000690  1
  O  O319  1  0.74287119  0.26121549  0.41113866  1
  O  O320  1  0.75607919  0.26419305  0.76234650  1
  O  O321  1  0.74778334  0.77376281  0.08836137  1
  O  O322  1  0.75225172  0.77910854  0.41936239  1
  O  O323  1  0.74791938  0.75364966  0.74905735  1
  O  O324  1  0.23352276  0.01071439  0.24201163  1
  O  O325  1  0.24597258  0.01328126  0.57790592  1
  O  O326  1  0.25202688  0.00072915  0.91585624  1
  O  O327  1  0.24170014  0.51364104  0.23915191  1
  O  O328  1  0.24836432  0.49700771  0.57795546  1
  O  O329  1  0.24568199  0.52219128  0.91786779  1
  O  O330  1  0.58346489  0.02769189  0.24575894  1
  O  O331  1  0.58002636  0.02599385  0.58420705  1
  O  O332  1  0.58437213  0.02430141  0.91865642  1
  O  O333  1  0.58311826  0.51741149  0.24582532  1
  O  O334  1  0.59182069  0.51541784  0.58484860  1
  O  O335  1  0.58210179  0.52432204  0.91392298  1
  O  O336  1  0.91015608  0.02448636  0.24431074  1
  O  O337  1  0.91628140  0.02135911  0.58154336  1
  O  O338  1  0.91267122  0.02075383  0.91834573  1
  O  O339  1  0.91659909  0.51388039  0.25285052  1
  O  O340  1  0.91668209  0.52116913  0.58796099  1
  O  O341  1  0.91345163  0.52334734  0.91533811  1
  O  O342  1  0.07108910  0.22456210  0.25515129  1
  O  O343  1  0.08152089  0.22421786  0.58687228  1
  O  O344  1  0.07178846  0.23960035  0.93050239  1
  O  O345  1  0.07908516  0.72892125  0.25251612  1
  O  O346  1  0.07582022  0.73609373  0.59004400  1
  O  O347  1  0.08369225  0.72145775  0.92412892  1
  O  O348  1  0.41829674  0.23571070  0.24834456  1
  O  O349  1  0.41470721  0.22518022  0.58032643  1
  O  O350  1  0.42249442  0.23615045  0.91085354  1
  O  O351  1  0.42216890  0.74049052  0.23480521  1
  O  O352  1  0.42528827  0.74968352  0.57770545  1
  O  O353  1  0.41847624  0.72478382  0.91680744  1
  O  O354  1  0.74566065  0.22273495  0.25040427  1
  O  O355  1  0.74226730  0.23361002  0.58787927  1
  O  O356  1  0.74465592  0.22833225  0.92749264  1
  O  O357  1  0.74260548  0.73857125  0.26089884  1
  O  O358  1  0.75547758  0.72777833  0.57984597  1
  O  O359  1  0.74752310  0.73207729  0.91647184  1
