# generated using pymatgen
data_Ba17Sr5La8Pr42Mn72O216
_symmetry_space_group_name_H-M   'P 1'
_cell_length_a   16.67475568
_cell_length_b   15.70631427
_cell_length_c   16.81812299
_cell_angle_alpha   89.99492117
_cell_angle_beta   90.00197391
_cell_angle_gamma   90.00642983
_symmetry_Int_Tables_number   1
_chemical_formula_structural   Ba17Sr5La8Pr42Mn72O216
_chemical_formula_sum   'Ba17 Sr5 La8 Pr42 Mn72 O216'
_cell_volume   4404.64875630
_cell_formula_units_Z   1
loop_
 _symmetry_equiv_pos_site_id
 _symmetry_equiv_pos_as_xyz
  1  'x, y, z'
loop_
 _atom_site_type_symbol
 _atom_site_label
 _atom_site_symmetry_multiplicity
 _atom_site_fract_x
 _atom_site_fract_y
 _atom_site_fract_z
 _atom_site_occupancy
  Ba  Ba0  1  0.16573372  0.12573164  0.50083073  1
  Ba  Ba1  1  0.49653204  0.62532645  0.16902544  1
  Ba  Ba2  1  0.83045446  0.12533735  0.16683550  1
  Ba  Ba3  1  0.66413539  0.12510698  0.33126328  1
  Ba  Ba4  1  0.49874398  0.12646755  0.49738323  1
  Ba  Ba5  1  0.16699884  0.12545248  0.83308562  1
  Ba  Ba6  1  0.66893753  0.87339047  0.66821777  1
  Ba  Ba7  1  0.00258527  0.87129647  0.33501391  1
  Ba  Ba8  1  0.16747758  0.62436769  0.83638142  1
  Ba  Ba9  1  0.33230658  0.12497889  0.99978954  1
  Ba  Ba10  1  -0.00379114  0.12416785  0.99836471  1
  Ba  Ba11  1  0.66773218  0.37621368  0.66752436  1
  Ba  Ba12  1  0.66432507  0.62559325  0.66488422  1
  Ba  Ba13  1  0.00125318  0.87330858  0.00262547  1
  Ba  Ba14  1  0.00051053  0.12536189  0.66567904  1
  Ba  Ba15  1  0.83285072  0.12518084  0.50103833  1
  Ba  Ba16  1  0.49913069  0.62392709  0.49966051  1
  Sr  Sr17  1  0.33789787  0.37245228  0.66435151  1
  Sr  Sr18  1  0.66258815  0.62418534  0.33197286  1
  Sr  Sr19  1  0.33055881  0.12523313  0.66384332  1
  Sr  Sr20  1  0.33574258  0.87728215  0.66490727  1
  Sr  Sr21  1  0.50496466  0.37611958  0.50333031  1
  La  La22  1  0.82923764  0.62672196  0.50012656  1
  La  La23  1  0.50114793  0.37266465  0.82604073  1
  La  La24  1  0.65852657  0.62469576  0.99844848  1
  La  La25  1  -0.00419209  0.62354619  0.33299743  1
  La  La26  1  -0.00558179  0.12444287  0.33093085  1
  La  La27  1  0.82909651  0.62852076  0.16911430  1
  La  La28  1  0.17344453  0.37135091  0.83041521  1
  La  La29  1  0.17007851  0.87582975  0.16536461  1
  Pr  Pr30  1  -0.00503799  0.62260056  0.66769760  1
  Pr  Pr31  1  0.00652255  0.37304719  0.66633809  1
  Pr  Pr32  1  0.50837369  0.87504293  0.50062720  1
  Pr  Pr33  1  0.49506090  0.12499366  0.82846779  1
  Pr  Pr34  1  0.15583411  0.12437119  0.16946051  1
  Pr  Pr35  1  0.00957352  0.37575254  0.00237211  1
  Pr  Pr36  1  0.83787022  0.87455647  0.50021192  1
  Pr  Pr37  1  0.50590545  0.87414932  0.16256011  1
  Pr  Pr38  1  0.67226880  0.87338479  0.33593431  1
  Pr  Pr39  1  0.49104378  0.12594513  0.17421001  1
  Pr  Pr40  1  0.32908186  0.62306414  0.33107835  1
  Pr  Pr41  1  0.67245563  0.37607572  -0.00127192  1
  Pr  Pr42  1  0.84285578  0.37720438  0.82801081  1
  Pr  Pr43  1  0.82296140  0.62661395  0.83492842  1
  Pr  Pr44  1  0.50016149  0.87818997  0.82807462  1
  Pr  Pr45  1  0.34040173  0.87397486  0.33711245  1
  Pr  Pr46  1  0.16120842  0.62458183  0.16859737  1
  Pr  Pr47  1  0.32437987  0.12694562  0.32876076  1
  Pr  Pr48  1  0.33134044  0.62355375  0.66243608  1
  Pr  Pr49  1  0.17414106  0.37341942  0.16518828  1
  Pr  Pr50  1  0.00378273  0.37473399  0.33606829  1
  Pr  Pr51  1  0.66230935  0.12519630  0.65931085  1
  Pr  Pr52  1  0.00586772  0.87640120  0.66756684  1
  Pr  Pr53  1  0.33383466  0.62383058  0.99627204  1
  Pr  Pr54  1  0.17516821  0.37188715  0.50038559  1
  Pr  Pr55  1  0.16916645  0.88017130  0.83270131  1
  Pr  Pr56  1  0.16309999  0.62678136  0.50710295  1
  Pr  Pr57  1  0.66896683  0.87372675  -0.00016748  1
  Pr  Pr58  1  0.49781458  0.62420524  0.83082748  1
  Pr  Pr59  1  0.17604472  0.87904111  0.49921320  1
  Pr  Pr60  1  0.33805486  0.37459351  -0.00204621  1
  Pr  Pr61  1  0.84433695  0.87295878  0.83048109  1
  Pr  Pr62  1  0.83655203  0.37711805  0.50017671  1
  Pr  Pr63  1  0.66006596  0.12518077  0.99952346  1
  Pr  Pr64  1  -0.01126274  0.62514210  0.99535724  1
  Pr  Pr65  1  0.82745360  0.12387598  0.83709175  1
  Pr  Pr66  1  0.83344179  0.87759902  0.16597492  1
  Pr  Pr67  1  0.67223585  0.37668846  0.33750765  1
  Pr  Pr68  1  0.50907132  0.37682214  0.16416822  1
  Pr  Pr69  1  0.33274426  0.87487465  0.00003311  1
  Pr  Pr70  1  0.34338576  0.37645262  0.33811572  1
  Pr  Pr71  1  0.83699184  0.37394468  0.16429370  1
  Mn  Mn72  1  -0.00115008  -0.00148038  0.16808224  1
  Mn  Mn73  1  0.00075165  -0.00262605  0.50042374  1
  Mn  Mn74  1  -0.00009987  -0.00116466  0.83337782  1
  Mn  Mn75  1  -0.00018092  0.50076122  0.16638624  1
  Mn  Mn76  1  0.00188713  0.50136947  0.49997797  1
  Mn  Mn77  1  -0.00029655  0.50150438  0.83484584  1
  Mn  Mn78  1  0.33182344  -0.00160535  0.16793088  1
  Mn  Mn79  1  0.33597782  -0.00048109  0.49945859  1
  Mn  Mn80  1  0.33451590  -0.00122201  0.83275404  1
  Mn  Mn81  1  0.33180384  0.49865867  0.16654113  1
  Mn  Mn82  1  0.33295262  0.49943769  0.49887672  1
  Mn  Mn83  1  0.33527185  0.49988024  0.83192025  1
  Mn  Mn84  1  0.66334991  -0.00170832  0.16535319  1
  Mn  Mn85  1  0.66812139  -0.00069855  0.50013657  1
  Mn  Mn86  1  0.66656569  0.00124583  0.83329901  1
  Mn  Mn87  1  0.66784842  0.49956458  0.16690797  1
  Mn  Mn88  1  0.66776651  0.49926815  0.49844765  1
  Mn  Mn89  1  0.66534107  0.50029092  0.83538022  1
  Mn  Mn90  1  0.00001356  0.25355587  0.16805593  1
  Mn  Mn91  1  0.00006211  0.25412372  0.49988805  1
  Mn  Mn92  1  -0.00119412  0.25178230  0.83458289  1
  Mn  Mn93  1  0.00023378  0.74757319  0.16712036  1
  Mn  Mn94  1  0.00185855  0.74674606  0.50286371  1
  Mn  Mn95  1  0.00131539  0.74799324  0.83384330  1
  Mn  Mn96  1  0.33264541  0.25309333  0.16697589  1
  Mn  Mn97  1  0.33570184  0.25145080  0.49911826  1
  Mn  Mn98  1  0.33560474  0.24991358  0.83237842  1
  Mn  Mn99  1  0.33115242  0.74969652  0.16761754  1
  Mn  Mn100  1  0.33346203  0.75006300  0.49960809  1
  Mn  Mn101  1  0.33488090  0.75085244  0.83248874  1
  Mn  Mn102  1  0.66521985  0.25256170  0.16543815  1
  Mn  Mn103  1  0.66794100  0.25182790  0.49994209  1
  Mn  Mn104  1  0.66678694  0.24819532  0.83358894  1
  Mn  Mn105  1  0.66546315  0.75029786  0.16741795  1
  Mn  Mn106  1  0.66748058  0.75054110  0.49848091  1
  Mn  Mn107  1  0.66451033  0.75044038  0.83563099  1
  Mn  Mn108  1  0.16754777  0.25264053  0.00017357  1
  Mn  Mn109  1  0.16605116  0.25283511  0.33164278  1
  Mn  Mn110  1  0.16948943  0.25184478  0.66510964  1
  Mn  Mn111  1  0.16842459  0.74760855  0.00281018  1
  Mn  Mn112  1  0.16837149  0.74727089  0.33570448  1
  Mn  Mn113  1  0.16809953  0.74972986  0.66876810  1
  Mn  Mn114  1  0.50155383  0.25025530  -0.00091815  1
  Mn  Mn115  1  0.49870921  0.25228493  0.33198338  1
  Mn  Mn116  1  0.49941675  0.24982637  0.66495693  1
  Mn  Mn117  1  0.49828635  0.75016778  -0.00206984  1
  Mn  Mn118  1  0.49934025  0.75037905  0.33273878  1
  Mn  Mn119  1  0.49694292  0.75102639  0.66659186  1
  Mn  Mn120  1  0.83101363  0.25228888  -0.00252595  1
  Mn  Mn121  1  0.83444719  0.25328302  0.33225878  1
  Mn  Mn122  1  0.83432614  0.25087749  0.66899532  1
  Mn  Mn123  1  0.82912894  0.74987162  0.00168974  1
  Mn  Mn124  1  0.83310923  0.74787309  0.33376125  1
  Mn  Mn125  1  0.83635533  0.74888576  0.66682609  1
  Mn  Mn126  1  0.16752486  -0.00161426  0.00040660  1
  Mn  Mn127  1  0.16726736  -0.00075492  0.33253176  1
  Mn  Mn128  1  0.16908683  -0.00195579  0.66497970  1
  Mn  Mn129  1  0.16796848  0.50000445  0.00256216  1
  Mn  Mn130  1  0.16630463  0.50052357  0.33494942  1
  Mn  Mn131  1  0.16821325  0.50026987  0.66787481  1
  Mn  Mn132  1  0.50021581  -0.00006316  -0.00159509  1
  Mn  Mn133  1  0.49767026  -0.00206619  0.33127568  1
  Mn  Mn134  1  0.49871754  -0.00058352  0.66481943  1
  Mn  Mn135  1  0.49987967  0.49855908  -0.00173921  1
  Mn  Mn136  1  0.50039987  0.50027444  0.33278710  1
  Mn  Mn137  1  0.49830310  0.49943335  0.66647303  1
  Mn  Mn138  1  0.82923881  -0.00061622  -0.00107207  1
  Mn  Mn139  1  0.83386248  -0.00201913  0.33314256  1
  Mn  Mn140  1  0.83460309  -0.00126578  0.66913567  1
  Mn  Mn141  1  0.83125139  0.49876842  -0.00027767  1
  Mn  Mn142  1  0.83413783  0.50089727  0.33100756  1
  Mn  Mn143  1  0.83565199  0.50079884  0.66599727  1
  O  O144  1  0.16732664  0.12950179  0.02238199  1
  O  O145  1  0.17048108  0.12842397  0.34408287  1
  O  O146  1  0.17077668  0.12363195  0.67495614  1
  O  O147  1  0.17976008  0.62206191  0.02526333  1
  O  O148  1  0.17276485  0.62230209  0.36459392  1
  O  O149  1  0.17575849  0.62493169  0.68170740  1
  O  O150  1  0.50640224  0.12897572  0.03056759  1
  O  O151  1  0.49336940  0.12473342  0.33864841  1
  O  O152  1  0.50691501  0.12372632  0.68294208  1
  O  O153  1  0.49764305  0.62456045  0.01631867  1
  O  O154  1  0.49478482  0.62635239  0.34380534  1
  O  O155  1  0.49091806  0.62663954  0.68550068  1
  O  O156  1  0.82625877  0.12584982  0.01034772  1
  O  O157  1  0.84085588  0.12762713  0.34216080  1
  O  O158  1  0.83191448  0.12488005  0.69322158  1
  O  O159  1  0.83289122  0.62163603  0.02562927  1
  O  O160  1  0.83564397  0.62313001  0.35540009  1
  O  O161  1  0.84008462  0.62459495  0.69155629  1
  O  O162  1  0.15855479  0.37838883  0.30567670  1
  O  O163  1  0.16358939  0.38063884  0.64511228  1
  O  O164  1  0.15967677  0.37967842  0.97812385  1
  O  O165  1  0.17387507  0.87070084  0.30825018  1
  O  O166  1  0.16245894  0.86943766  0.64352205  1
  O  O167  1  0.17061483  0.86841885  0.98015227  1
  O  O168  1  0.49400954  0.37602744  0.30799440  1
  O  O169  1  0.49663152  0.37483097  0.65902467  1
  O  O170  1  0.49960841  0.37490443  0.97141054  1
  O  O171  1  0.49238970  0.87390442  0.30568357  1
  O  O172  1  0.49575277  0.87459678  0.64683583  1
  O  O173  1  0.49874077  0.87114392  0.97147392  1
  O  O174  1  0.83607519  0.38036668  0.30759143  1
  O  O175  1  0.83917929  0.37951089  0.64586769  1
  O  O176  1  0.82403302  0.37817245  0.97052184  1
  O  O177  1  0.82942979  0.86974482  0.31102616  1
  O  O178  1  0.84066639  0.86981046  0.64556981  1
  O  O179  1  0.82213568  0.87357492  0.97422520  1
  O  O180  1  -0.00320652  0.37979888  0.19155840  1
  O  O181  1  -0.00771225  0.38208005  0.52272311  1
  O  O182  1  -0.00748216  0.38098554  0.85933807  1
  O  O183  1  -0.00196319  0.87053975  0.17746926  1
  O  O184  1  -0.00767198  0.86487580  0.52311272  1
  O  O185  1  -0.00166062  0.87047212  0.84678585  1
  O  O186  1  0.32521886  0.37630379  0.19490256  1
  O  O187  1  0.32708463  0.37712009  0.51407433  1
  O  O188  1  0.34231001  0.37639282  0.85299762  1
  O  O189  1  0.32459844  0.87601563  0.19403430  1
  O  O190  1  0.32725801  0.87255180  0.51431392  1
  O  O191  1  0.34091965  0.87255081  0.85687873  1
  O  O192  1  0.66313615  0.37642675  0.18976255  1
  O  O193  1  0.67353241  0.37493807  0.50858583  1
  O  O194  1  0.65801815  0.37516883  0.85640897  1
  O  O195  1  0.66026661  0.87419992  0.18894456  1
  O  O196  1  0.66719674  0.87431567  0.50925784  1
  O  O197  1  0.65607437  0.87500802  0.85765230  1
  O  O198  1  0.00465477  0.12764629  0.15723114  1
  O  O199  1  0.00126444  0.13148906  0.47555871  1
  O  O200  1  -0.00790274  0.12484993  0.82342192  1
  O  O201  1  0.00271885  0.62230634  0.13937208  1
  O  O202  1  0.01040327  0.62325807  0.47438648  1
  O  O203  1  -0.00366460  0.62429178  0.81201242  1
  O  O204  1  0.34175439  0.12634410  0.15534460  1
  O  O205  1  0.33357176  0.12695645  0.47326851  1
  O  O206  1  0.33885062  0.12373499  0.81791310  1
  O  O207  1  0.32822046  0.62106224  0.13914087  1
  O  O208  1  0.32598913  0.62445707  0.47491858  1
  O  O209  1  0.33856008  0.62678240  0.80793110  1
  O  O210  1  0.65945903  0.12542921  0.14477080  1
  O  O211  1  0.66733307  0.12594307  0.49098447  1
  O  O212  1  0.67863160  0.12333358  0.80515369  1
  O  O213  1  0.67308188  0.62452028  0.14249219  1
  O  O214  1  0.67404583  0.62629783  0.48221068  1
  O  O215  1  0.67133415  0.62627365  0.82219078  1
  O  O216  1  0.08029648  0.01721720  0.25711236  1
  O  O217  1  0.08026176  -0.00124554  0.58515192  1
  O  O218  1  0.08237735  0.00317549  0.91594747  1
  O  O219  1  0.07915195  0.52559951  0.26028377  1
  O  O220  1  0.07949495  0.52132970  0.59025763  1
  O  O221  1  0.07149149  0.51745035  0.93326797  1
  O  O222  1  0.40314585  0.01424899  0.25980649  1
  O  O223  1  0.41193749  0.01022691  0.58534500  1
  O  O224  1  0.42144850  0.01349616  0.91540636  1
  O  O225  1  0.40468722  0.51269288  0.25723308  1
  O  O226  1  0.40493296  0.51385668  0.58991241  1
  O  O227  1  0.41477831  0.52117297  0.91813569  1
  O  O228  1  0.74497906  0.00097542  0.25205800  1
  O  O229  1  0.74540284  0.01289577  0.59732763  1
  O  O230  1  0.73880379  0.01887465  0.92479464  1
  O  O231  1  0.75081380  0.51742038  0.25099927  1
  O  O232  1  0.75683663  0.51229708  0.57941483  1
  O  O233  1  0.74146945  0.51971929  0.92675309  1
  O  O234  1  0.24038145  0.23343271  0.23800685  1
  O  O235  1  0.24961100  0.24656333  0.57693856  1
  O  O236  1  0.24939976  0.25258798  0.91438548  1
  O  O237  1  0.24222854  0.72133333  0.24800649  1
  O  O238  1  0.24416930  0.73200226  0.57761234  1
  O  O239  1  0.25744215  0.73594733  0.92326581  1
  O  O240  1  0.56659937  0.24096868  0.23391060  1
  O  O241  1  0.58343330  0.24096914  0.58517802  1
  O  O242  1  0.58023224  0.22230729  0.91163948  1
  O  O243  1  0.58259136  0.74192240  0.24888489  1
  O  O244  1  0.57901163  0.74643607  0.57924221  1
  O  O245  1  0.57979131  0.72758954  0.91683313  1
  O  O246  1  0.91821957  0.24382670  0.25100289  1
  O  O247  1  0.91296644  0.24681063  0.57946558  1
  O  O248  1  0.90224110  0.24127794  0.90483670  1
  O  O249  1  0.91570421  0.72713377  0.25110159  1
  O  O250  1  0.91844065  0.72066430  0.58199064  1
  O  O251  1  0.90756942  0.72999319  0.91412922  1
  O  O252  1  0.09147096  0.47982582  0.09333381  1
  O  O253  1  0.08917558  0.47551427  0.42269532  1
  O  O254  1  0.08868890  0.47951916  0.75435716  1
  O  O255  1  0.09246242  0.98924869  0.09413334  1
  O  O256  1  0.09447003  0.98058897  0.42205347  1
  O  O257  1  0.08733666  0.97925071  0.75119991  1
  O  O258  1  0.42049183  0.47421808  0.08288746  1
  O  O259  1  0.41822048  0.48332518  0.41791737  1
  O  O260  1  0.42201471  0.48777799  0.75673404  1
  O  O261  1  0.41969981  0.97695941  0.09110446  1
  O  O262  1  0.42426642  0.97520066  0.42065651  1
  O  O263  1  0.42208359  0.98672356  0.75453869  1
  O  O264  1  0.75537948  0.47509847  0.08703783  1
  O  O265  1  0.75777333  0.48014685  0.41452825  1
  O  O266  1  0.76001574  0.48899469  0.76289022  1
  O  O267  1  0.74802136  0.97592156  0.08567651  1
  O  O268  1  0.75540732  0.97868415  0.41908797  1
  O  O269  1  0.76256054  0.97960575  0.76552333  1
  O  O270  1  0.25702623  0.27596660  0.07917106  1
  O  O271  1  0.25491762  0.27091282  0.40580274  1
  O  O272  1  0.25304068  0.26804399  0.75015642  1
  O  O273  1  0.25419100  0.77262128  0.08285295  1
  O  O274  1  0.25753126  0.76942413  0.40955803  1
  O  O275  1  0.25169555  0.77180845  0.75335384  1
  O  O276  1  0.58988769  0.27671386  0.07355180  1
  O  O277  1  0.58872074  0.26876601  0.40317559  1
  O  O278  1  0.58457655  0.25639836  0.75330077  1
  O  O279  1  0.58412277  0.76990749  0.07765693  1
  O  O280  1  0.58484092  0.77086047  0.41196439  1
  O  O281  1  0.57901635  0.75974637  0.75704440  1
  O  O282  1  0.91996949  0.27528695  0.07783300  1
  O  O283  1  0.92158849  0.27588830  0.41299016  1
  O  O284  1  0.92427247  0.27493973  0.74494162  1
  O  O285  1  0.90773934  0.75992006  0.08595701  1
  O  O286  1  0.91284549  0.75798932  0.42340042  1
  O  O287  1  0.92376205  0.76642642  0.74392120  1
  O  O288  1  0.25433145  0.47233184  0.08077980  1
  O  O289  1  0.25329612  0.47596583  0.40915458  1
  O  O290  1  0.25383388  0.48130663  0.75019751  1
  O  O291  1  0.25585123  0.97789463  0.08100704  1
  O  O292  1  0.25905088  0.98382163  0.40587238  1
  O  O293  1  0.25048631  0.97961134  0.75122414  1
  O  O294  1  0.58822867  0.47937854  0.07634225  1
  O  O295  1  0.58883824  0.48502904  0.40886644  1
  O  O296  1  0.58162936  0.49308534  0.75703593  1
  O  O297  1  0.58691091  0.97510634  0.07387874  1
  O  O298  1  0.58594441  0.97797322  0.40532009  1
  O  O299  1  0.58256111  0.98933757  0.75276014  1
  O  O300  1  0.91952333  0.47672254  0.07342083  1
  O  O301  1  0.92211024  0.48313525  0.40884046  1
  O  O302  1  0.92528168  0.48174157  0.74139264  1
  O  O303  1  0.90923085  0.98523168  0.08434870  1
  O  O304  1  0.91726327  0.98457538  0.41838608  1
  O  O305  1  0.92302580  0.97664919  0.74539705  1
  O  O306  1  0.08886979  0.27288368  0.09089915  1
  O  O307  1  0.08712782  0.27722718  0.41914510  1
  O  O308  1  0.08601524  0.27260318  0.75502265  1
  O  O309  1  0.09525853  0.75815697  0.09522647  1
  O  O310  1  0.09658964  0.76496355  0.43036168  1
  O  O311  1  0.08958812  0.76931830  0.75410422  1
  O  O312  1  0.42208661  0.27519966  0.08986963  1
  O  O313  1  0.42063711  0.27171041  0.41794668  1
  O  O314  1  0.42322382  0.25821309  0.75617014  1
  O  O315  1  0.41829125  0.77392276  0.08241530  1
  O  O316  1  0.42265298  0.77247070  0.42213942  1
  O  O317  1  0.42056672  0.76965026  0.75570707  1
  O  O318  1  0.75401953  0.27456595  0.08599057  1
  O  O319  1  0.75834980  0.27259881  0.41866902  1
  O  O320  1  0.76286868  0.26807307  0.76575106  1
  O  O321  1  0.74910391  0.77418155  0.08637502  1
  O  O322  1  0.75149753  0.76892212  0.41510507  1
  O  O323  1  0.75986590  0.76256152  0.76285151  1
  O  O324  1  0.24118246  0.02206336  0.24013616  1
  O  O325  1  0.24830976  0.00343528  0.57868922  1
  O  O326  1  0.25067913  -0.00025220  0.91507150  1
  O  O327  1  0.24139432  0.52282205  0.24724016  1
  O  O328  1  0.24403118  0.51783224  0.57644695  1
  O  O329  1  0.25543569  0.50877737  0.92075865  1
  O  O330  1  0.56660999  0.01021872  0.23394028  1
  O  O331  1  0.58113805  0.00684191  0.58116116  1
  O  O332  1  0.58192746  0.02804622  0.91070246  1
  O  O333  1  0.58103748  0.50709972  0.24652996  1
  O  O334  1  0.57889578  0.50462858  0.58295246  1
  O  O335  1  0.57875577  0.52115760  0.91525710  1
  O  O336  1  0.91611756  0.00728027  0.25157618  1
  O  O337  1  0.91238440  0.00356929  0.58202285  1
  O  O338  1  0.90316976  0.00674856  0.90676773  1
  O  O339  1  0.91166982  0.52350008  0.24416913  1
  O  O340  1  0.91649032  0.52586961  0.57710890  1
  O  O341  1  0.90497436  0.52397998  0.91170261  1
  O  O342  1  0.07830984  0.23432528  0.25673390  1
  O  O343  1  0.08008525  0.25260801  0.58366046  1
  O  O344  1  0.07609207  0.24895787  0.92064579  1
  O  O345  1  0.08169135  0.72386074  0.25969524  1
  O  O346  1  0.07770226  0.72573745  0.59178659  1
  O  O347  1  0.07627833  0.72816708  0.92977741  1
  O  O348  1  0.40390025  0.23728598  0.25848594  1
  O  O349  1  0.41262413  0.24060836  0.58763745  1
  O  O350  1  0.42026186  0.23601170  0.91681838  1
  O  O351  1  0.40320902  0.73643304  0.25846674  1
  O  O352  1  0.40476868  0.73408189  0.58990159  1
  O  O353  1  0.41636803  0.72552083  0.91655151  1
  O  O354  1  0.74550237  0.24921833  0.25323360  1
  O  O355  1  0.74623187  0.23627496  0.59783865  1
  O  O356  1  0.73725208  0.23287012  0.92561506  1
  O  O357  1  0.75187287  0.73374400  0.24834811  1
  O  O358  1  0.75756013  0.73917892  0.57879816  1
  O  O359  1  0.74299918  0.72965939  0.92582568  1
