# generated using pymatgen
data_Ba17Sr5La8Pr42Mn72O216
_symmetry_space_group_name_H-M   'P 1'
_cell_length_a   16.66904021
_cell_length_b   15.70838015
_cell_length_c   16.81914306
_cell_angle_alpha   90.01319236
_cell_angle_beta   89.97076377
_cell_angle_gamma   90.02370516
_symmetry_Int_Tables_number   1
_chemical_formula_structural   Ba17Sr5La8Pr42Mn72O216
_chemical_formula_sum   'Ba17 Sr5 La8 Pr42 Mn72 O216'
_cell_volume   4403.98424589
_cell_formula_units_Z   1
loop_
 _symmetry_equiv_pos_site_id
 _symmetry_equiv_pos_as_xyz
  1  'x, y, z'
loop_
 _atom_site_type_symbol
 _atom_site_label
 _atom_site_symmetry_multiplicity
 _atom_site_fract_x
 _atom_site_fract_y
 _atom_site_fract_z
 _atom_site_occupancy
  Ba  Ba0  1  0.83339208  0.37390436  0.16170506  1
  Ba  Ba1  1  0.33188923  0.62701090  0.66986345  1
  Ba  Ba2  1  0.83547750  0.87441784  0.49835899  1
  Ba  Ba3  1  0.49749990  0.37496589  0.83358849  1
  Ba  Ba4  1  0.33316959  0.12533703  0.33411191  1
  Ba  Ba5  1  0.00014435  0.62656241  0.33193934  1
  Ba  Ba6  1  0.50008024  0.12559931  0.16881546  1
  Ba  Ba7  1  0.00058643  0.87645065  0.66950229  1
  Ba  Ba8  1  0.33316167  0.37584572  0.00212682  1
  Ba  Ba9  1  0.66758969  0.12495996  0.32989918  1
  Ba  Ba10  1  0.83502251  0.87477126  0.83053058  1
  Ba  Ba11  1  0.16877684  0.37537966  0.50230483  1
  Ba  Ba12  1  0.16575382  0.62632304  0.16786452  1
  Ba  Ba13  1  0.16859726  0.12629871  0.50451352  1
  Ba  Ba14  1  0.66621805  0.62488353  0.99784251  1
  Ba  Ba15  1  0.66625388  0.12718767  0.66152658  1
  Ba  Ba16  1  0.83254240  0.62398702  0.49677493  1
  Sr  Sr17  1  0.32770759  0.62361062  0.99844228  1
  Sr  Sr18  1  0.33511137  0.37469284  0.33297800  1
  Sr  Sr19  1  0.49727630  0.37113004  0.16437827  1
  Sr  Sr20  1  0.00097909  0.12340002  0.66524554  1
  Sr  Sr21  1  0.00361024  0.87382286  0.33856587  1
  La  La22  1  0.16918666  0.87498063  0.83292663  1
  La  La23  1  0.50392857  0.87845061  0.16596022  1
  La  La24  1  0.67167487  0.87433556  -0.00044108  1
  La  La25  1  0.66717928  0.62623941  0.32754416  1
  La  La26  1  0.83333916  0.12461994  0.16622061  1
  La  La27  1  -0.00506293  0.62360321  1.00169604  1
  La  La28  1  0.16714432  0.37783072  0.83344361  1
  La  La29  1  0.67339734  0.87497348  0.66559349  1
  Pr  Pr30  1  0.16841763  0.87479505  0.50156418  1
  Pr  Pr31  1  0.16849369  0.37561082  0.16946426  1
  Pr  Pr32  1  0.66483044  0.62393809  0.66478188  1
  Pr  Pr33  1  0.82897323  0.62910109  0.83267050  1
  Pr  Pr34  1  0.00182760  0.37755734  0.33612172  1
  Pr  Pr35  1  0.16287588  0.62486622  0.50309882  1
  Pr  Pr36  1  0.00103284  0.12383155  0.33548135  1
  Pr  Pr37  1  0.49800115  0.62327069  0.50216743  1
  Pr  Pr38  1  -0.00280316  0.37331497  0.66709900  1
  Pr  Pr39  1  -0.00119792  0.62657898  0.66524773  1
  Pr  Pr40  1  0.84025206  0.12304690  0.50185596  1
  Pr  Pr41  1  0.49328844  0.62036909  0.16708171  1
  Pr  Pr42  1  0.83095274  0.62542348  0.17170469  1
  Pr  Pr43  1  0.33685383  0.12797388  0.66284352  1
  Pr  Pr44  1  0.83388404  0.11992345  0.83030899  1
  Pr  Pr45  1  0.83762435  0.87574810  0.16540020  1
  Pr  Pr46  1  0.83077333  0.37119341  0.49106561  1
  Pr  Pr47  1  0.15987854  0.62585061  0.84228263  1
  Pr  Pr48  1  0.33022737  0.37630064  0.67171896  1
  Pr  Pr49  1  0.33476449  0.87804936  0.67025792  1
  Pr  Pr50  1  0.49913776  0.37554877  0.49881797  1
  Pr  Pr51  1  0.33520254  0.87549610  0.33571853  1
  Pr  Pr52  1  0.17126916  0.87343855  0.16966663  1
  Pr  Pr53  1  0.33816566  0.87098905  0.00442680  1
  Pr  Pr54  1  0.50034569  0.12611032  0.49995570  1
  Pr  Pr55  1  0.00226576  0.37244896  0.00591866  1
  Pr  Pr56  1  0.50245377  0.87507808  0.49836019  1
  Pr  Pr57  1  0.49019968  0.62343584  0.84091649  1
  Pr  Pr58  1  0.16677726  0.12572967  0.17471080  1
  Pr  Pr59  1  0.50455724  0.87240966  0.82944701  1
  Pr  Pr60  1  0.33429839  0.12593754  1.00173692  1
  Pr  Pr61  1  0.16407984  0.12628024  0.83506856  1
  Pr  Pr62  1  0.65933011  0.37555246  0.32795727  1
  Pr  Pr63  1  0.50001127  0.12530426  0.83730346  1
  Pr  Pr64  1  0.66776373  0.13016675  0.99418414  1
  Pr  Pr65  1  0.83020470  0.37449113  0.83119446  1
  Pr  Pr66  1  0.66834630  0.87538895  0.33374597  1
  Pr  Pr67  1  0.00339788  0.87870522  0.00324203  1
  Pr  Pr68  1  0.66511377  0.37673387  0.66477782  1
  Pr  Pr69  1  0.32869404  0.62192225  0.33291623  1
  Pr  Pr70  1  0.65834155  0.37656203  0.00467674  1
  Pr  Pr71  1  -0.00174615  0.12728684  0.99898879  1
  Mn  Mn72  1  0.00155868  0.00017461  0.16864583  1
  Mn  Mn73  1  0.00287619  -0.00089358  0.50036447  1
  Mn  Mn74  1  0.00186630  0.00416685  0.83523457  1
  Mn  Mn75  1  -0.00041307  0.49851314  0.16613437  1
  Mn  Mn76  1  -0.00043098  0.49977110  0.50237650  1
  Mn  Mn77  1  -0.00262928  0.49725575  0.83432133  1
  Mn  Mn78  1  0.33216799  -0.00321537  0.16654031  1
  Mn  Mn79  1  0.33592298  -0.00139191  0.50289954  1
  Mn  Mn80  1  0.33335189  0.00102120  0.83484838  1
  Mn  Mn81  1  0.33248630  0.50073743  0.16780983  1
  Mn  Mn82  1  0.33402382  0.50146664  0.50090098  1
  Mn  Mn83  1  0.33041870  0.50097744  0.83534912  1
  Mn  Mn84  1  0.66920453  -0.00259272  0.16363644  1
  Mn  Mn85  1  0.66615075  -0.00002302  0.49723053  1
  Mn  Mn86  1  0.66538285  0.00157624  0.83130582  1
  Mn  Mn87  1  0.66527341  0.50070910  0.16439254  1
  Mn  Mn88  1  0.66547925  0.49974541  0.49779148  1
  Mn  Mn89  1  0.66651205  0.49809827  0.83121212  1
  Mn  Mn90  1  0.00148212  0.24703309  0.16796894  1
  Mn  Mn91  1  -0.00067718  0.25068579  0.50149172  1
  Mn  Mn92  1  -0.00122048  0.25089851  0.83429202  1
  Mn  Mn93  1  0.00011468  0.75473973  0.16679534  1
  Mn  Mn94  1  0.00152103  0.74974132  0.50128440  1
  Mn  Mn95  1  -0.00027190  0.74846848  0.83536781  1
  Mn  Mn96  1  0.33190823  0.25080581  0.16770847  1
  Mn  Mn97  1  0.33589757  0.25148821  0.50177132  1
  Mn  Mn98  1  0.33100635  0.24692281  0.83330689  1
  Mn  Mn99  1  0.33490761  0.74918313  0.16855596  1
  Mn  Mn100  1  0.33472212  0.75092893  0.50095410  1
  Mn  Mn101  1  0.33198979  0.75260076  0.83633093  1
  Mn  Mn102  1  0.66680288  0.24993372  0.16298979  1
  Mn  Mn103  1  0.66592346  0.25154441  0.49561943  1
  Mn  Mn104  1  0.66655003  0.25119653  0.83012345  1
  Mn  Mn105  1  0.66723631  0.75055145  0.16549155  1
  Mn  Mn106  1  0.66461709  0.74838755  0.49813759  1
  Mn  Mn107  1  0.66486210  0.74938654  0.83073698  1
  Mn  Mn108  1  0.16645364  0.24709669  0.00370289  1
  Mn  Mn109  1  0.16635900  0.24962836  0.33477010  1
  Mn  Mn110  1  0.16619548  0.25146396  0.67115139  1
  Mn  Mn111  1  0.16392210  0.75248417  0.00068719  1
  Mn  Mn112  1  0.16907627  0.75236384  0.33673901  1
  Mn  Mn113  1  0.16743931  0.74944465  0.66965360  1
  Mn  Mn114  1  0.49928002  0.24780433  0.00054081  1
  Mn  Mn115  1  0.49936371  0.25347252  0.33272215  1
  Mn  Mn116  1  0.49908499  0.25139320  0.66535830  1
  Mn  Mn117  1  0.49903027  0.75143983  -0.00045606  1
  Mn  Mn118  1  0.49985560  0.74813126  0.33292980  1
  Mn  Mn119  1  0.50112120  0.75026537  0.66636712  1
  Mn  Mn120  1  0.83334607  0.24850258  -0.00530909  1
  Mn  Mn121  1  0.83404546  0.24980973  0.33073154  1
  Mn  Mn122  1  0.83392169  0.25230650  0.66280727  1
  Mn  Mn123  1  0.83581377  0.75115461  0.00017097  1
  Mn  Mn124  1  0.83327190  0.75113749  0.33078992  1
  Mn  Mn125  1  0.83276366  0.74703422  0.66626456  1
  Mn  Mn126  1  0.16724364  0.00065299  0.00257391  1
  Mn  Mn127  1  0.16681543  -0.00115157  0.33521919  1
  Mn  Mn128  1  0.16876611  -0.00009028  0.66947811  1
  Mn  Mn129  1  0.16401056  0.49901485  0.00176004  1
  Mn  Mn130  1  0.16753354  0.49859396  0.33535446  1
  Mn  Mn131  1  0.16569179  0.50089564  0.67016960  1
  Mn  Mn132  1  0.50075750  -0.00076032  -0.00208342  1
  Mn  Mn133  1  0.50076790  -0.00267132  0.33260317  1
  Mn  Mn134  1  0.50022858  -0.00103707  0.66685873  1
  Mn  Mn135  1  0.49785537  0.50145333  0.00182292  1
  Mn  Mn136  1  0.49930550  0.50143015  0.33398840  1
  Mn  Mn137  1  0.49929342  0.50194577  0.66684847  1
  Mn  Mn138  1  0.83427577  0.00055178  -0.00074993  1
  Mn  Mn139  1  0.83557819  0.00093191  0.33166469  1
  Mn  Mn140  1  0.83400886  0.00241326  0.66548446  1
  Mn  Mn141  1  0.83380243  0.50012202  -0.00388311  1
  Mn  Mn142  1  0.83271369  0.49734273  0.33067767  1
  Mn  Mn143  1  0.83253679  0.49708850  0.66523611  1
  O  O144  1  0.16572894  0.12126900  0.03174978  1
  O  O145  1  0.16162344  0.12378033  0.34615149  1
  O  O146  1  0.17251486  0.12582115  0.68941152  1
  O  O147  1  0.15860730  0.62748155  0.01114434  1
  O  O148  1  0.17446355  0.62868380  0.35722779  1
  O  O149  1  0.15813629  0.62388161  0.69598119  1
  O  O150  1  0.50352424  0.12128293  0.01212392  1
  O  O151  1  0.50073111  0.12660233  0.35544364  1
  O  O152  1  0.49481099  0.12425165  0.69324710  1
  O  O153  1  0.49663901  0.63054426  0.02010408  1
  O  O154  1  0.50332982  0.62726664  0.36119825  1
  O  O155  1  0.50966305  0.62908440  0.69707045  1
  O  O156  1  0.82759095  0.12360955  0.02241029  1
  O  O157  1  0.83529278  0.12714484  0.35677478  1
  O  O158  1  0.83314242  0.13175890  0.68666229  1
  O  O159  1  0.83831285  0.63033860  0.02714766  1
  O  O160  1  0.82480074  0.62373528  0.33784382  1
  O  O161  1  0.82850808  0.61814386  0.68913647  1
  O  O162  1  0.16206754  0.37122509  0.31482892  1
  O  O163  1  0.17813260  0.37669903  0.66019223  1
  O  O164  1  0.15945565  0.37061356  0.97720178  1
  O  O165  1  0.17285827  0.87576757  0.31454155  1
  O  O166  1  0.17310422  0.87274204  0.64757671  1
  O  O167  1  0.16111925  0.87914126  0.97430981  1
  O  O168  1  0.50319728  0.38102155  0.31345640  1
  O  O169  1  0.49718833  0.37641149  0.64395715  1
  O  O170  1  0.50544042  0.37273363  0.99184884  1
  O  O171  1  0.49802816  0.86674254  0.30766221  1
  O  O172  1  0.49408756  0.87289673  0.64188916  1
  O  O173  1  0.49657081  0.87653174  0.97335484  1
  O  O174  1  0.84626246  0.37220041  0.31771942  1
  O  O175  1  0.83699466  0.37544716  0.63559803  1
  O  O176  1  0.84341954  0.36960696  0.97381739  1
  O  O177  1  0.83003568  0.87626638  0.31074575  1
  O  O178  1  0.82730272  0.87322209  0.65795619  1
  O  O179  1  0.84141825  0.87732988  0.98443204  1
  O  O180  1  0.00164418  0.36717571  0.19065795  1
  O  O181  1  -0.01033790  0.37581171  0.52135698  1
  O  O182  1  -0.00808752  0.37359801  0.86458783  1
  O  O183  1  -0.01186187  0.88090136  0.18930104  1
  O  O184  1  0.00771597  0.87296055  0.51170119  1
  O  O185  1  0.00410202  0.88058921  0.85768658  1
  O  O186  1  0.32776363  0.37842318  0.18112711  1
  O  O187  1  0.34395483  0.37709728  0.52756909  1
  O  O188  1  0.32456396  0.37363037  0.84369093  1
  O  O189  1  0.32994854  0.87159737  0.18984614  1
  O  O190  1  0.33851155  0.87341796  0.52797895  1
  O  O191  1  0.33142295  0.87954011  0.86221215  1
  O  O192  1  0.66223583  0.37857119  0.18123161  1
  O  O193  1  0.66631477  0.37716648  0.52255842  1
  O  O194  1  0.67251080  0.37453778  0.86022994  1
  O  O195  1  0.66704851  0.87270411  0.18844689  1
  O  O196  1  0.65933396  0.87193679  0.52268595  1
  O  O197  1  0.65982111  0.87892122  0.85570678  1
  O  O198  1  0.01079814  0.12193794  0.14090471  1
  O  O199  1  -0.00279725  0.12627838  0.48107044  1
  O  O200  1  0.00943552  0.12935681  0.81353405  1
  O  O201  1  -0.00337830  0.63030202  0.14574625  1
  O  O202  1  0.01034572  0.62326342  0.49106137  1
  O  O203  1  0.00997920  0.61673655  0.80946951  1
  O  O204  1  0.32392605  0.11813625  0.14654313  1
  O  O205  1  0.33965794  0.12282679  0.49081254  1
  O  O206  1  0.33630588  0.12150238  0.80616884  1
  O  O207  1  0.33901325  0.62874585  0.14833563  1
  O  O208  1  0.33702042  0.62933923  0.47587551  1
  O  O209  1  0.33464821  0.62680363  0.82704041  1
  O  O210  1  0.67376409  0.11947505  0.14001644  1
  O  O211  1  0.65828869  0.12673350  0.48499058  1
  O  O212  1  0.66163138  0.12596998  0.81791507  1
  O  O213  1  0.67500163  0.62661322  0.15426701  1
  O  O214  1  0.65831957  0.62320271  0.47217459  1
  O  O215  1  0.67205295  0.61952713  0.80930055  1
  O  O216  1  0.07774239  0.01762766  0.25247949  1
  O  O217  1  0.08637504  0.00873544  0.59001136  1
  O  O218  1  0.08047937  0.02431617  0.92548812  1
  O  O219  1  0.08218338  0.50193921  0.25113038  1
  O  O220  1  0.08298571  0.51439530  0.58956868  1
  O  O221  1  0.07745625  0.51483237  0.91932925  1
  O  O222  1  0.41373185  0.00132145  0.25036322  1
  O  O223  1  0.41808918  0.02058696  0.58736814  1
  O  O224  1  0.41286696  0.02469481  0.91693514  1
  O  O225  1  0.41545331  0.52378062  0.25616732  1
  O  O226  1  0.42066488  0.52046302  0.58118526  1
  O  O227  1  0.41366329  0.51446549  0.91810202  1
  O  O228  1  0.75951096  0.01102173  0.23809779  1
  O  O229  1  0.75272127  0.01370200  0.57365864  1
  O  O230  1  0.74744124  0.02065822  0.91516407  1
  O  O231  1  0.74472614  0.50996644  0.25042705  1
  O  O232  1  0.74044082  0.51430993  0.58732575  1
  O  O233  1  0.75613948  0.51364551  0.90600980  1
  O  O234  1  0.24302760  0.23929641  0.24597555  1
  O  O235  1  0.26104844  0.24223270  0.59729739  1
  O  O236  1  0.25023558  0.22166702  0.92399867  1
  O  O237  1  0.25581516  0.73746895  0.25887508  1
  O  O238  1  0.24059733  0.73436594  0.57635519  1
  O  O239  1  0.23681887  0.73929360  0.91088067  1
  O  O240  1  0.58649383  0.24714654  0.25255102  1
  O  O241  1  0.57828387  0.24166306  0.57632157  1
  O  O242  1  0.58389703  0.23261033  0.91758534  1
  O  O243  1  0.57894453  0.72856106  0.24917894  1
  O  O244  1  0.58110571  0.72587507  0.58184291  1
  O  O245  1  0.57152335  0.73558896  0.90283078  1
  O  O246  1  0.92115404  0.22240396  0.25052532  1
  O  O247  1  0.91749137  0.22996269  0.58358510  1
  O  O248  1  0.91520930  0.22047730  0.91286772  1
  O  O249  1  0.90569531  0.73961436  0.23576680  1
  O  O250  1  0.91773483  0.73421837  0.58760250  1
  O  O251  1  0.91355358  0.72505452  0.91477826  1
  O  O252  1  0.08358241  0.47575127  0.08514088  1
  O  O253  1  0.08036304  0.48544029  0.41655309  1
  O  O254  1  0.07841747  0.47126864  0.75395179  1
  O  O255  1  0.08600162  0.97274773  0.09277416  1
  O  O256  1  0.09040144  0.98308268  0.42192713  1
  O  O257  1  0.09414990  0.98998111  0.76311615  1
  O  O258  1  0.42081915  0.49414871  0.09227703  1
  O  O259  1  0.42311518  0.48625947  0.42219305  1
  O  O260  1  0.41376608  0.48967320  0.74742645  1
  O  O261  1  0.41661077  0.97838306  0.08251349  1
  O  O262  1  0.42028831  0.97706820  0.42115043  1
  O  O263  1  0.41760106  0.97553568  0.75446996  1
  O  O264  1  0.74747104  0.48342808  0.07213231  1
  O  O265  1  0.74884534  0.47685549  0.41569948  1
  O  O266  1  0.75066457  0.47143034  0.74697339  1
  O  O267  1  0.75162587  0.97479385  0.08072464  1
  O  O268  1  0.74459027  0.98423581  0.40872788  1
  O  O269  1  0.74535925  0.99096024  0.74729548  1
  O  O270  1  0.24267169  0.26290874  0.08892405  1
  O  O271  1  0.25359159  0.26146156  0.41855641  1
  O  O272  1  0.23918139  0.26014681  0.76363647  1
  O  O273  1  0.25022270  0.77183108  0.07909796  1
  O  O274  1  0.25534758  0.77686200  0.41879904  1
  O  O275  1  0.25653697  0.77221042  0.74600746  1
  O  O276  1  0.58515826  0.26050945  0.07980790  1
  O  O277  1  0.58249925  0.27600667  0.41622159  1
  O  O278  1  0.58449915  0.26850873  0.74355465  1
  O  O279  1  0.58756310  0.77287517  0.07734796  1
  O  O280  1  0.58173339  0.77392583  0.41367796  1
  O  O281  1  0.58668370  0.77652930  0.74147979  1
  O  O282  1  0.92253199  0.25569485  0.07611349  1
  O  O283  1  0.91108062  0.26453931  0.41999471  1
  O  O284  1  0.91351397  0.27468398  0.74902907  1
  O  O285  1  0.92444929  0.77302838  0.07659993  1
  O  O286  1  0.91877608  0.75808817  0.40893366  1
  O  O287  1  0.91971143  0.74629610  0.75100982  1
  O  O288  1  0.24355072  0.48783291  0.08682970  1
  O  O289  1  0.25657059  0.49163722  0.41503326  1
  O  O290  1  0.24839526  0.48784967  0.75228602  1
  O  O291  1  0.25370964  0.97257963  0.07878700  1
  O  O292  1  0.25545138  0.97752971  0.41982887  1
  O  O293  1  0.25382214  0.97688115  0.75212214  1
  O  O294  1  0.58425136  0.48958069  0.08168458  1
  O  O295  1  0.58525389  0.47741831  0.41416706  1
  O  O296  1  0.59116782  0.48311668  0.74034096  1
  O  O297  1  0.58756982  0.97567882  0.07931984  1
  O  O298  1  0.58405686  0.97436715  0.41479304  1
  O  O299  1  0.58197717  0.97698497  0.74735395  1
  O  O300  1  0.92560885  0.48610631  0.07175293  1
  O  O301  1  0.91627775  0.48337037  0.41605925  1
  O  O302  1  0.91540132  0.47492113  0.75282684  1
  O  O303  1  0.92224060  0.98709333  0.08353192  1
  O  O304  1  0.92145984  0.99458085  0.41012809  1
  O  O305  1  0.91846541  1.00093209  0.75380303  1
  O  O306  1  0.08397986  0.27149257  0.08640827  1
  O  O307  1  0.07363885  0.26395889  0.40988372  1
  O  O308  1  0.07956826  0.27567481  0.75454966  1
  O  O309  1  0.08570293  0.77844018  0.08662166  1
  O  O310  1  0.09529800  0.76285714  0.42716634  1
  O  O311  1  0.09417938  0.76428361  0.76289586  1
  O  O312  1  0.41193190  0.24971834  0.07919889  1
  O  O313  1  0.42262128  0.26881639  0.42248650  1
  O  O314  1  0.40521352  0.26360435  0.73812552  1
  O  O315  1  0.42257831  0.77458023  0.08789391  1
  O  O316  1  0.41920452  0.77348907  0.41442402  1
  O  O317  1  0.42234523  0.77044977  0.75380093  1
  O  O318  1  0.74263236  0.26456836  0.06551880  1
  O  O319  1  0.74429843  0.27516505  0.40590394  1
  O  O320  1  0.74919875  0.27588885  0.74178641  1
  O  O321  1  0.75730806  0.77295301  0.08467505  1
  O  O322  1  0.74312725  0.76305901  0.40929963  1
  O  O323  1  0.74659263  0.75662313  0.74763113  1
  O  O324  1  0.24084018  0.00876971  0.24167818  1
  O  O325  1  0.25819308  0.00962570  0.59229573  1
  O  O326  1  0.24829176  0.02620233  0.91363603  1
  O  O327  1  0.25331503  0.51341173  0.25395260  1
  O  O328  1  0.24666800  0.51826268  0.57859930  1
  O  O329  1  0.23961742  0.51318551  0.91349440  1
  O  O330  1  0.58583328  0.00148849  0.24720480  1
  O  O331  1  0.57619956  0.01123566  0.57481735  1
  O  O332  1  0.58129261  0.01945601  0.91181663  1
  O  O333  1  0.57966859  0.52350771  0.25028917  1
  O  O334  1  0.58028096  0.52089055  0.57967001  1
  O  O335  1  0.57727136  0.51524062  0.90832159  1
  O  O336  1  0.91849116  0.02737082  0.24523488  1
  O  O337  1  0.91621397  0.01637926  0.57941787  1
  O  O338  1  0.91708378  0.02678018  0.91724630  1
  O  O339  1  0.91084757  0.51525193  0.23948487  1
  O  O340  1  0.92172906  0.51672784  0.59189923  1
  O  O341  1  0.91371454  0.52806496  0.91112221  1
  O  O342  1  0.08230120  0.22818819  0.24912837  1
  O  O343  1  0.08279514  0.24671790  0.59171285  1
  O  O344  1  0.08388935  0.22753726  0.92259776  1
  O  O345  1  0.08357401  0.75050108  0.25076560  1
  O  O346  1  0.08252058  0.72983529  0.59341457  1
  O  O347  1  0.07412820  0.73353269  0.92480704  1
  O  O348  1  0.41515106  0.24596395  0.25078657  1
  O  O349  1  0.42197800  0.22712238  0.58137554  1
  O  O350  1  0.41723325  0.22790123  0.91197923  1
  O  O351  1  0.41950333  0.72332593  0.25542444  1
  O  O352  1  0.42205309  0.73174726  0.57974231  1
  O  O353  1  0.41033698  0.73769172  0.92385159  1
  O  O354  1  0.75797195  0.23584939  0.23790072  1
  O  O355  1  0.75897538  0.23860530  0.56689056  1
  O  O356  1  0.75516082  0.22745279  0.90773899  1
  O  O357  1  0.74664974  0.73646263  0.24973820  1
  O  O358  1  0.74237611  0.73439556  0.58726609  1
  O  O359  1  0.75086049  0.73992106  0.91625458  1
