# generated using pymatgen
data_Ba17Sr5La8Pr42Mn72O216
_symmetry_space_group_name_H-M   'P 1'
_cell_length_a   16.66784928
_cell_length_b   15.70756006
_cell_length_c   16.80804706
_cell_angle_alpha   89.99414356
_cell_angle_beta   89.99315585
_cell_angle_gamma   89.98110835
_symmetry_Int_Tables_number   1
_chemical_formula_structural   Ba17Sr5La8Pr42Mn72O216
_chemical_formula_sum   'Ba17 Sr5 La8 Pr42 Mn72 O216'
_cell_volume   4400.53541038
_cell_formula_units_Z   1
loop_
 _symmetry_equiv_pos_site_id
 _symmetry_equiv_pos_as_xyz
  1  'x, y, z'
loop_
 _atom_site_type_symbol
 _atom_site_label
 _atom_site_symmetry_multiplicity
 _atom_site_fract_x
 _atom_site_fract_y
 _atom_site_fract_z
 _atom_site_occupancy
  Ba  Ba0  1  0.16456797  0.37391779  0.16558013  1
  Ba  Ba1  1  0.66888536  0.12702114  0.33024590  1
  Ba  Ba2  1  0.83298058  0.62483488  0.17084899  1
  Ba  Ba3  1  0.49967636  0.87414553  0.16225031  1
  Ba  Ba4  1  0.49838281  0.37367750  0.49465767  1
  Ba  Ba5  1  0.66699708  0.87528349  0.66695352  1
  Ba  Ba6  1  0.49986544  0.37565454  0.16353388  1
  Ba  Ba7  1  0.00069448  0.87781784  0.00316036  1
  Ba  Ba8  1  0.33214648  0.37550289  0.00267887  1
  Ba  Ba9  1  -0.00112399  0.87581682  0.33503345  1
  Ba  Ba10  1  0.50077255  0.87458801  0.82862279  1
  Ba  Ba11  1  0.00096817  0.87551049  0.67139272  1
  Ba  Ba12  1  0.16489198  0.62437489  0.50074538  1
  Ba  Ba13  1  0.00032096  0.62402325  0.66679718  1
  Ba  Ba14  1  0.32997323  0.62599433  0.33428806  1
  Ba  Ba15  1  0.66829426  0.12570931  0.99754076  1
  Ba  Ba16  1  0.16737587  0.87545090  0.83410735  1
  Sr  Sr17  1  0.66530366  0.37558813  0.33341540  1
  Sr  Sr18  1  -0.00110489  0.62537888  0.33403546  1
  Sr  Sr19  1  0.00533201  0.12571684  1.00123846  1
  Sr  Sr20  1  0.33182123  0.87367330  0.67071069  1
  Sr  Sr21  1  0.33363155  0.87574051  -0.00124719  1
  La  La22  1  0.16314733  0.62574139  0.17156211  1
  La  La23  1  0.66139053  0.62076715  0.33034321  1
  La  La24  1  0.50299213  0.12549614  0.16294136  1
  La  La25  1  0.66676131  0.37517694  0.00219144  1
  La  La26  1  0.83383325  0.87359026  0.50207169  1
  La  La27  1  0.66989493  0.12447582  0.66450409  1
  La  La28  1  0.33158646  0.62544552  1.00327550  1
  La  La29  1  0.83392367  0.62815829  0.83930557  1
  Pr  Pr30  1  0.49488449  0.62809221  0.82917642  1
  Pr  Pr31  1  0.33142531  0.63092659  0.66136968  1
  Pr  Pr32  1  0.00275791  0.62253545  0.99811467  1
  Pr  Pr33  1  0.32942894  0.87393951  0.33472511  1
  Pr  Pr34  1  0.50240461  0.37283869  0.82591430  1
  Pr  Pr35  1  0.17184369  0.12277171  0.50243632  1
  Pr  Pr36  1  0.34156498  0.11989299  0.66422339  1
  Pr  Pr37  1  0.50224468  0.12105688  0.83201154  1
  Pr  Pr38  1  0.16738722  0.87138214  0.16126921  1
  Pr  Pr39  1  0.83375237  0.87868138  0.83268769  1
  Pr  Pr40  1  0.17564057  0.12013944  0.83765363  1
  Pr  Pr41  1  0.16160025  0.87208842  0.50158754  1
  Pr  Pr42  1  -0.00392070  0.37805433  0.66776597  1
  Pr  Pr43  1  0.15760391  0.37546329  0.49520410  1
  Pr  Pr44  1  0.17409015  0.12195147  0.16510790  1
  Pr  Pr45  1  0.83279351  0.37329396  0.83590854  1
  Pr  Pr46  1  0.83811207  0.12496074  0.50447678  1
  Pr  Pr47  1  0.32744475  0.37731472  0.33507963  1
  Pr  Pr48  1  0.66881537  0.87412750  0.00011769  1
  Pr  Pr49  1  0.49322775  0.62310869  0.50001392  1
  Pr  Pr50  1  0.66750973  0.37561273  0.66603408  1
  Pr  Pr51  1  0.83054008  0.37667609  0.49893262  1
  Pr  Pr52  1  -0.00642108  0.37664249  0.33414727  1
  Pr  Pr53  1  0.00962388  0.12672797  0.66816887  1
  Pr  Pr54  1  0.66195459  0.62590755  0.66260556  1
  Pr  Pr55  1  0.83963741  0.12360594  0.17025566  1
  Pr  Pr56  1  0.33912768  0.12690117  0.32922265  1
  Pr  Pr57  1  0.66725662  0.87268828  0.33643583  1
  Pr  Pr58  1  0.83869436  0.12274698  0.84077668  1
  Pr  Pr59  1  0.49800351  0.87625954  0.49374190  1
  Pr  Pr60  1  0.49421721  0.62501721  0.16602153  1
  Pr  Pr61  1  0.33128423  0.37762701  0.67087570  1
  Pr  Pr62  1  0.15992252  0.37170187  0.83376973  1
  Pr  Pr63  1  0.50944430  0.12613243  0.49757558  1
  Pr  Pr64  1  -0.00532358  0.37272283  0.00734653  1
  Pr  Pr65  1  0.16874531  0.62854195  0.83255518  1
  Pr  Pr66  1  0.66112932  0.62414636  0.99777601  1
  Pr  Pr67  1  0.83183569  0.62619839  0.50315544  1
  Pr  Pr68  1  0.33908642  0.12498572  0.99894886  1
  Pr  Pr69  1  0.00642140  0.12754460  0.33105497  1
  Pr  Pr70  1  0.82867769  0.37343854  0.16906599  1
  Pr  Pr71  1  0.83030086  0.87514959  0.16922943  1
  Mn  Mn72  1  0.00193138  0.00212491  0.16959420  1
  Mn  Mn73  1  0.00009658  0.00271884  0.50223174  1
  Mn  Mn74  1  0.00121506  0.00316494  0.83569858  1
  Mn  Mn75  1  -0.00218936  0.49962585  0.16757463  1
  Mn  Mn76  1  -0.00360767  0.49897090  0.50085817  1
  Mn  Mn77  1  0.00010801  0.49863930  0.83592383  1
  Mn  Mn78  1  0.33400235  -0.00015499  0.16580173  1
  Mn  Mn79  1  0.33392650  -0.00037465  0.49827772  1
  Mn  Mn80  1  0.33568465  0.00008257  0.83132488  1
  Mn  Mn81  1  0.33133752  0.50024947  0.16715402  1
  Mn  Mn82  1  0.33108167  0.49729503  0.50221112  1
  Mn  Mn83  1  0.33350292  0.49838193  0.83333112  1
  Mn  Mn84  1  0.66830876  -0.00042449  0.16567711  1
  Mn  Mn85  1  0.66756206  0.00067975  0.49905628  1
  Mn  Mn86  1  0.66873343  0.00148780  0.83160782  1
  Mn  Mn87  1  0.66590350  0.50000331  0.16507062  1
  Mn  Mn88  1  0.66586503  0.50087503  0.49835782  1
  Mn  Mn89  1  0.66722299  0.49987445  0.83180139  1
  Mn  Mn90  1  0.00060363  0.24856386  0.16777507  1
  Mn  Mn91  1  -0.00117719  0.24824573  0.50070265  1
  Mn  Mn92  1  0.00072101  0.25137777  0.83451737  1
  Mn  Mn93  1  -0.00126185  0.75099858  0.16846190  1
  Mn  Mn94  1  -0.00204813  0.75028114  0.50170873  1
  Mn  Mn95  1  -0.00085295  0.74822043  0.83590950  1
  Mn  Mn96  1  0.33397667  0.24853552  0.16571904  1
  Mn  Mn97  1  0.33088105  0.24764123  0.49938225  1
  Mn  Mn98  1  0.33500033  0.25192720  0.83203418  1
  Mn  Mn99  1  0.33194164  0.75081056  0.16587070  1
  Mn  Mn100  1  0.33303226  0.75358358  0.50128102  1
  Mn  Mn101  1  0.33294318  0.74786706  0.83176925  1
  Mn  Mn102  1  0.66800284  0.25011882  0.16488935  1
  Mn  Mn103  1  0.66908436  0.25004788  0.49895222  1
  Mn  Mn104  1  0.66828583  0.25235463  0.83067959  1
  Mn  Mn105  1  0.66606576  0.74913769  0.16633729  1
  Mn  Mn106  1  0.66535626  0.74922432  0.49858892  1
  Mn  Mn107  1  0.66828580  0.74688157  0.83245454  1
  Mn  Mn108  1  0.16683973  0.24850787  -0.00159598  1
  Mn  Mn109  1  0.16662734  0.24865245  0.33432791  1
  Mn  Mn110  1  0.16954510  0.25112303  0.66622322  1
  Mn  Mn111  1  0.16710404  0.74890886  0.00179883  1
  Mn  Mn112  1  0.16403971  0.75140743  0.33255336  1
  Mn  Mn113  1  0.16700775  0.75050384  0.66808015  1
  Mn  Mn114  1  0.50044906  0.24945717  -0.00572981  1
  Mn  Mn115  1  0.49791101  0.24979786  0.33063528  1
  Mn  Mn116  1  0.50060677  0.25064923  0.66291492  1
  Mn  Mn117  1  0.50055344  0.74856172  -0.00279131  1
  Mn  Mn118  1  0.49908138  0.75029945  0.33107651  1
  Mn  Mn119  1  0.50013229  0.74914700  0.66340462  1
  Mn  Mn120  1  0.83464296  0.24966674  0.00213073  1
  Mn  Mn121  1  0.83462181  0.25025005  0.33595446  1
  Mn  Mn122  1  0.83463202  0.25087182  0.66963072  1
  Mn  Mn123  1  0.83333877  0.74942181  0.00309983  1
  Mn  Mn124  1  0.83139576  0.75006043  0.33632211  1
  Mn  Mn125  1  0.83192413  0.74877847  0.67027283  1
  Mn  Mn126  1  0.16893632  0.00081025  0.00188457  1
  Mn  Mn127  1  0.16834356  0.00083480  0.33509796  1
  Mn  Mn128  1  0.16939831  0.00418273  0.66817909  1
  Mn  Mn129  1  0.16513729  0.50111410  -0.00040895  1
  Mn  Mn130  1  0.16305561  0.49874953  0.33290459  1
  Mn  Mn131  1  0.16815665  0.49457916  0.66767926  1
  Mn  Mn132  1  0.50122696  -0.00117679  -0.00276288  1
  Mn  Mn133  1  0.49927594  -0.00060408  0.33048065  1
  Mn  Mn134  1  0.50098224  0.00190941  0.66276513  1
  Mn  Mn135  1  0.50010215  0.50266747  -0.00534883  1
  Mn  Mn136  1  0.49758304  0.49974503  0.33148194  1
  Mn  Mn137  1  0.49989458  0.49842775  0.66383247  1
  Mn  Mn138  1  0.83458404  -0.00054031  0.00268879  1
  Mn  Mn139  1  0.83351436  0.00099847  0.33632819  1
  Mn  Mn140  1  0.83547792  0.00377496  0.67026850  1
  Mn  Mn141  1  0.83275096  0.50043249  0.00301955  1
  Mn  Mn142  1  0.83186344  0.49987047  0.33608231  1
  Mn  Mn143  1  0.83013068  0.49843022  0.66933135  1
  O  O144  1  0.17491472  0.12441113  0.01890702  1
  O  O145  1  0.16761093  0.12571978  0.36055504  1
  O  O146  1  0.16385041  0.13224640  0.69399589  1
  O  O147  1  0.16296873  0.62462181  0.02337569  1
  O  O148  1  0.16305155  0.62203147  0.34239187  1
  O  O149  1  0.17397513  0.61409519  0.68778038  1
  O  O150  1  0.49872233  0.12255452  0.01669126  1
  O  O151  1  0.49067685  0.12303201  0.35481290  1
  O  O152  1  0.49734142  0.12980713  0.68693050  1
  O  O153  1  0.51021514  0.62508890  0.02078797  1
  O  O154  1  0.50332526  0.62702798  0.35568960  1
  O  O155  1  0.50094001  0.61861168  0.68537151  1
  O  O156  1  0.83462741  0.12706770  0.02556536  1
  O  O157  1  0.83918608  0.12713269  0.35949566  1
  O  O158  1  0.82776137  0.13114184  0.69753077  1
  O  O159  1  0.83327193  0.62388590  0.01512815  1
  O  O160  1  0.82847645  0.62386306  0.35867373  1
  O  O161  1  0.82381795  0.61757165  0.69371559  1
  O  O162  1  0.16306032  0.37160499  0.32242938  1
  O  O163  1  0.17535896  0.37036813  0.63835966  1
  O  O164  1  0.15933034  0.37518504  0.97748528  1
  O  O165  1  0.17133853  0.88093125  0.30747447  1
  O  O166  1  0.17036065  0.88489620  0.64733852  1
  O  O167  1  0.16733451  0.87634374  0.99255189  1
  O  O168  1  0.49174124  0.37328561  0.32081073  1
  O  O169  1  0.50077193  0.37434801  0.64949907  1
  O  O170  1  0.50238306  0.37901130  0.97085982  1
  O  O171  1  0.50308738  0.87536349  0.31954155  1
  O  O172  1  0.49884973  0.87849275  0.64011350  1
  O  O173  1  0.50253044  0.87301253  0.98490134  1
  O  O174  1  0.83779330  0.37397737  0.31346156  1
  O  O175  1  0.83620561  0.37328233  0.64157403  1
  O  O176  1  0.83729757  0.37556782  0.97924350  1
  O  O177  1  0.82589522  0.87640476  0.31477619  1
  O  O178  1  0.83589015  0.88105167  0.64689492  1
  O  O179  1  0.82722674  0.87225376  0.97631948  1
  O  O180  1  -0.00271582  0.37192518  0.18958338  1
  O  O181  1  -0.00087931  0.37012440  0.52453653  1
  O  O182  1  0.00434740  0.37499222  0.86349744  1
  O  O183  1  0.01110490  0.87938722  0.17891116  1
  O  O184  1  0.00016235  0.88052285  0.51383030  1
  O  O185  1  -0.00629233  0.87308507  0.84553336  1
  O  O186  1  0.33562786  0.37040740  0.18766230  1
  O  O187  1  0.32847308  0.36926498  0.52629824  1
  O  O188  1  0.34761652  0.37509759  0.84968344  1
  O  O189  1  0.32897169  0.87740022  0.18958779  1
  O  O190  1  0.34279843  0.87907347  0.52246670  1
  O  O191  1  0.33489891  0.87299106  0.84694898  1
  O  O192  1  0.67134324  0.37604051  0.18282241  1
  O  O193  1  0.67098277  0.37406189  0.52294062  1
  O  O194  1  0.66034183  0.37698728  0.85825664  1
  O  O195  1  0.67210227  0.87449886  0.19136532  1
  O  O196  1  0.66038250  0.87452487  0.51199951  1
  O  O197  1  0.67188190  0.87000077  0.85544959  1
  O  O198  1  -0.01142825  0.12664395  0.15114650  1
  O  O199  1  -0.00610633  0.12667688  0.47467138  1
  O  O200  1  -0.00947341  0.13278250  0.81059816  1
  O  O201  1  0.00171868  0.62340011  0.14401099  1
  O  O202  1  -0.00927474  0.62150631  0.48638046  1
  O  O203  1  -0.00592583  0.62044126  0.82314721  1
  O  O204  1  0.32718355  0.12281811  0.14508962  1
  O  O205  1  0.32316577  0.12219667  0.47042056  1
  O  O206  1  0.33184215  0.13124567  0.80791387  1
  O  O207  1  0.32619369  0.62761681  0.15170019  1
  O  O208  1  0.33611765  0.62651388  0.49095848  1
  O  O209  1  0.32928954  0.61826954  0.80555751  1
  O  O210  1  0.67224882  0.12420718  0.15376313  1
  O  O211  1  0.67254896  0.12605307  0.48705924  1
  O  O212  1  0.67431709  0.13279480  0.80956826  1
  O  O213  1  0.66440162  0.62437686  0.14241201  1
  O  O214  1  0.67586130  0.62658502  0.47469358  1
  O  O215  1  0.67789997  0.62081907  0.80613995  1
  O  O216  1  0.08774988  0.02678853  0.25169326  1
  O  O217  1  0.08873414  0.02605886  0.58388167  1
  O  O218  1  0.08961646  0.02025854  0.91383851  1
  O  O219  1  0.08361848  0.51476746  0.24394694  1
  O  O220  1  0.08237870  0.49948899  0.58349880  1
  O  O221  1  0.08835808  0.52337564  0.91178030  1
  O  O222  1  0.41822605  0.02171444  0.24497939  1
  O  O223  1  0.42230186  0.02658711  0.57284115  1
  O  O224  1  0.41916112  0.02269261  0.91122525  1
  O  O225  1  0.41994098  0.51728910  0.24474389  1
  O  O226  1  0.41762986  0.51767008  0.58268939  1
  O  O227  1  0.41676971  0.52811228  0.91368444  1
  O  O228  1  0.76391170  0.01320163  0.24192056  1
  O  O229  1  0.75821811  0.02055466  0.58308409  1
  O  O230  1  0.75909324  0.01262482  0.91136506  1
  O  O231  1  0.74405806  0.51144851  0.26012544  1
  O  O232  1  0.74183150  0.51657377  0.58987788  1
  O  O233  1  0.74876144  0.51521612  0.92005824  1
  O  O234  1  0.25732709  0.23172019  0.25799755  1
  O  O235  1  0.25663328  0.22135843  0.58843896  1
  O  O236  1  0.25520333  0.23132977  0.91625870  1
  O  O237  1  0.24104327  0.74303280  0.24281806  1
  O  O238  1  0.25411455  0.74228711  0.58605322  1
  O  O239  1  0.24893903  0.72630716  0.91551747  1
  O  O240  1  0.58042015  0.23633192  0.24172718  1
  O  O241  1  0.58814565  0.22986500  0.58415005  1
  O  O242  1  0.57713701  0.23498255  0.90238629  1
  O  O243  1  0.57910003  0.72747247  0.24283512  1
  O  O244  1  0.57982976  0.72459784  0.57444120  1
  O  O245  1  0.58170847  0.72391800  0.90829838  1
  O  O246  1  0.92681859  0.23428195  0.26280957  1
  O  O247  1  0.92273709  0.22681325  0.59076405  1
  O  O248  1  0.92026842  0.23511314  0.92232736  1
  O  O249  1  0.91218667  0.74483334  0.25287518  1
  O  O250  1  0.90569727  0.73650793  0.58153851  1
  O  O251  1  0.91633594  0.73021735  0.92153450  1
  O  O252  1  0.07081441  0.48680312  0.07111046  1
  O  O253  1  0.07667763  0.47907765  0.41436405  1
  O  O254  1  0.08404522  0.47268715  0.74824932  1
  O  O255  1  0.08760050  0.99951168  0.08975494  1
  O  O256  1  0.09017379  0.98938017  0.42221190  1
  O  O257  1  0.08151654  1.00242178  0.74960799  1
  O  O258  1  0.41678527  0.50287208  0.07912994  1
  O  O259  1  0.40627177  0.48650993  0.41274812  1
  O  O260  1  0.41939281  0.48034856  0.74750772  1
  O  O261  1  0.41129090  0.99421601  0.07616597  1
  O  O262  1  0.41150586  0.97869284  0.40953125  1
  O  O263  1  0.41485656  0.99506569  0.74062955  1
  O  O264  1  0.75177897  0.47880254  0.08563705  1
  O  O265  1  0.75457790  0.48169075  0.42553354  1
  O  O266  1  0.75136025  0.46882770  0.75320683  1
  O  O267  1  0.74823878  0.97501162  0.08050266  1
  O  O268  1  0.74352319  0.97990469  0.41185461  1
  O  O269  1  0.75314876  0.98683473  0.75200348  1
  O  O270  1  0.24598118  0.25495941  0.08807531  1
  O  O271  1  0.24016229  0.26985762  0.42657826  1
  O  O272  1  0.24922529  0.27706773  0.75650113  1
  O  O273  1  0.25231421  0.76529117  0.08106932  1
  O  O274  1  0.25100493  0.77490551  0.41701670  1
  O  O275  1  0.25197266  0.75408111  0.74895477  1
  O  O276  1  0.58579735  0.26389198  0.07061232  1
  O  O277  1  0.57842191  0.25378263  0.41523956  1
  O  O278  1  0.58710370  0.27186940  0.74621597  1
  O  O279  1  0.59428742  0.76278047  0.07107832  1
  O  O280  1  0.58599471  0.76701575  0.41176572  1
  O  O281  1  0.58752681  0.74991086  0.74407102  1
  O  O282  1  0.91008126  0.27089746  0.09275260  1
  O  O283  1  0.91068913  0.27242846  0.42545764  1
  O  O284  1  0.91430686  0.27782521  0.75540664  1
  O  O285  1  0.91366336  0.76784482  0.08992160  1
  O  O286  1  0.90862328  0.76185990  0.42344882  1
  O  O287  1  0.91241982  0.75786481  0.75934551  1
  O  O288  1  0.24469520  0.49601536  0.08407569  1
  O  O289  1  0.24380771  0.47709797  0.42346011  1
  O  O290  1  0.24758530  0.47021733  0.75635914  1
  O  O291  1  0.24560887  0.98340498  0.09258303  1
  O  O292  1  0.24875719  0.97232404  0.42106381  1
  O  O293  1  0.25093522  0.99716473  0.75001135  1
  O  O294  1  0.59074729  0.48653344  0.06826882  1
  O  O295  1  0.58761918  0.49282025  0.41045724  1
  O  O296  1  0.58666141  0.47973732  0.74260712  1
  O  O297  1  0.58747660  0.98648501  0.07557393  1
  O  O298  1  0.57487825  0.98725376  0.41901391  1
  O  O299  1  0.58419635  1.00134328  0.74577771  1
  O  O300  1  0.91297351  0.47628093  0.08862264  1
  O  O301  1  0.91454660  0.47587264  0.41893067  1
  O  O302  1  0.91648994  0.47560231  0.75335357  1
  O  O303  1  0.90657799  0.98578329  0.09814653  1
  O  O304  1  0.90264967  0.98772667  0.43066304  1
  O  O305  1  0.90880015  0.99178286  0.76104853  1
  O  O306  1  0.07205239  0.26027931  0.07297558  1
  O  O307  1  0.07198796  0.26675256  0.41085358  1
  O  O308  1  0.07750385  0.27614663  0.74215088  1
  O  O309  1  0.09073406  0.75797990  0.09101199  1
  O  O310  1  0.08808013  0.76480280  0.42092223  1
  O  O311  1  0.08709856  0.74854035  0.75680517  1
  O  O312  1  0.41600007  0.25104492  0.07857687  1
  O  O313  1  0.39969850  0.26168555  0.40514442  1
  O  O314  1  0.41555616  0.26904029  0.74466824  1
  O  O315  1  0.41622616  0.74962147  0.08008220  1
  O  O316  1  0.41693903  0.77051257  0.41821086  1
  O  O317  1  0.41620584  0.75216874  0.74657602  1
  O  O318  1  0.74974691  0.27274827  0.07946498  1
  O  O319  1  0.75045681  0.27034604  0.41731075  1
  O  O320  1  0.74863229  0.27996204  0.74791596  1
  O  O321  1  0.75233296  0.77273342  0.08768817  1
  O  O322  1  0.75027683  0.77322006  0.42213642  1
  O  O323  1  0.75776449  0.76653723  0.76027088  1
  O  O324  1  0.25375859  0.02386776  0.25611273  1
  O  O325  1  0.25395296  0.02441359  0.58521300  1
  O  O326  1  0.25648088  0.01878718  0.92035021  1
  O  O327  1  0.24933724  0.50375460  0.25429343  1
  O  O328  1  0.25920350  0.51079405  0.59550833  1
  O  O329  1  0.24948835  0.52029933  0.91837038  1
  O  O330  1  0.58227447  0.01358834  0.24615361  1
  O  O331  1  0.58555524  0.02429813  0.58271434  1
  O  O332  1  0.58237428  0.01530134  0.90823573  1
  O  O333  1  0.58045286  0.52076561  0.24169781  1
  O  O334  1  0.58118117  0.52372300  0.57739025  1
  O  O335  1  0.58068467  0.52620549  0.90621815  1
  O  O336  1  0.92335436  0.02015253  0.26119379  1
  O  O337  1  0.92120994  0.02982302  0.59406741  1
  O  O338  1  0.91959914  0.01778655  0.92265746  1
  O  O339  1  0.91930515  0.50840723  0.25709216  1
  O  O340  1  0.90509553  0.51126558  0.57899502  1
  O  O341  1  0.91777269  0.51513867  0.92410042  1
  O  O342  1  0.09065584  0.22390862  0.24392038  1
  O  O343  1  0.08781761  0.22802011  0.57453312  1
  O  O344  1  0.09369829  0.23108424  0.90265046  1
  O  O345  1  0.07974629  0.73381596  0.25013497  1
  O  O346  1  0.08554839  0.74707710  0.58452736  1
  O  O347  1  0.08232019  0.72784017  0.92086029  1
  O  O348  1  0.41986160  0.22389623  0.24338054  1
  O  O349  1  0.41964288  0.22327897  0.57264528  1
  O  O350  1  0.41846140  0.22513661  0.91107679  1
  O  O351  1  0.41635786  0.73708582  0.24676104  1
  O  O352  1  0.41856302  0.72999337  0.58087528  1
  O  O353  1  0.41450133  0.72445573  0.91388604  1
  O  O354  1  0.76589113  0.23826761  0.24340329  1
  O  O355  1  0.75667958  0.23199020  0.58439491  1
  O  O356  1  0.75902829  0.24245412  0.90841760  1
  O  O357  1  0.73916694  0.73697596  0.26221364  1
  O  O358  1  0.74441669  0.72885083  0.58637269  1
  O  O359  1  0.74485843  0.72794013  0.92217161  1
