# generated using pymatgen
data_Ba17Sr5La8Pr42Mn72O216
_symmetry_space_group_name_H-M   'P 1'
_cell_length_a   16.67717053
_cell_length_b   15.70449209
_cell_length_c   16.82389552
_cell_angle_alpha   89.99842872
_cell_angle_beta   89.98016606
_cell_angle_gamma   89.98119748
_symmetry_Int_Tables_number   1
_chemical_formula_structural   Ba17Sr5La8Pr42Mn72O216
_chemical_formula_sum   'Ba17 Sr5 La8 Pr42 Mn72 O216'
_cell_volume   4406.28696569
_cell_formula_units_Z   1
loop_
 _symmetry_equiv_pos_site_id
 _symmetry_equiv_pos_as_xyz
  1  'x, y, z'
loop_
 _atom_site_type_symbol
 _atom_site_label
 _atom_site_symmetry_multiplicity
 _atom_site_fract_x
 _atom_site_fract_y
 _atom_site_fract_z
 _atom_site_occupancy
  Ba  Ba0  1  0.83213260  0.12535773  0.16297619  1
  Ba  Ba1  1  0.33370882  0.62413667  1.00442762  1
  Ba  Ba2  1  0.66345295  0.62459001  0.66694307  1
  Ba  Ba3  1  -0.00045637  0.62424482  0.99797488  1
  Ba  Ba4  1  0.49779557  0.12742551  0.16868194  1
  Ba  Ba5  1  0.33114386  0.87566081  0.66957594  1
  Ba  Ba6  1  0.16296253  0.62480770  0.49983163  1
  Ba  Ba7  1  0.66668144  0.87554470  0.33260423  1
  Ba  Ba8  1  0.66596685  0.12606501  0.66737839  1
  Ba  Ba9  1  0.66874967  0.87434123  -0.00123033  1
  Ba  Ba10  1  0.67019770  0.87572445  0.66863932  1
  Ba  Ba11  1  0.33565857  0.37422963  0.66802495  1
  Ba  Ba12  1  0.49990688  0.87370326  0.83333981  1
  Ba  Ba13  1  0.49470375  0.62266414  0.16909984  1
  Ba  Ba14  1  0.83231006  0.87616619  0.16340717  1
  Ba  Ba15  1  0.00064336  0.12583118  0.99643661  1
  Ba  Ba16  1  0.16354038  0.12443533  0.16851080  1
  Sr  Sr17  1  0.50573208  0.37423905  0.16553932  1
  Sr  Sr18  1  0.15973259  0.62521378  0.16886363  1
  Sr  Sr19  1  0.49689259  0.62798521  0.83541275  1
  Sr  Sr20  1  0.16241798  0.12495302  0.50371425  1
  Sr  Sr21  1  0.83824692  0.87552826  0.82983792  1
  La  La22  1  0.83754787  0.37599320  0.49787736  1
  La  La23  1  0.65679857  0.62475872  0.33149968  1
  La  La24  1  0.84429083  0.37464139  0.82702259  1
  La  La25  1  0.33477213  0.12559564  1.00242510  1
  La  La26  1  0.17344867  0.37508661  0.83571521  1
  La  La27  1  0.16857487  0.62510873  0.83583336  1
  La  La28  1  0.84118620  0.37506945  0.16110568  1
  La  La29  1  -0.00462627  0.62408244  0.66372354  1
  Pr  Pr30  1  0.65996756  0.12530777  0.32948674  1
  Pr  Pr31  1  0.17516559  0.37596975  0.16627644  1
  Pr  Pr32  1  0.50889748  0.87569873  0.50251623  1
  Pr  Pr33  1  -0.01171884  0.62441795  0.32475706  1
  Pr  Pr34  1  0.66603716  0.12204012  0.99757619  1
  Pr  Pr35  1  0.82143566  0.62568156  0.16446576  1
  Pr  Pr36  1  0.00380126  0.87443874  0.66531520  1
  Pr  Pr37  1  0.67300693  0.37516191  0.67112381  1
  Pr  Pr38  1  -0.00674417  0.12519916  0.32573169  1
  Pr  Pr39  1  0.00175812  0.87502968  0.00169310  1
  Pr  Pr40  1  0.66087551  0.62731450  0.99612461  1
  Pr  Pr41  1  0.67026575  0.37262738  0.32988819  1
  Pr  Pr42  1  0.67481897  0.37586095  0.00316591  1
  Pr  Pr43  1  0.50996655  0.37367892  0.49989148  1
  Pr  Pr44  1  0.49881950  0.12167063  0.83622833  1
  Pr  Pr45  1  0.17219682  0.87503845  0.49732927  1
  Pr  Pr46  1  -0.00361648  0.12662150  0.66482880  1
  Pr  Pr47  1  0.33393837  0.62767845  0.66910071  1
  Pr  Pr48  1  0.82510044  0.12288465  0.83627010  1
  Pr  Pr49  1  0.82427321  0.62736023  0.83362624  1
  Pr  Pr50  1  0.33895479  0.87696389  0.33825235  1
  Pr  Pr51  1  0.33677542  0.87322055  0.00319032  1
  Pr  Pr52  1  0.49349397  0.62676559  0.50315404  1
  Pr  Pr53  1  0.01272119  0.37515910  0.66408968  1
  Pr  Pr54  1  0.17708849  0.37413441  0.49759189  1
  Pr  Pr55  1  0.50697694  0.37927442  0.83177833  1
  Pr  Pr56  1  0.82625770  0.62543821  0.49972589  1
  Pr  Pr57  1  0.00176014  0.87834740  0.33306682  1
  Pr  Pr58  1  0.16889709  0.87317275  0.16575694  1
  Pr  Pr59  1  0.31674036  0.62441999  0.32565571  1
  Pr  Pr60  1  0.33395728  0.12307872  0.66828439  1
  Pr  Pr61  1  0.34155594  0.37363254  0.33872505  1
  Pr  Pr62  1  0.01392397  0.37496847  0.00121377  1
  Pr  Pr63  1  0.16590135  0.87344008  0.83506878  1
  Pr  Pr64  1  0.82847921  0.12459590  0.49823379  1
  Pr  Pr65  1  0.49627800  0.12261640  0.50275956  1
  Pr  Pr66  1  0.32370874  0.12603202  0.33165149  1
  Pr  Pr67  1  0.50328449  0.87524106  0.16123651  1
  Pr  Pr68  1  0.83514187  0.87563330  0.49517017  1
  Pr  Pr69  1  0.17041721  0.12464672  0.83827529  1
  Pr  Pr70  1  0.00965806  0.37149059  0.33279054  1
  Pr  Pr71  1  0.34251635  0.37629099  0.00419809  1
  Mn  Mn72  1  0.00017627  -0.00061185  0.16633400  1
  Mn  Mn73  1  -0.00089513  0.00233632  0.49961903  1
  Mn  Mn74  1  0.00174995  -0.00037857  0.82993819  1
  Mn  Mn75  1  -0.00030110  0.49969618  0.16589228  1
  Mn  Mn76  1  -0.00105068  0.49856204  0.49631931  1
  Mn  Mn77  1  0.00236788  0.49871772  0.83061945  1
  Mn  Mn78  1  0.33195616  -0.00037850  0.17075607  1
  Mn  Mn79  1  0.33238514  0.00078799  0.50134816  1
  Mn  Mn80  1  0.33240690  0.00117526  0.83547628  1
  Mn  Mn81  1  0.33189459  0.49818065  0.17077905  1
  Mn  Mn82  1  0.33435639  0.50140753  0.50017796  1
  Mn  Mn83  1  0.33544685  0.49906956  0.83507620  1
  Mn  Mn84  1  0.66535803  0.00217255  0.16598944  1
  Mn  Mn85  1  0.66738860  0.00157952  0.49927212  1
  Mn  Mn86  1  0.66772633  -0.00037206  0.83223883  1
  Mn  Mn87  1  0.66675581  0.49816574  0.16618424  1
  Mn  Mn88  1  0.66671472  0.49777510  0.49878270  1
  Mn  Mn89  1  0.66759496  0.49874941  0.83536453  1
  Mn  Mn90  1  0.00081192  0.25163608  0.16626680  1
  Mn  Mn91  1  0.00033907  0.24928535  0.49818173  1
  Mn  Mn92  1  0.00307875  0.25092591  0.82984063  1
  Mn  Mn93  1  -0.00180873  0.74960512  0.16637016  1
  Mn  Mn94  1  -0.00153313  0.74951647  0.49765218  1
  Mn  Mn95  1  0.00028637  0.75009614  0.83054281  1
  Mn  Mn96  1  0.33401499  0.25093994  0.16990814  1
  Mn  Mn97  1  0.33423621  0.24776652  0.50181955  1
  Mn  Mn98  1  0.33626460  0.25012389  0.83634447  1
  Mn  Mn99  1  0.33004816  0.75169511  0.17127083  1
  Mn  Mn100  1  0.33319702  0.75028747  0.49939965  1
  Mn  Mn101  1  0.33173592  0.74947005  0.83547168  1
  Mn  Mn102  1  0.66813564  0.25121052  0.16563101  1
  Mn  Mn103  1  0.66762936  0.25114681  0.49936022  1
  Mn  Mn104  1  0.66684302  0.25207346  0.83495379  1
  Mn  Mn105  1  0.66348244  0.74851753  0.16634625  1
  Mn  Mn106  1  0.66661533  0.74953599  0.49918394  1
  Mn  Mn107  1  0.66722011  0.75002794  0.83233513  1
  Mn  Mn108  1  0.17135248  0.25023035  0.00096393  1
  Mn  Mn109  1  0.16616631  0.24905721  0.33641765  1
  Mn  Mn110  1  0.16730797  0.24813071  0.66784043  1
  Mn  Mn111  1  0.16730048  0.75002389  0.00084321  1
  Mn  Mn112  1  0.16189754  0.75207281  0.33316608  1
  Mn  Mn113  1  0.16479326  0.74998862  0.66752153  1
  Mn  Mn114  1  0.50226067  0.25030523  -0.00070134  1
  Mn  Mn115  1  0.49981100  0.25139722  0.33603974  1
  Mn  Mn116  1  0.50082170  0.25115350  0.66781214  1
  Mn  Mn117  1  0.49904449  0.74939801  0.00088589  1
  Mn  Mn118  1  0.49618898  0.75038449  0.33616257  1
  Mn  Mn119  1  0.49858916  0.74820561  0.66780528  1
  Mn  Mn120  1  0.83477465  0.25228925  -0.00524224  1
  Mn  Mn121  1  0.83292175  0.25254992  0.33214570  1
  Mn  Mn122  1  0.83626991  0.25049973  0.66398318  1
  Mn  Mn123  1  0.83491897  0.74870466  -0.00241869  1
  Mn  Mn124  1  0.83246188  0.74885175  0.33243199  1
  Mn  Mn125  1  0.83543202  0.74945613  0.66419419  1
  Mn  Mn126  1  0.16914075  -0.00110128  0.00070366  1
  Mn  Mn127  1  0.16466125  -0.00002167  0.33642589  1
  Mn  Mn128  1  0.16408114  0.00183618  0.66798743  1
  Mn  Mn129  1  0.16972814  0.50029235  0.00109080  1
  Mn  Mn130  1  0.16329284  0.49844928  0.33350154  1
  Mn  Mn131  1  0.16737630  0.49991977  0.66757596  1
  Mn  Mn132  1  0.49947527  0.00113941  0.00196617  1
  Mn  Mn133  1  0.49810256  0.00050119  0.33504188  1
  Mn  Mn134  1  0.49878335  0.00222917  0.66838255  1
  Mn  Mn135  1  0.50196987  0.49816112  -0.00069968  1
  Mn  Mn136  1  0.49818776  0.49741881  0.33665895  1
  Mn  Mn137  1  0.50027234  0.49971244  0.66616999  1
  Mn  Mn138  1  0.83497718  0.00027313  -0.00424141  1
  Mn  Mn139  1  0.83335404  0.00034745  0.33333304  1
  Mn  Mn140  1  0.83679173  0.00221305  0.66475464  1
  Mn  Mn141  1  0.83543792  0.49901961  -0.00388686  1
  Mn  Mn142  1  0.83139586  0.49803889  0.32995828  1
  Mn  Mn143  1  0.83576452  0.49836459  0.66395249  1
  O  O144  1  0.17312227  0.12480039  0.01283269  1
  O  O145  1  0.16879988  0.12456067  0.35504761  1
  O  O146  1  0.15828794  0.12440175  0.69391335  1
  O  O147  1  0.16668940  0.62406763  0.01779935  1
  O  O148  1  0.16641062  0.62553748  0.34323966  1
  O  O149  1  0.16188320  0.62170653  0.68993331  1
  O  O150  1  0.50282921  0.12697556  0.01277238  1
  O  O151  1  0.50635046  0.12793391  0.35948547  1
  O  O152  1  0.49457730  0.13050950  0.69038320  1
  O  O153  1  0.50721767  0.62262542  0.01040608  1
  O  O154  1  0.50340075  0.61974157  0.35876223  1
  O  O155  1  0.49403581  0.62174644  0.68287391  1
  O  O156  1  0.83096279  0.12879735  0.00434562  1
  O  O157  1  0.84307911  0.12892112  0.35529781  1
  O  O158  1  0.84336514  0.12939297  0.69117189  1
  O  O159  1  0.83370112  0.62053884  0.02048515  1
  O  O160  1  0.83958902  0.62046138  0.35697675  1
  O  O161  1  0.84255362  0.61896418  0.68810654  1
  O  O162  1  0.16302000  0.37313997  0.31201323  1
  O  O163  1  0.16437040  0.37431793  0.64037929  1
  O  O164  1  0.16950149  0.37472033  0.98018458  1
  O  O165  1  0.16202565  0.87638359  0.31185720  1
  O  O166  1  0.16175981  0.87950070  0.63947853  1
  O  O167  1  0.16841803  0.87564226  0.97842945  1
  O  O168  1  0.48985053  0.37413627  0.31562581  1
  O  O169  1  0.50509201  0.37404683  0.64329338  1
  O  O170  1  0.49707349  0.37155535  0.97564023  1
  O  O171  1  0.49063684  0.87893627  0.30760796  1
  O  O172  1  0.49825564  0.87483398  0.64724832  1
  O  O173  1  0.49112979  0.87698802  0.99328313  1
  O  O174  1  0.82105110  0.37690693  0.30415194  1
  O  O175  1  0.82883785  0.37460481  0.64309349  1
  O  O176  1  0.82469046  0.37613774  0.96938153  1
  O  O177  1  0.83724632  0.87319881  0.32184969  1
  O  O178  1  0.84428038  0.87858604  0.64013505  1
  O  O179  1  0.84218506  0.87476253  0.98073589  1
  O  O180  1  -0.00094917  0.37631617  0.18683517  1
  O  O181  1  -0.00880660  0.37360047  0.52279215  1
  O  O182  1  -0.00462478  0.37489948  0.85697107  1
  O  O183  1  0.00410835  0.87411806  0.18698162  1
  O  O184  1  -0.01265317  0.87952398  0.52354571  1
  O  O185  1  -0.00123622  0.87643452  0.85660664  1
  O  O186  1  0.32859385  0.37371735  0.19340822  1
  O  O187  1  0.32760383  0.37267181  0.51235723  1
  O  O188  1  0.32927054  0.37165945  0.85859951  1
  O  O189  1  0.33391580  0.87622560  0.19400797  1
  O  O190  1  0.32388897  0.87520232  0.51431538  1
  O  O191  1  0.32416046  0.87762321  0.85591663  1
  O  O192  1  0.67393529  0.37516229  0.18640588  1
  O  O193  1  0.66371396  0.37406342  0.52725540  1
  O  O194  1  0.66148505  0.37450512  0.86007706  1
  O  O195  1  0.65942881  0.87394572  0.17539874  1
  O  O196  1  0.66583846  0.87615259  0.50964023  1
  O  O197  1  0.67138509  0.87534343  0.83998813  1
  O  O198  1  -0.00064334  0.12815642  0.15750937  1
  O  O199  1  0.00144038  0.12676893  0.46836060  1
  O  O200  1  0.01350235  0.12649936  0.80905093  1
  O  O201  1  0.00176304  0.62186351  0.15694925  1
  O  O202  1  -0.00294571  0.61951225  0.46877158  1
  O  O203  1  0.01185992  0.62173376  0.80742375  1
  O  O204  1  0.33104228  0.12619959  0.14756970  1
  O  O205  1  0.34076469  0.12450635  0.47335461  1
  O  O206  1  0.33387705  0.12788261  0.81362943  1
  O  O207  1  0.32640397  0.62442466  0.16382107  1
  O  O208  1  0.34220798  0.62776462  0.47027945  1
  O  O209  1  0.32994137  0.62262570  0.81564006  1
  O  O210  1  0.66450220  0.13082948  0.14440630  1
  O  O211  1  0.67139657  0.12911883  0.47364679  1
  O  O212  1  0.67033462  0.12868721  0.82366393  1
  O  O213  1  0.66865878  0.61990190  0.14404378  1
  O  O214  1  0.67039380  0.62061824  0.47553265  1
  O  O215  1  0.67307346  0.62175578  0.82336056  1
  O  O216  1  0.07631007  0.01264575  0.26246502  1
  O  O217  1  0.07512282  0.02017627  0.58787898  1
  O  O218  1  0.09176918  0.01033322  0.90969743  1
  O  O219  1  0.06812041  0.50904397  0.26731874  1
  O  O220  1  0.07254964  0.51135276  0.59420147  1
  O  O221  1  0.08209884  0.50552792  0.91716560  1
  O  O222  1  0.40788341  0.01954838  0.26322495  1
  O  O223  1  0.41421954  0.02299527  0.58498635  1
  O  O224  1  0.41707496  0.02053567  0.91826312  1
  O  O225  1  0.40036890  0.51167969  0.26844744  1
  O  O226  1  0.40981342  0.52255231  0.58760757  1
  O  O227  1  0.41426599  0.50347107  0.92084142  1
  O  O228  1  0.74509340  0.01844822  0.25849767  1
  O  O229  1  0.75477452  0.01561105  0.58027309  1
  O  O230  1  0.74838439  0.01779400  0.91655298  1
  O  O231  1  0.74251915  0.52450041  0.25631846  1
  O  O232  1  0.74877882  0.51224755  0.57993737  1
  O  O233  1  0.74326715  0.51923675  0.92630022  1
  O  O234  1  0.24671078  0.23680035  0.25420997  1
  O  O235  1  0.24837962  0.22824665  0.58460094  1
  O  O236  1  0.25329157  0.22964584  0.91812180  1
  O  O237  1  0.23597880  0.74119589  0.24358715  1
  O  O238  1  0.25123385  0.73307956  0.58572305  1
  O  O239  1  0.24417885  0.73634945  0.91415998  1
  O  O240  1  0.58221325  0.24230327  0.25505107  1
  O  O241  1  0.57589501  0.23352384  0.57015372  1
  O  O242  1  0.57688887  0.23150757  0.90892008  1
  O  O243  1  0.57894990  0.73612805  0.25292837  1
  O  O244  1  0.57423414  0.73826763  0.57491139  1
  O  O245  1  0.58578707  0.73682908  0.91817270  1
  O  O246  1  0.91273681  0.24513835  0.24905637  1
  O  O247  1  0.91366170  0.22725572  0.57167071  1
  O  O248  1  0.90729890  0.23700557  0.89778368  1
  O  O249  1  0.90533352  0.72699204  0.24212444  1
  O  O250  1  0.91057628  0.72538338  0.57182379  1
  O  O251  1  0.90975124  0.73084325  0.90023056  1
  O  O252  1  0.09235193  0.47803502  0.08890726  1
  O  O253  1  0.09068601  0.47219398  0.42611079  1
  O  O254  1  0.09025220  0.47332401  0.75555108  1
  O  O255  1  0.08664083  0.97797984  0.08320741  1
  O  O256  1  0.08545283  0.97442625  0.42390955  1
  O  O257  1  0.08449243  0.97196988  0.74980881  1
  O  O258  1  0.42071588  0.48076596  0.08798112  1
  O  O259  1  0.42637772  0.47808262  0.42844750  1
  O  O260  1  0.42533734  0.48363560  0.75888224  1
  O  O261  1  0.41287151  0.98304992  0.08614438  1
  O  O262  1  0.42017272  0.97775025  0.42229043  1
  O  O263  1  0.41239861  0.99762864  0.75125053  1
  O  O264  1  0.76193736  0.48121256  0.08818579  1
  O  O265  1  0.75476334  0.47690486  0.41846889  1
  O  O266  1  0.75577832  0.47827096  0.75785077  1
  O  O267  1  0.74828257  0.99881181  0.07841364  1
  O  O268  1  0.75932686  0.99112744  0.42314410  1
  O  O269  1  0.76124805  0.99526000  0.75264204  1
  O  O270  1  0.25509121  0.27263420  0.08180168  1
  O  O271  1  0.25501980  0.26668425  0.41407390  1
  O  O272  1  0.25094528  0.25986296  0.75732711  1
  O  O273  1  0.25459778  0.77502269  0.08297815  1
  O  O274  1  0.25339851  0.76670324  0.40992520  1
  O  O275  1  0.24416790  0.75945019  0.75617577  1
  O  O276  1  0.59188866  0.26931584  0.07253093  1
  O  O277  1  0.59023272  0.27463207  0.41205792  1
  O  O278  1  0.59192312  0.27445284  0.74667345  1
  O  O279  1  0.57896052  0.76012301  0.08721607  1
  O  O280  1  0.58099213  0.76066514  0.41760914  1
  O  O281  1  0.58350224  0.75407254  0.74927704  1
  O  O282  1  0.92245859  0.27393571  0.06944601  1
  O  O283  1  0.92086473  0.27425164  0.40947248  1
  O  O284  1  0.92739220  0.27105837  0.73577152  1
  O  O285  1  0.92615520  0.76492890  0.07297663  1
  O  O286  1  0.92495817  0.76644100  0.40626029  1
  O  O287  1  0.92835934  0.76278001  0.73565816  1
  O  O288  1  0.25686499  0.47566341  0.08044537  1
  O  O289  1  0.25618610  0.48421025  0.40900659  1
  O  O290  1  0.25084381  0.48808167  0.75177660  1
  O  O291  1  0.25041679  0.97574158  0.08538910  1
  O  O292  1  0.24990387  0.98177836  0.41677096  1
  O  O293  1  0.24140264  0.99218781  0.76142934  1
  O  O294  1  0.59331848  0.48045222  0.07495406  1
  O  O295  1  0.59059253  0.47361240  0.41165115  1
  O  O296  1  0.59147331  0.47711566  0.74512807  1
  O  O297  1  0.57639676  0.98879959  0.08748843  1
  O  O298  1  0.57854416  0.98873993  0.41979931  1
  O  O299  1  0.58142734  0.99892364  0.75384298  1
  O  O300  1  0.92454886  0.47415221  0.06813194  1
  O  O301  1  0.92150265  0.47428166  0.40148383  1
  O  O302  1  0.92967262  0.47818751  0.73752850  1
  O  O303  1  0.92358564  0.98680203  0.07164210  1
  O  O304  1  0.91999013  0.98143478  0.41478075  1
  O  O305  1  0.92834356  0.98703136  0.73659046  1
  O  O306  1  0.09056004  0.27209551  0.08640316  1
  O  O307  1  0.09009509  0.27500477  0.42563814  1
  O  O308  1  0.08792169  0.27614802  0.75217109  1
  O  O309  1  0.08915036  0.77061125  0.08758340  1
  O  O310  1  0.08794734  0.77603581  0.42442064  1
  O  O311  1  0.08551872  0.77482560  0.75297309  1
  O  O312  1  0.41943222  0.26843275  0.08337851  1
  O  O313  1  0.42514345  0.26888943  0.42656065  1
  O  O314  1  0.42645271  0.26675628  0.76521619  1
  O  O315  1  0.41596832  0.76851523  0.09341731  1
  O  O316  1  0.42187656  0.77695982  0.42562093  1
  O  O317  1  0.41197341  0.75240205  0.74937929  1
  O  O318  1  0.75895473  0.27272166  0.08381996  1
  O  O319  1  0.75516860  0.27341472  0.42024691  1
  O  O320  1  0.75559141  0.27070958  0.75632546  1
  O  O321  1  0.75238989  0.75035844  0.08613363  1
  O  O322  1  0.76142815  0.75882790  0.42426036  1
  O  O323  1  0.76148389  0.75541245  0.75442322  1
  O  O324  1  0.24917361  0.01224414  0.25592894  1
  O  O325  1  0.24932732  0.02300723  0.58920522  1
  O  O326  1  0.25588638  0.02120239  0.92243582  1
  O  O327  1  0.23513304  0.50951009  0.24403763  1
  O  O328  1  0.24942168  0.51557039  0.58355032  1
  O  O329  1  0.24344023  0.51196311  0.91107999  1
  O  O330  1  0.58266665  0.01577692  0.25566874  1
  O  O331  1  0.57646514  0.01461537  0.57730939  1
  O  O332  1  0.58382081  0.01797790  0.91911340  1
  O  O333  1  0.57941233  0.50740517  0.25356255  1
  O  O334  1  0.57291000  0.51395346  0.57000961  1
  O  O335  1  0.58082376  0.51248899  0.91101034  1
  O  O336  1  0.91756809  0.01053170  0.25410989  1
  O  O337  1  0.91450486  0.03092623  0.57606294  1
  O  O338  1  0.91191964  0.01783708  0.90124789  1
  O  O339  1  0.90216664  0.51628020  0.23784249  1
  O  O340  1  0.91037617  0.51785731  0.56759340  1
  O  O341  1  0.90551251  0.51490535  0.89798194  1
  O  O342  1  0.07473512  0.23808714  0.26566731  1
  O  O343  1  0.07379379  0.23399478  0.58828199  1
  O  O344  1  0.08990986  0.24302636  0.91422032  1
  O  O345  1  0.06728668  0.73956750  0.26330727  1
  O  O346  1  0.07175785  0.73756819  0.59055956  1
  O  O347  1  0.08321193  0.74147717  0.91312983  1
  O  O348  1  0.40672657  0.23466849  0.26572188  1
  O  O349  1  0.41088603  0.22700255  0.58780266  1
  O  O350  1  0.41319099  0.22818062  0.92211185  1
  O  O351  1  0.39978634  0.73628041  0.26765377  1
  O  O352  1  0.41281103  0.72826873  0.58442945  1
  O  O353  1  0.41202197  0.74494070  0.92148699  1
  O  O354  1  0.74174576  0.23205654  0.26233785  1
  O  O355  1  0.75196136  0.23636282  0.58037687  1
  O  O356  1  0.74107973  0.23423132  0.92360169  1
  O  O357  1  0.74342467  0.72624271  0.25509757  1
  O  O358  1  0.75162016  0.73631211  0.58206495  1
  O  O359  1  0.74844665  0.72921107  0.92058162  1
