# generated using pymatgen
data_Ba17Sr5La8Pr42Mn72O216
_symmetry_space_group_name_H-M   'P 1'
_cell_length_a   16.67343185
_cell_length_b   15.70243934
_cell_length_c   16.81727196
_cell_angle_alpha   90.00559091
_cell_angle_beta   90.00912682
_cell_angle_gamma   89.99473642
_symmetry_Int_Tables_number   1
_chemical_formula_structural   Ba17Sr5La8Pr42Mn72O216
_chemical_formula_sum   'Ba17 Sr5 La8 Pr42 Mn72 O216'
_cell_volume   4402.98961666
_cell_formula_units_Z   1
loop_
 _symmetry_equiv_pos_site_id
 _symmetry_equiv_pos_as_xyz
  1  'x, y, z'
loop_
 _atom_site_type_symbol
 _atom_site_label
 _atom_site_symmetry_multiplicity
 _atom_site_fract_x
 _atom_site_fract_y
 _atom_site_fract_z
 _atom_site_occupancy
  Ba  Ba0  1  0.66942246  0.37462097  0.66824350  1
  Ba  Ba1  1  0.32981728  0.37563687  0.66901589  1
  Ba  Ba2  1  0.49901393  0.62575368  0.16897535  1
  Ba  Ba3  1  0.33059906  0.87543141  0.66686031  1
  Ba  Ba4  1  0.16333551  0.62371363  0.50002891  1
  Ba  Ba5  1  0.66880518  0.12460217  0.66930500  1
  Ba  Ba6  1  0.66542082  0.87471202  0.33529575  1
  Ba  Ba7  1  0.50411745  0.12551171  0.83382757  1
  Ba  Ba8  1  0.50003414  0.37442490  0.83134442  1
  Ba  Ba9  1  0.33196106  0.62621354  0.66640897  1
  Ba  Ba10  1  0.49962289  0.87450676  0.16944459  1
  Ba  Ba11  1  0.83070923  0.37536854  0.49691895  1
  Ba  Ba12  1  -0.00046028  0.12619432  0.32861036  1
  Ba  Ba13  1  0.16362127  0.62360511  0.16754250  1
  Ba  Ba14  1  0.67040292  0.87432685  0.66799432  1
  Ba  Ba15  1  0.33008701  0.62504567  0.33167012  1
  Ba  Ba16  1  0.00106674  0.62436320  0.99613987  1
  Sr  Sr17  1  0.33173797  0.87314319  0.33498449  1
  Sr  Sr18  1  0.83673444  0.12600049  0.16544240  1
  Sr  Sr19  1  0.83379992  0.37075511  0.16495943  1
  Sr  Sr20  1  0.16334456  0.37737396  0.50135028  1
  Sr  Sr21  1  -0.00087984  0.12632716  0.99662733  1
  La  La22  1  0.50025867  0.87456264  0.83257943  1
  La  La23  1  0.17037274  0.12408896  0.83621190  1
  La  La24  1  0.00156768  0.87619343  0.33155823  1
  La  La25  1  0.49341199  0.87637351  0.49533091  1
  La  La26  1  0.50530459  0.12179187  0.50502861  1
  La  La27  1  0.82941877  0.62511193  0.16746880  1
  La  La28  1  0.67139477  0.87754671  0.00740623  1
  La  La29  1  -0.00386374  0.61992777  0.32667597  1
  Pr  Pr30  1  0.84201715  0.87449639  0.83147508  1
  Pr  Pr31  1  0.66110541  0.62336369  0.33214111  1
  Pr  Pr32  1  0.82600278  0.62577865  0.83612227  1
  Pr  Pr33  1  0.16327691  0.37447077  0.82980741  1
  Pr  Pr34  1  0.84027337  0.37570708  0.82698139  1
  Pr  Pr35  1  0.51044212  0.12501394  0.16842608  1
  Pr  Pr36  1  0.00289859  0.37536265  0.66383473  1
  Pr  Pr37  1  0.33807792  0.62560361  0.99898039  1
  Pr  Pr38  1  0.34196653  0.12684738  0.66524895  1
  Pr  Pr39  1  0.16144098  0.37506260  0.16765935  1
  Pr  Pr40  1  0.49777382  0.62958099  0.50139498  1
  Pr  Pr41  1  -0.00372067  0.62437071  0.66292384  1
  Pr  Pr42  1  0.82624901  0.62598758  0.49881834  1
  Pr  Pr43  1  0.66045900  0.62281654  0.66707848  1
  Pr  Pr44  1  0.00772852  0.87541701  0.00229778  1
  Pr  Pr45  1  0.66218447  0.62482100  1.00093466  1
  Pr  Pr46  1  0.00276498  0.87446830  0.66349433  1
  Pr  Pr47  1  0.33337912  0.87835747  0.00638944  1
  Pr  Pr48  1  0.83019207  0.12439796  0.83458747  1
  Pr  Pr49  1  0.49938978  0.62246029  0.83343206  1
  Pr  Pr50  1  0.67179479  0.12545269  0.99838498  1
  Pr  Pr51  1  0.17123186  0.12640669  0.17109175  1
  Pr  Pr52  1  0.67392808  0.12531206  0.33416367  1
  Pr  Pr53  1  0.16890432  0.12469645  0.50477131  1
  Pr  Pr54  1  0.83342174  0.12338366  0.50124605  1
  Pr  Pr55  1  0.49413299  0.37400084  0.50014244  1
  Pr  Pr56  1  0.16925157  0.87614248  0.16815577  1
  Pr  Pr57  1  0.83948678  0.87876643  0.16363746  1
  Pr  Pr58  1  0.32450846  0.37858117  0.33754566  1
  Pr  Pr59  1  0.00004997  0.37369919  -0.00023928  1
  Pr  Pr60  1  0.34032317  0.12694572  0.33290180  1
  Pr  Pr61  1  0.17271704  0.62506036  0.83726207  1
  Pr  Pr62  1  0.66136699  0.37646207  0.33881047  1
  Pr  Pr63  1  0.16467735  0.87429600  0.83415993  1
  Pr  Pr64  1  0.00135128  0.37320198  0.33279450  1
  Pr  Pr65  1  0.83347153  0.87784192  0.49493904  1
  Pr  Pr66  1  0.49477369  0.37815220  0.16328306  1
  Pr  Pr67  1  0.00024696  0.12545270  0.65983430  1
  Pr  Pr68  1  0.32794347  0.37157633  -0.00004947  1
  Pr  Pr69  1  0.34209747  0.12400928  0.99852577  1
  Pr  Pr70  1  0.16927546  0.87195939  0.49695042  1
  Pr  Pr71  1  0.66485204  0.37289404  0.00329368  1
  Mn  Mn72  1  0.00289979  0.00191740  0.16342404  1
  Mn  Mn73  1  0.00024526  0.00033493  0.49791029  1
  Mn  Mn74  1  0.00113300  0.00062350  0.83129286  1
  Mn  Mn75  1  -0.00397774  0.49728119  0.16357635  1
  Mn  Mn76  1  -0.00339925  0.49996149  0.49666361  1
  Mn  Mn77  1  0.00179947  0.50077177  0.82999354  1
  Mn  Mn78  1  0.33411278  0.00349873  0.16827212  1
  Mn  Mn79  1  0.33061651  0.00263139  0.49872103  1
  Mn  Mn80  1  0.33352943  -0.00067543  0.83590458  1
  Mn  Mn81  1  0.33091588  0.49573569  0.16628003  1
  Mn  Mn82  1  0.33234068  0.49884060  0.50032650  1
  Mn  Mn83  1  0.33271981  0.50054667  0.83548475  1
  Mn  Mn84  1  0.67065469  0.00148257  0.16764275  1
  Mn  Mn85  1  0.66735249  -0.00102472  0.50080860  1
  Mn  Mn86  1  0.66958886  -0.00264830  0.83816161  1
  Mn  Mn87  1  0.66768199  0.49715362  0.16839427  1
  Mn  Mn88  1  0.66278331  0.50120880  0.49982435  1
  Mn  Mn89  1  0.66955267  0.50094829  0.83535667  1
  Mn  Mn90  1  0.00030479  0.24972598  0.16313915  1
  Mn  Mn91  1  0.00001509  0.24989217  0.49711369  1
  Mn  Mn92  1  0.00068473  0.24738446  0.83065081  1
  Mn  Mn93  1  -0.00157433  0.75110412  0.16546141  1
  Mn  Mn94  1  -0.00368549  0.75004681  0.49690829  1
  Mn  Mn95  1  0.00209534  0.75041818  0.83059215  1
  Mn  Mn96  1  0.33421442  0.24974785  0.16795127  1
  Mn  Mn97  1  0.33104574  0.25026256  0.49807774  1
  Mn  Mn98  1  0.33206305  0.24762683  0.83488735  1
  Mn  Mn99  1  0.33139652  0.75244935  0.16744163  1
  Mn  Mn100  1  0.33164215  0.74994706  0.49967455  1
  Mn  Mn101  1  0.33369638  0.75095555  0.83680774  1
  Mn  Mn102  1  0.66803689  0.25075050  0.16891256  1
  Mn  Mn103  1  0.66490302  0.25088146  0.49903928  1
  Mn  Mn104  1  0.67055884  0.25010964  0.83602760  1
  Mn  Mn105  1  0.66929016  0.75032492  0.16782403  1
  Mn  Mn106  1  0.66634889  0.74979422  0.50224658  1
  Mn  Mn107  1  0.66842878  0.75063794  0.83666590  1
  Mn  Mn108  1  0.16659923  0.24815696  0.00099467  1
  Mn  Mn109  1  0.16740215  0.24882116  0.33540729  1
  Mn  Mn110  1  0.16535354  0.24773256  0.66872050  1
  Mn  Mn111  1  0.17008073  0.75093896  0.00083615  1
  Mn  Mn112  1  0.16326538  0.75167051  0.33283063  1
  Mn  Mn113  1  0.16300911  0.75161620  0.66768564  1
  Mn  Mn114  1  0.50096487  0.25189170  0.00373045  1
  Mn  Mn115  1  0.49996908  0.24941423  0.33192553  1
  Mn  Mn116  1  0.50053073  0.24947272  0.66535692  1
  Mn  Mn117  1  0.50101048  0.74907817  -0.00193718  1
  Mn  Mn118  1  0.49764825  0.75108207  0.33550009  1
  Mn  Mn119  1  0.50067359  0.75211100  0.66809225  1
  Mn  Mn120  1  0.83416071  0.25071548  -0.00248812  1
  Mn  Mn121  1  0.83147843  0.25151249  0.32987237  1
  Mn  Mn122  1  0.83712284  0.24963144  0.66609202  1
  Mn  Mn123  1  0.83455953  0.75010302  -0.00047158  1
  Mn  Mn124  1  0.83285604  0.74988564  0.33224116  1
  Mn  Mn125  1  0.83479500  0.74918435  0.66586384  1
  Mn  Mn126  1  0.16770777  0.00323594  0.00163791  1
  Mn  Mn127  1  0.16783632  0.00226632  0.33485876  1
  Mn  Mn128  1  0.16538770  0.00049602  0.66877682  1
  Mn  Mn129  1  0.16863443  0.49763295  -0.00077720  1
  Mn  Mn130  1  0.16281211  0.49869826  0.33383334  1
  Mn  Mn131  1  0.16328229  0.49980546  0.66817288  1
  Mn  Mn132  1  0.50230374  -0.00066922  0.00149855  1
  Mn  Mn133  1  0.49901396  0.00291626  0.33494596  1
  Mn  Mn134  1  0.50111492  -0.00291051  0.66738360  1
  Mn  Mn135  1  0.50007014  0.49881468  0.00014022  1
  Mn  Mn136  1  0.49784251  0.49684253  0.33264584  1
  Mn  Mn137  1  0.49978413  0.50134132  0.66637702  1
  Mn  Mn138  1  0.83676098  0.00079814  -0.00169850  1
  Mn  Mn139  1  0.83392977  0.00071903  0.33080597  1
  Mn  Mn140  1  0.83698915  -0.00160433  0.66649452  1
  Mn  Mn141  1  0.83245287  0.49843382  -0.00117675  1
  Mn  Mn142  1  0.83042502  0.49869715  0.32986365  1
  Mn  Mn143  1  0.83537197  0.50215571  0.66612408  1
  O  O144  1  0.16428021  0.12606619  0.02841578  1
  O  O145  1  0.17003450  0.12641948  0.35976829  1
  O  O146  1  0.15448983  0.12263225  0.69365121  1
  O  O147  1  0.17372672  0.62398196  0.01172381  1
  O  O148  1  0.15485599  0.62392054  0.34129902  1
  O  O149  1  0.15408280  0.62661701  0.69206659  1
  O  O150  1  0.49793763  0.12975102  0.02394167  1
  O  O151  1  0.49503862  0.12999475  0.36014214  1
  O  O152  1  0.49478779  0.12178143  0.67334563  1
  O  O153  1  0.50021663  0.62271596  0.01406141  1
  O  O154  1  0.50486423  0.62310970  0.35536846  1
  O  O155  1  0.50452370  0.62899012  0.68790073  1
  O  O156  1  0.83199192  0.12579464  0.01767131  1
  O  O157  1  0.83015600  0.12630931  0.35552017  1
  O  O158  1  0.84558609  0.12421794  0.69059323  1
  O  O159  1  0.83225017  0.62503080  0.02417428  1
  O  O160  1  0.84305018  0.62568035  0.35348712  1
  O  O161  1  0.84395272  0.62737794  0.69319825  1
  O  O162  1  0.16506402  0.37120482  0.31323515  1
  O  O163  1  0.16102242  0.37057410  0.65136665  1
  O  O164  1  0.16995063  0.37107253  0.97268036  1
  O  O165  1  0.16361740  0.87947271  0.31298453  1
  O  O166  1  0.15988669  0.87919737  0.64086011  1
  O  O167  1  0.16991164  0.87886459  0.97706691  1
  O  O168  1  0.50811695  0.36804260  0.30469657  1
  O  O169  1  0.50020077  0.37493466  0.64749206  1
  O  O170  1  0.50693198  0.37601843  0.98777413  1
  O  O171  1  0.49512398  0.87904447  0.32812363  1
  O  O172  1  0.50053883  0.87427662  0.64489876  1
  O  O173  1  0.49897759  0.87010850  0.97767156  1
  O  O174  1  0.81779417  0.37605864  0.31433284  1
  O  O175  1  0.83989197  0.37623743  0.65364857  1
  O  O176  1  0.83213104  0.37412178  0.97044779  1
  O  O177  1  0.83314088  0.87451821  0.30928530  1
  O  O178  1  0.83928505  0.87126468  0.63870793  1
  O  O179  1  0.82829904  0.87378521  0.97420331  1
  O  O180  1  0.00521205  0.37270991  0.18565165  1
  O  O181  1  -0.00043840  0.37177576  0.52100289  1
  O  O182  1  -0.00207315  0.37331935  0.85645625  1
  O  O183  1  0.00176639  0.87720328  0.18487145  1
  O  O184  1  -0.00870286  0.87591222  0.52162953  1
  O  O185  1  -0.00175957  0.87681687  0.85945251  1
  O  O186  1  0.34052504  0.36838547  0.19402441  1
  O  O187  1  0.33915622  0.37304788  0.51243024  1
  O  O188  1  0.32436389  0.37397222  0.85407609  1
  O  O189  1  0.32855776  0.88420466  0.18478013  1
  O  O190  1  0.33224403  0.87862904  0.50898109  1
  O  O191  1  0.33208716  0.87561826  0.86163317  1
  O  O192  1  0.66366941  0.37242286  0.19478950  1
  O  O193  1  0.66164962  0.37751166  0.51072096  1
  O  O194  1  0.67807689  0.37745850  0.85771534  1
  O  O195  1  0.67743635  0.87652482  0.17751860  1
  O  O196  1  0.67477990  0.87223979  0.51103376  1
  O  O197  1  0.67102148  0.87188478  0.86224570  1
  O  O198  1  0.00594370  0.12531592  0.14634192  1
  O  O199  1  0.00150415  0.12414990  0.48407159  1
  O  O200  1  0.00139871  0.12243352  0.80408705  1
  O  O201  1  -0.00782318  0.62457653  0.15487052  1
  O  O202  1  -0.00687391  0.62896684  0.46995528  1
  O  O203  1  0.01027056  0.62627477  0.80773213  1
  O  O204  1  0.32545935  0.12851040  0.13977753  1
  O  O205  1  0.32344422  0.12684231  0.47539643  1
  O  O206  1  0.32710815  0.12129251  0.81226444  1
  O  O207  1  0.32909474  0.61881847  0.14367397  1
  O  O208  1  0.33986841  0.62249228  0.49019364  1
  O  O209  1  0.32781585  0.62716735  0.82441467  1
  O  O210  1  0.66295428  0.12743539  0.14188621  1
  O  O211  1  0.66540409  0.12537849  0.48037351  1
  O  O212  1  0.67492570  0.12166696  0.82669069  1
  O  O213  1  0.67167862  0.62291153  0.14412309  1
  O  O214  1  0.66332896  0.62607107  0.47650844  1
  O  O215  1  0.67402771  0.62802935  0.81132363  1
  O  O216  1  0.09495695  0.01431785  0.24167833  1
  O  O217  1  0.08414717  0.01943867  0.58094934  1
  O  O218  1  0.08705714  0.01618288  0.91248858  1
  O  O219  1  0.07225577  0.50461472  0.25524407  1
  O  O220  1  0.07160916  0.51295552  0.59196741  1
  O  O221  1  0.09194036  0.51024958  0.90831075  1
  O  O222  1  0.42105615  0.02833462  0.24535067  1
  O  O223  1  0.41338767  0.01910381  0.57658511  1
  O  O224  1  0.41529730  0.01306590  0.91992945  1
  O  O225  1  0.41833997  0.50312308  0.24688434  1
  O  O226  1  0.42510219  0.51066120  0.57408535  1
  O  O227  1  0.41841240  0.51843599  0.91513346  1
  O  O228  1  0.74936550  0.02213805  0.25175621  1
  O  O229  1  0.75915933  0.01395457  0.58005739  1
  O  O230  1  0.75119726  0.01827841  0.92251990  1
  O  O231  1  0.74832866  0.52527949  0.25056320  1
  O  O232  1  0.74746746  0.52452509  0.58775010  1
  O  O233  1  0.74655386  0.52522679  0.92254262  1
  O  O234  1  0.25793963  0.22967582  0.25671849  1
  O  O235  1  0.25026900  0.22417948  0.59222085  1
  O  O236  1  0.25405671  0.22610156  0.92713337  1
  O  O237  1  0.24018785  0.74816557  0.24640179  1
  O  O238  1  0.24276772  0.74609335  0.58278701  1
  O  O239  1  0.25724835  0.73321725  0.92503256  1
  O  O240  1  0.58793001  0.22244872  0.25890229  1
  O  O241  1  0.58032109  0.23816468  0.57792452  1
  O  O242  1  0.59373145  0.23989542  0.93367229  1
  O  O243  1  0.58478375  0.73784114  0.25760159  1
  O  O244  1  0.58544478  0.72885467  0.58661543  1
  O  O245  1  0.58199734  0.72593842  0.91363877  1
  O  O246  1  0.91763418  0.24540294  0.24453909  1
  O  O247  1  0.91930346  0.22787497  0.58193076  1
  O  O248  1  0.91526689  0.23093786  0.90647354  1
  O  O249  1  0.90539641  0.73857706  0.23996588  1
  O  O250  1  0.90847483  0.72688032  0.57236827  1
  O  O251  1  0.90820825  0.73574012  0.90468138  1
  O  O252  1  0.08403281  0.47751543  0.07930293  1
  O  O253  1  0.07946763  0.48078197  0.41607751  1
  O  O254  1  0.08197850  0.47336134  0.75021648  1
  O  O255  1  0.08503313  0.97720625  0.07978543  1
  O  O256  1  0.07956992  0.97740129  0.41620719  1
  O  O257  1  0.08199070  0.97418100  0.74950964  1
  O  O258  1  0.41038565  0.47716876  0.07933285  1
  O  O259  1  0.41517001  0.47495629  0.41020457  1
  O  O260  1  0.41603141  0.49729927  0.75211818  1
  O  O261  1  0.41069713  0.98927228  0.07892411  1
  O  O262  1  0.41030783  0.99378158  0.41252965  1
  O  O263  1  0.41809514  0.98474917  0.75390294  1
  O  O264  1  0.74618210  0.47740666  0.08483330  1
  O  O265  1  0.74153077  0.49557269  0.41096205  1
  O  O266  1  0.76258017  0.49056771  0.76099026  1
  O  O267  1  0.75786732  0.98348248  0.08448845  1
  O  O268  1  0.75402249  0.99142095  0.42078579  1
  O  O269  1  0.76052040  0.98509495  0.76073209  1
  O  O270  1  0.24667190  0.27422250  0.09210384  1
  O  O271  1  0.24570532  0.27043452  0.41983695  1
  O  O272  1  0.23847669  0.25801507  0.76141410  1
  O  O273  1  0.25024924  0.77587639  0.08338960  1
  O  O274  1  0.24489561  0.76431754  0.41652792  1
  O  O275  1  0.24324384  0.76389668  0.76390918  1
  O  O276  1  0.57651822  0.26895733  0.09636939  1
  O  O277  1  0.57308751  0.27060906  0.41691770  1
  O  O278  1  0.58958392  0.25712215  0.75634393  1
  O  O279  1  0.59276681  0.76196285  0.07409059  1
  O  O280  1  0.57601669  0.76241325  0.42745904  1
  O  O281  1  0.58260511  0.76419667  0.75588262  1
  O  O282  1  0.91903374  0.26882744  0.07337695  1
  O  O283  1  0.91566768  0.26586464  0.40930226  1
  O  O284  1  0.92265064  0.27150131  0.74543057  1
  O  O285  1  0.92220158  0.77563172  0.07425371  1
  O  O286  1  0.92000235  0.77545440  0.40842442  1
  O  O287  1  0.92381846  0.77177372  0.74008727  1
  O  O288  1  0.24831008  0.46891221  0.08523957  1
  O  O289  1  0.24850450  0.48519346  0.41533485  1
  O  O290  1  0.23918632  0.49203164  0.76354789  1
  O  O291  1  0.24657661  0.98251119  0.08921845  1
  O  O292  1  0.23914898  0.98577499  0.42735751  1
  O  O293  1  0.24199971  0.98479914  0.76236984  1
  O  O294  1  0.58346879  0.47986618  0.08715337  1
  O  O295  1  0.57545127  0.47873386  0.41951124  1
  O  O296  1  0.58832876  0.49814145  0.75060170  1
  O  O297  1  0.58900744  0.98850670  0.08410000  1
  O  O298  1  0.57522323  0.99147637  0.42336886  1
  O  O299  1  0.58427897  0.98175123  0.76202427  1
  O  O300  1  0.91953630  0.47707221  0.07340576  1
  O  O301  1  0.92018558  0.48165779  0.40181125  1
  O  O302  1  0.92609431  0.48305359  0.74000918  1
  O  O303  1  0.92145225  0.97732769  0.07459578  1
  O  O304  1  0.91461293  0.98124546  0.41526752  1
  O  O305  1  0.92155879  0.97392948  0.74568799  1
  O  O306  1  0.08203018  0.27428391  0.07748686  1
  O  O307  1  0.07901624  0.26870012  0.41148535  1
  O  O308  1  0.07969402  0.27141058  0.74769245  1
  O  O309  1  0.08766451  0.77118779  0.08364077  1
  O  O310  1  0.08366549  0.77538432  0.42172403  1
  O  O311  1  0.08364666  0.77883506  0.75037435  1
  O  O312  1  0.41182484  0.27234540  0.08141034  1
  O  O313  1  0.41116686  0.26977153  0.40178057  1
  O  O314  1  0.41164603  0.25203456  0.74469367  1
  O  O315  1  0.41087859  0.76228569  0.07390428  1
  O  O316  1  0.41707976  0.76133514  0.41920107  1
  O  O317  1  0.42003081  0.76476075  0.75746240  1
  O  O318  1  0.74238541  0.26844941  0.07743053  1
  O  O319  1  0.73711007  0.25961682  0.40667443  1
  O  O320  1  0.76274050  0.26013993  0.75721925  1
  O  O321  1  0.76207172  0.76781784  0.08917285  1
  O  O322  1  0.76069839  0.75803693  0.42693377  1
  O  O323  1  0.76248262  0.76469465  0.76303314  1
  O  O324  1  0.25672588  0.02625706  0.25513477  1
  O  O325  1  0.25007541  0.02547347  0.59063035  1
  O  O326  1  0.25373435  0.02329026  0.92620182  1
  O  O327  1  0.24616220  0.49814761  0.24799080  1
  O  O328  1  0.24424173  0.50645387  0.58786051  1
  O  O329  1  0.25815626  0.51557696  0.92622152  1
  O  O330  1  0.58509800  0.02251047  0.25442884  1
  O  O331  1  0.58245134  0.00864094  0.58038963  1
  O  O332  1  0.59183962  0.01036208  0.92628346  1
  O  O333  1  0.59019982  0.51227775  0.25885621  1
  O  O334  1  0.58313457  0.52440086  0.58253446  1
  O  O335  1  0.58608487  0.52032204  0.91630905  1
  O  O336  1  0.91538725  0.00708622  0.24258473  1
  O  O337  1  0.91941373  0.02093956  0.58083407  1
  O  O338  1  0.91339216  0.01726682  0.90749011  1
  O  O339  1  0.90774189  0.51185530  0.24184933  1
  O  O340  1  0.91112692  0.52432848  0.57498986  1
  O  O341  1  0.91124268  0.51529291  0.90097993  1
  O  O342  1  0.09625341  0.23716003  0.24106011  1
  O  O343  1  0.08589420  0.22886959  0.58300410  1
  O  O344  1  0.08644311  0.23150513  0.90916367  1
  O  O345  1  0.06881866  0.74276017  0.26036821  1
  O  O346  1  0.06727879  0.73741939  0.58893335  1
  O  O347  1  0.09230263  0.74121166  0.91172456  1
  O  O348  1  0.42540620  0.22384546  0.24296130  1
  O  O349  1  0.41704577  0.23044605  0.57302573  1
  O  O350  1  0.41420976  0.23883476  0.92252309  1
  O  O351  1  0.41235001  0.74410864  0.24979507  1
  O  O352  1  0.42345479  0.74073662  0.57844797  1
  O  O353  1  0.42018629  0.72811499  0.91423906  1
  O  O354  1  0.75079686  0.22696092  0.24668064  1
  O  O355  1  0.75825945  0.23295595  0.57834870  1
  O  O356  1  0.75260620  0.22870633  0.91806121  1
  O  O357  1  0.74633720  0.72472135  0.25849330  1
  O  O358  1  0.74722004  0.72302402  0.59121323  1
  O  O359  1  0.74500092  0.72648618  0.92702803  1
