# generated using pymatgen
data_Ba17Sr5La8Pr42Mn72O216
_symmetry_space_group_name_H-M   'P 1'
_cell_length_a   16.67762713
_cell_length_b   15.70649257
_cell_length_c   16.82777896
_cell_angle_alpha   90.00671725
_cell_angle_beta   89.98542271
_cell_angle_gamma   89.98863831
_symmetry_Int_Tables_number   1
_chemical_formula_structural   Ba17Sr5La8Pr42Mn72O216
_chemical_formula_sum   'Ba17 Sr5 La8 Pr42 Mn72 O216'
_cell_volume   4407.98640610
_cell_formula_units_Z   1
loop_
 _symmetry_equiv_pos_site_id
 _symmetry_equiv_pos_as_xyz
  1  'x, y, z'
loop_
 _atom_site_type_symbol
 _atom_site_label
 _atom_site_symmetry_multiplicity
 _atom_site_fract_x
 _atom_site_fract_y
 _atom_site_fract_z
 _atom_site_occupancy
  Ba  Ba0  1  0.00038574  0.12479265  0.66421767  1
  Ba  Ba1  1  0.00103640  0.37592841  0.66498146  1
  Ba  Ba2  1  0.33293643  0.37624722  0.33541997  1
  Ba  Ba3  1  0.50238007  0.62583338  0.83570044  1
  Ba  Ba4  1  0.33521077  0.12371982  0.66656416  1
  Ba  Ba5  1  0.66431455  0.62638773  0.33330664  1
  Ba  Ba6  1  -0.00162258  0.37458421  0.33346583  1
  Ba  Ba7  1  0.66896750  0.37571755  0.66674321  1
  Ba  Ba8  1  0.16704053  0.87257230  0.83074153  1
  Ba  Ba9  1  0.33515771  0.37703358  0.00422945  1
  Ba  Ba10  1  0.66812911  0.37441770  0.33671904  1
  Ba  Ba11  1  0.16512405  0.12314111  0.16495287  1
  Ba  Ba12  1  0.33307055  0.87612660  0.66807322  1
  Ba  Ba13  1  0.16693821  0.87432933  0.16304650  1
  Ba  Ba14  1  -0.00168447  0.62427444  0.33027573  1
  Ba  Ba15  1  0.83144900  0.62613734  0.16794449  1
  Ba  Ba16  1  0.49957399  0.12476001  0.50083495  1
  Sr  Sr17  1  0.83527589  0.37448423  0.49971327  1
  Sr  Sr18  1  -0.00017588  0.62567830  0.66196970  1
  Sr  Sr19  1  0.66440106  0.12653827  0.33085718  1
  Sr  Sr20  1  0.83100181  0.12447385  0.16968443  1
  Sr  Sr21  1  0.66694945  0.62632968  0.66421800  1
  La  La22  1  0.83248948  0.87558676  0.82853849  1
  La  La23  1  0.33877416  0.87349286  0.00313997  1
  La  La24  1  0.83469285  0.37450037  0.82867303  1
  La  La25  1  0.32844076  0.12517057  0.99806340  1
  La  La26  1  0.49594707  0.12832341  0.17329014  1
  La  La27  1  0.16765593  0.12377308  0.83254399  1
  La  La28  1  0.83720675  0.87605806  0.49907269  1
  La  La29  1  0.66635366  0.12323258  0.99981300  1
  Pr  Pr30  1  0.16706124  0.12815932  0.50069217  1
  Pr  Pr31  1  0.66913962  0.62636453  0.99663475  1
  Pr  Pr32  1  0.50888713  0.37382111  0.16951462  1
  Pr  Pr33  1  0.16624702  0.87465045  0.49762002  1
  Pr  Pr34  1  0.33966765  0.37515403  0.66949322  1
  Pr  Pr35  1  0.50641807  0.37269010  0.50087249  1
  Pr  Pr36  1  0.49849510  0.12517673  0.83503089  1
  Pr  Pr37  1  0.50423567  0.87727154  0.50035189  1
  Pr  Pr38  1  0.83162105  0.87236741  0.16487886  1
  Pr  Pr39  1  0.50456002  0.37503652  0.83223440  1
  Pr  Pr40  1  0.16456316  0.37292820  0.49737537  1
  Pr  Pr41  1  0.83570486  0.61998844  0.83448460  1
  Pr  Pr42  1  0.66527770  0.87546032  0.66851291  1
  Pr  Pr43  1  0.83227250  0.61829095  0.50118964  1
  Pr  Pr44  1  0.32714360  0.62641696  0.33500738  1
  Pr  Pr45  1  0.50179828  0.87472628  0.83103611  1
  Pr  Pr46  1  0.50421640  0.87689278  0.16811080  1
  Pr  Pr47  1  0.16335253  0.62213524  0.16725100  1
  Pr  Pr48  1  0.32994649  0.62865373  0.66482092  1
  Pr  Pr49  1  0.49813687  0.62015187  0.50818054  1
  Pr  Pr50  1  0.83711981  0.12980621  0.83638624  1
  Pr  Pr51  1  0.15999868  0.62038081  0.49889971  1
  Pr  Pr52  1  0.00235241  0.12110115  0.99469554  1
  Pr  Pr53  1  0.66667147  0.87334058  0.00113658  1
  Pr  Pr54  1  0.17301422  0.37563468  0.82780615  1
  Pr  Pr55  1  0.66798325  0.12468430  0.66247863  1
  Pr  Pr56  1  0.33231220  0.87723826  0.33767076  1
  Pr  Pr57  1  0.66690148  0.37678840  0.00264284  1
  Pr  Pr58  1  0.33077774  0.12428952  0.33269561  1
  Pr  Pr59  1  0.16308426  0.37711294  0.16293134  1
  Pr  Pr60  1  0.67191034  0.87782598  0.33453344  1
  Pr  Pr61  1  -0.00252582  0.37273757  0.00275489  1
  Pr  Pr62  1  0.00127698  0.62909562  0.99604783  1
  Pr  Pr63  1  0.49463946  0.62294117  0.17193270  1
  Pr  Pr64  1  0.83053374  0.13107581  0.49846200  1
  Pr  Pr65  1  -0.00024485  0.87483958  0.32960976  1
  Pr  Pr66  1  0.82803138  0.37762875  0.16978664  1
  Pr  Pr67  1  0.00056968  0.87299197  0.66873762  1
  Pr  Pr68  1  0.32620476  0.62645496  0.99758346  1
  Pr  Pr69  1  -0.00348765  0.12639666  0.33018136  1
  Pr  Pr70  1  0.16770485  0.62523134  0.82934134  1
  Pr  Pr71  1  -0.00197160  0.87654218  0.00138762  1
  Mn  Mn72  1  -0.00344815  0.00163133  0.16465893  1
  Mn  Mn73  1  0.00135909  -0.00176115  0.49705902  1
  Mn  Mn74  1  -0.00083354  -0.00127576  0.83132987  1
  Mn  Mn75  1  -0.00207613  0.49720125  0.16313683  1
  Mn  Mn76  1  -0.00139099  0.50022268  0.49940378  1
  Mn  Mn77  1  0.00199888  0.50148758  0.83404772  1
  Mn  Mn78  1  0.33455624  -0.00066174  0.16709594  1
  Mn  Mn79  1  0.33175319  -0.00184510  0.49976868  1
  Mn  Mn80  1  0.33480855  0.00098757  0.83596861  1
  Mn  Mn81  1  0.33348308  0.50059074  0.16865289  1
  Mn  Mn82  1  0.33224498  0.50081317  0.50368721  1
  Mn  Mn83  1  0.33529352  0.50048258  0.83438535  1
  Mn  Mn84  1  0.66578980  0.00039784  0.16667274  1
  Mn  Mn85  1  0.66922679  -0.00039349  0.50026906  1
  Mn  Mn86  1  0.66728364  0.00051251  0.83275223  1
  Mn  Mn87  1  0.66482241  0.50046425  0.16582882  1
  Mn  Mn88  1  0.66661908  0.50175501  0.50130340  1
  Mn  Mn89  1  0.66881102  0.50105333  0.83548691  1
  Mn  Mn90  1  -0.00283309  0.24893012  0.16505321  1
  Mn  Mn91  1  0.00011345  0.24885047  0.49750026  1
  Mn  Mn92  1  0.00211579  0.25078998  0.83494711  1
  Mn  Mn93  1  -0.00135086  0.75150193  0.16352890  1
  Mn  Mn94  1  -0.00041165  0.75100716  0.49931312  1
  Mn  Mn95  1  -0.00128145  0.74823238  0.83011442  1
  Mn  Mn96  1  0.33210007  0.25126171  0.16738694  1
  Mn  Mn97  1  0.33237287  0.25201985  0.50168435  1
  Mn  Mn98  1  0.33538164  0.25122761  0.83483285  1
  Mn  Mn99  1  0.33525919  0.74888258  0.16786629  1
  Mn  Mn100  1  0.33350480  0.74927751  0.49895724  1
  Mn  Mn101  1  0.33511758  0.74861373  0.83445351  1
  Mn  Mn102  1  0.66745054  0.24860532  0.16620350  1
  Mn  Mn103  1  0.66779408  0.24838983  0.49992436  1
  Mn  Mn104  1  0.66716334  0.24688453  0.83560458  1
  Mn  Mn105  1  0.66346340  0.75171852  0.16672235  1
  Mn  Mn106  1  0.66657725  0.75150852  0.50026757  1
  Mn  Mn107  1  0.66937357  0.75044193  0.83283878  1
  Mn  Mn108  1  0.16497406  0.25101521  -0.00234632  1
  Mn  Mn109  1  0.16584906  0.24834630  0.33255473  1
  Mn  Mn110  1  0.16949347  0.25152542  0.66580413  1
  Mn  Mn111  1  0.16638931  0.75002084  -0.00260654  1
  Mn  Mn112  1  0.16674100  0.75008158  0.33034973  1
  Mn  Mn113  1  0.16528134  0.74757184  0.66260809  1
  Mn  Mn114  1  0.50195558  0.24884837  0.00258305  1
  Mn  Mn115  1  0.49816542  0.25031768  0.33535214  1
  Mn  Mn116  1  0.50203526  0.25073715  0.66923242  1
  Mn  Mn117  1  0.50214325  0.75010562  0.00439993  1
  Mn  Mn118  1  0.49735711  0.75166692  0.33607466  1
  Mn  Mn119  1  0.50032903  0.75009567  0.66733586  1
  Mn  Mn120  1  0.83290212  0.24888833  0.00182527  1
  Mn  Mn121  1  0.83238784  0.24749303  0.33268646  1
  Mn  Mn122  1  0.83386683  0.24920872  0.66783511  1
  Mn  Mn123  1  0.83360058  0.75092690  -0.00296106  1
  Mn  Mn124  1  0.83293756  0.75322404  0.33332908  1
  Mn  Mn125  1  0.83257121  0.74936955  0.66490815  1
  Mn  Mn126  1  0.16703915  -0.00117359  -0.00261866  1
  Mn  Mn127  1  0.16538711  -0.00163599  0.33386975  1
  Mn  Mn128  1  0.16603849  0.00025928  0.66459704  1
  Mn  Mn129  1  0.16339631  0.50158591  -0.00275493  1
  Mn  Mn130  1  0.16665974  0.50010624  0.33171582  1
  Mn  Mn131  1  0.16847282  0.50011390  0.66476621  1
  Mn  Mn132  1  0.50116381  0.00058111  0.00177973  1
  Mn  Mn133  1  0.49867092  -0.00056740  0.33284475  1
  Mn  Mn134  1  0.50262482  -0.00135777  0.66811684  1
  Mn  Mn135  1  0.50168100  0.50030850  0.00404589  1
  Mn  Mn136  1  0.49783748  0.50221907  0.33832775  1
  Mn  Mn137  1  0.49999977  0.50076212  0.66984590  1
  Mn  Mn138  1  0.83219922  0.00035658  -0.00033391  1
  Mn  Mn139  1  0.83324961  0.00023765  0.33190848  1
  Mn  Mn140  1  0.83333844  0.00017517  0.66473466  1
  Mn  Mn141  1  0.83406500  0.49913156  -0.00064481  1
  Mn  Mn142  1  0.83231197  0.50007734  0.33429675  1
  Mn  Mn143  1  0.83375143  0.50111470  0.66801845  1
  O  O144  1  0.16658977  0.12373366  0.00755156  1
  O  O145  1  0.16394006  0.12090702  0.35705507  1
  O  O146  1  0.16571779  0.12907029  0.68780753  1
  O  O147  1  0.16625491  0.62619293  0.02346246  1
  O  O148  1  0.16781055  0.62755887  0.35305697  1
  O  O149  1  0.16529779  0.62265938  0.68641060  1
  O  O150  1  0.50486749  0.12304716  0.02941732  1
  O  O151  1  0.49467413  0.12448750  0.34452181  1
  O  O152  1  0.50810310  0.12353298  0.68945563  1
  O  O153  1  0.51261589  0.62951664  0.02893253  1
  O  O154  1  0.49352569  0.63169539  0.36443165  1
  O  O155  1  0.49604170  0.62549498  0.67781876  1
  O  O156  1  0.83422645  0.12319579  0.02199191  1
  O  O157  1  0.83579783  0.11985899  0.35427846  1
  O  O158  1  0.82798615  0.12161338  0.69216564  1
  O  O159  1  0.83515080  0.62655493  0.01348951  1
  O  O160  1  0.83214196  0.63308255  0.35307970  1
  O  O161  1  0.83283192  0.62863631  0.69122174  1
  O  O162  1  0.16748624  0.37461256  0.30818998  1
  O  O163  1  0.17672312  0.37754178  0.64202496  1
  O  O164  1  0.15742043  0.37896729  0.97148105  1
  O  O165  1  0.17423417  0.87227589  0.31791243  1
  O  O166  1  0.16117567  0.87090442  0.64348987  1
  O  O167  1  0.16693791  0.87334417  0.98731131  1
  O  O168  1  0.49924884  0.37359395  0.31348403  1
  O  O169  1  0.49634072  0.37737416  0.64845249  1
  O  O170  1  0.50791094  0.37005470  0.97404364  1
  O  O171  1  0.49258153  0.87463911  0.30915159  1
  O  O172  1  0.50771108  0.87423229  0.64750982  1
  O  O173  1  0.49962847  0.87661018  0.97375326  1
  O  O174  1  0.83281919  0.36930749  0.31612261  1
  O  O175  1  0.83432014  0.37401147  0.65406022  1
  O  O176  1  0.83047810  0.37300328  0.97131463  1
  O  O177  1  0.83317798  0.87868716  0.30925802  1
  O  O178  1  0.83325639  0.87601913  0.64214021  1
  O  O179  1  0.83069274  0.87638687  0.97081696  1
  O  O180  1  0.00748843  0.37209822  0.17694523  1
  O  O181  1  0.00160893  0.37492134  0.50777837  1
  O  O182  1  0.00227301  0.37810381  0.85883867  1
  O  O183  1  -0.00513917  0.87819160  0.18389937  1
  O  O184  1  -0.00122836  0.87443842  0.52636347  1
  O  O185  1  -0.00607484  0.87377075  0.85736609  1
  O  O186  1  0.32156361  0.37597731  0.17928031  1
  O  O187  1  0.31801318  0.38119908  0.52641253  1
  O  O188  1  0.33225131  0.37656657  0.84904037  1
  O  O189  1  0.33887786  0.87019453  0.19295627  1
  O  O190  1  0.31888503  0.87125543  0.51234261  1
  O  O191  1  0.34158312  0.87556666  0.85815885  1
  O  O192  1  0.66653955  0.37406917  0.17835008  1
  O  O193  1  0.66128640  0.37429820  0.51010488  1
  O  O194  1  0.66776516  0.37184218  0.85910826  1
  O  O195  1  0.66323296  0.87801607  0.18974737  1
  O  O196  1  0.66775974  0.87547968  0.52524452  1
  O  O197  1  0.66879677  0.87757690  0.85926730  1
  O  O198  1  -0.00612362  0.12590784  0.13822027  1
  O  O199  1  0.00928333  0.11900912  0.47423248  1
  O  O200  1  -0.00415572  0.12216585  0.82114869  1
  O  O201  1  0.00292393  0.62345770  0.14128562  1
  O  O202  1  0.00166228  0.62828634  0.48671763  1
  O  O203  1  -0.00680534  0.62546321  0.81093469  1
  O  O204  1  0.34132264  0.12768468  0.14199749  1
  O  O205  1  0.32929227  0.12195959  0.47734944  1
  O  O206  1  0.33771176  0.12750146  0.82404115  1
  O  O207  1  0.34311308  0.62569498  0.14003015  1
  O  O208  1  0.34722391  0.62610762  0.47740284  1
  O  O209  1  0.33166864  0.62194072  0.81072336  1
  O  O210  1  0.66282598  0.12268393  0.14253831  1
  O  O211  1  0.67350198  0.12082520  0.48170229  1
  O  O212  1  0.66269297  0.12073502  0.80592651  1
  O  O213  1  0.65944511  0.62593101  0.14095073  1
  O  O214  1  0.66293257  0.62957696  0.48963800  1
  O  O215  1  0.67423090  0.62839087  0.81568011  1
  O  O216  1  0.07686114  0.01098387  0.25776997  1
  O  O217  1  0.08853504  0.01187552  0.57300185  1
  O  O218  1  0.08347629  0.01633189  0.91023348  1
  O  O219  1  0.08949916  0.51090641  0.23539761  1
  O  O220  1  0.08609566  0.51245362  0.58032494  1
  O  O221  1  0.08319405  0.53107823  0.91551193  1
  O  O222  1  0.41234027  0.02004337  0.25073176  1
  O  O223  1  0.42011865  0.00000201  0.57995089  1
  O  O224  1  0.41670929  0.02314778  0.92571104  1
  O  O225  1  0.41234506  0.52360866  0.26201098  1
  O  O226  1  0.40705989  0.51570819  0.59377871  1
  O  O227  1  0.41369225  0.51857084  0.93008212  1
  O  O228  1  0.74430194  0.01150633  0.25146636  1
  O  O229  1  0.75232425  0.02114172  0.58286474  1
  O  O230  1  0.75088302  0.02438531  0.91361776  1
  O  O231  1  0.74802750  0.50508889  0.24602205  1
  O  O232  1  0.74996208  0.51844138  0.58444641  1
  O  O233  1  0.75370184  0.52085648  0.91720291  1
  O  O234  1  0.25143175  0.22882294  0.25619926  1
  O  O235  1  0.24524829  0.23245620  0.57848373  1
  O  O236  1  0.24599415  0.23552139  0.91113203  1
  O  O237  1  0.24809913  0.72302804  0.24242941  1
  O  O238  1  0.24790112  0.72366561  0.57481016  1
  O  O239  1  0.24860108  0.72713894  0.91279037  1
  O  O240  1  0.57680649  0.23695704  0.24268056  1
  O  O241  1  0.58817723  0.23599022  0.58995622  1
  O  O242  1  0.58386541  0.22251737  0.91773818  1
  O  O243  1  0.56850903  0.73676619  0.24416799  1
  O  O244  1  0.57591605  0.73935350  0.57610920  1
  O  O245  1  0.59175793  0.73903348  0.92504539  1
  O  O246  1  0.91554111  0.23110944  0.24863859  1
  O  O247  1  0.91270211  0.23375548  0.57504744  1
  O  O248  1  0.91628948  0.23043908  0.92267492  1
  O  O249  1  0.91546257  0.74849898  0.24853728  1
  O  O250  1  0.91350771  0.73442122  0.58115686  1
  O  O251  1  0.91914418  0.73024045  0.91692495  1
  O  O252  1  0.07668656  0.48088344  0.07429515  1
  O  O253  1  0.08930604  0.48923292  0.42020521  1
  O  O254  1  0.09392037  0.48579241  0.75841726  1
  O  O255  1  0.07405968  0.98932372  0.07272320  1
  O  O256  1  0.08346085  0.97056913  0.41592636  1
  O  O257  1  0.07605735  0.98287275  0.74184116  1
  O  O258  1  0.42623781  0.48416809  0.09981526  1
  O  O259  1  0.42279630  0.48027158  0.43630269  1
  O  O260  1  0.42132156  0.47770194  0.75595175  1
  O  O261  1  0.42355691  0.97582623  0.08588430  1
  O  O262  1  0.41463321  0.97794272  0.41635516  1
  O  O263  1  0.42594967  0.98887027  0.76219933  1
  O  O264  1  0.74856457  0.48112742  0.07943863  1
  O  O265  1  0.75306398  0.49691212  0.42405426  1
  O  O266  1  0.75592163  0.48726868  0.75921541  1
  O  O267  1  0.74861319  0.97723603  0.08083707  1
  O  O268  1  0.75311465  0.97682211  0.41865346  1
  O  O269  1  0.74685605  0.97718488  0.74836442  1
  O  O270  1  0.24410279  0.26293765  0.08342784  1
  O  O271  1  0.24565804  0.26194636  0.42066731  1
  O  O272  1  0.25543089  0.27149275  0.74526035  1
  O  O273  1  0.26314964  0.76085393  0.07593497  1
  O  O274  1  0.25734570  0.76017687  0.40848321  1
  O  O275  1  0.24853773  0.75164006  0.74334973  1
  O  O276  1  0.58836703  0.26978138  0.07832553  1
  O  O277  1  0.58020600  0.26009964  0.42054044  1
  O  O278  1  0.58009627  0.26514304  0.76016936  1
  O  O279  1  0.58544893  0.77891763  0.08261628  1
  O  O280  1  0.58593298  0.77851789  0.41145705  1
  O  O281  1  0.58702622  0.77133947  0.75190097  1
  O  O282  1  0.91235891  0.27593906  0.08377765  1
  O  O283  1  0.91931555  0.24748695  0.41426101  1
  O  O284  1  0.91567879  0.26151175  0.75847571  1
  O  O285  1  0.91312901  0.77450340  0.07980951  1
  O  O286  1  0.91826745  0.77545737  0.41630143  1
  O  O287  1  0.91367120  0.77400880  0.74967243  1
  O  O288  1  0.23899269  0.49096465  0.08630254  1
  O  O289  1  0.24958367  0.49491647  0.42242341  1
  O  O290  1  0.25519554  0.48243207  0.74457289  1
  O  O291  1  0.26016787  0.98841652  0.07844734  1
  O  O292  1  0.24849498  0.98189281  0.41617184  1
  O  O293  1  0.24781475  0.99601873  0.75334649  1
  O  O294  1  0.58466896  0.47483171  0.08222713  1
  O  O295  1  0.57867901  0.49078416  0.42135234  1
  O  O296  1  0.58201755  0.48512937  0.75877530  1
  O  O297  1  0.58701093  0.97643196  0.07812552  1
  O  O298  1  0.58505037  0.97728253  0.41679459  1
  O  O299  1  0.58582679  0.97463244  0.75366263  1
  O  O300  1  0.91264034  0.47329577  0.08219338  1
  O  O301  1  0.91299995  0.49626758  0.42133798  1
  O  O302  1  0.91489831  0.48658362  0.75842435  1
  O  O303  1  0.91091105  0.97400347  0.08038155  1
  O  O304  1  0.92252645  0.97692663  0.41164310  1
  O  O305  1  0.91442887  0.97750708  0.74878652  1
  O  O306  1  0.08103599  0.26873295  0.07913103  1
  O  O307  1  0.08945546  0.26160295  0.42023484  1
  O  O308  1  0.09564246  0.26708743  0.75704575  1
  O  O309  1  0.07356997  0.76269723  0.07063244  1
  O  O310  1  0.08392145  0.77259700  0.41411472  1
  O  O311  1  0.07450011  0.76264778  0.74147964  1
  O  O312  1  0.42843856  0.26705076  0.09316948  1
  O  O313  1  0.41940584  0.26830158  0.42633957  1
  O  O314  1  0.42197677  0.26903598  0.75687814  1
  O  O315  1  0.42568415  0.77152403  0.09371091  1
  O  O316  1  0.42045179  0.77948257  0.42298839  1
  O  O317  1  0.42359982  0.76622566  0.75976867  1
  O  O318  1  0.75079551  0.27116558  0.08106597  1
  O  O319  1  0.75582559  0.25478535  0.42316569  1
  O  O320  1  0.75392819  0.25942473  0.76045010  1
  O  O321  1  0.74934810  0.77162951  0.07716061  1
  O  O322  1  0.75120981  0.77526658  0.41718949  1
  O  O323  1  0.74964267  0.77515509  0.74718925  1
  O  O324  1  0.25359813  0.01423149  0.25796425  1
  O  O325  1  0.24598587  0.01442247  0.57674159  1
  O  O326  1  0.25214372  0.01720119  0.91657838  1
  O  O327  1  0.25031393  0.52585244  0.24827914  1
  O  O328  1  0.24895845  0.53169285  0.58106238  1
  O  O329  1  0.24627058  0.52185028  0.91352136  1
  O  O330  1  0.57675617  0.01355488  0.24391433  1
  O  O331  1  0.59273982  0.01140904  0.59046795  1
  O  O332  1  0.58131087  0.02202195  0.91530578  1
  O  O333  1  0.57370779  0.51354103  0.24065050  1
  O  O334  1  0.57642025  0.51217862  0.58152897  1
  O  O335  1  0.59383042  0.51460396  0.92506407  1
  O  O336  1  0.91621870  0.01901992  0.25013340  1
  O  O337  1  0.91258400  0.01518424  0.57113144  1
  O  O338  1  0.91669960  0.01885695  0.91881249  1
  O  O339  1  0.91490458  0.50178602  0.24453205  1
  O  O340  1  0.91361841  0.51769770  0.58274430  1
  O  O341  1  0.92042061  0.51904850  0.92011432  1
  O  O342  1  0.07771981  0.23066870  0.25371799  1
  O  O343  1  0.08752496  0.24022254  0.57824536  1
  O  O344  1  0.08041502  0.22885406  0.91815642  1
  O  O345  1  0.08646188  0.73751610  0.24165391  1
  O  O346  1  0.08761677  0.73396606  0.57612770  1
  O  O347  1  0.08350321  0.72670422  0.90815183  1
  O  O348  1  0.41220506  0.23230775  0.25523638  1
  O  O349  1  0.41472360  0.24993804  0.58795258  1
  O  O350  1  0.41865514  0.22848774  0.92373710  1
  O  O351  1  0.40883992  0.72609364  0.25883641  1
  O  O352  1  0.41129969  0.73339638  0.58623888  1
  O  O353  1  0.41139206  0.73311252  0.93487875  1
  O  O354  1  0.74852134  0.23477529  0.24801805  1
  O  O355  1  0.74877021  0.22854720  0.58587769  1
  O  O356  1  0.74925014  0.22319166  0.91867263  1
  O  O357  1  0.74459300  0.74911353  0.24903931  1
  O  O358  1  0.75256796  0.73316621  0.58166441  1
  O  O359  1  0.75514424  0.73049101  0.91263792  1
