# generated using pymatgen
data_Ba17Sr5La8Pr42Mn72O216
_symmetry_space_group_name_H-M   'P 1'
_cell_length_a   16.69834264
_cell_length_b   15.71292731
_cell_length_c   16.84234910
_cell_angle_alpha   89.99310292
_cell_angle_beta   90.00817726
_cell_angle_gamma   90.02022438
_symmetry_Int_Tables_number   1
_chemical_formula_structural   Ba17Sr5La8Pr42Mn72O216
_chemical_formula_sum   'Ba17 Sr5 La8 Pr42 Mn72 O216'
_cell_volume   4419.09257771
_cell_formula_units_Z   1
loop_
 _symmetry_equiv_pos_site_id
 _symmetry_equiv_pos_as_xyz
  1  'x, y, z'
loop_
 _atom_site_type_symbol
 _atom_site_label
 _atom_site_symmetry_multiplicity
 _atom_site_fract_x
 _atom_site_fract_y
 _atom_site_fract_z
 _atom_site_occupancy
  Ba  Ba0  1  0.49609766  0.12712755  0.49766672  1
  Ba  Ba1  1  0.33077521  0.12667311  0.33132351  1
  Ba  Ba2  1  0.33016104  0.62389606  0.33126687  1
  Ba  Ba3  1  0.33046132  0.12660454  1.00045328  1
  Ba  Ba4  1  0.50188709  0.87584738  0.83111686  1
  Ba  Ba5  1  0.32974381  0.62618896  0.66383493  1
  Ba  Ba6  1  0.50298714  0.37606271  0.50022669  1
  Ba  Ba7  1  0.33498703  0.87387370  0.66771679  1
  Ba  Ba8  1  0.00219028  0.87413486  0.33195413  1
  Ba  Ba9  1  0.66300708  0.12579201  0.33478332  1
  Ba  Ba10  1  -0.00454831  0.62482179  0.33477944  1
  Ba  Ba11  1  0.16580155  0.87476479  0.83214002  1
  Ba  Ba12  1  -0.00360791  0.12533069  0.33329819  1
  Ba  Ba13  1  0.50289030  0.87327739  0.16446208  1
  Ba  Ba14  1  -0.00408626  0.12356966  0.66759231  1
  Ba  Ba15  1  0.66943554  0.37486399  0.33473942  1
  Ba  Ba16  1  0.00399671  0.37615189  0.33475217  1
  Sr  Sr17  1  0.00484610  0.87270474  0.66772899  1
  Sr  Sr18  1  0.34287373  0.37361227  -0.00191022  1
  Sr  Sr19  1  -0.00529242  0.62682396  0.66690912  1
  Sr  Sr20  1  0.17725856  0.37483767  0.83074938  1
  Sr  Sr21  1  0.84161297  0.87669064  0.16799817  1
  La  La22  1  0.32675211  0.62523592  0.99475129  1
  La  La23  1  0.67563533  0.87467371  0.00620617  1
  La  La24  1  0.33698343  0.87602956  0.33434262  1
  La  La25  1  0.67245295  0.87517196  0.33579413  1
  La  La26  1  0.49321273  0.62123384  0.49961866  1
  La  La27  1  0.66161129  0.62454189  0.66780347  1
  La  La28  1  0.33885276  0.87703170  -0.00100521  1
  La  La29  1  0.15971843  0.12312296  0.49882802  1
  Pr  Pr30  1  0.15676126  0.12309868  0.83329115  1
  Pr  Pr31  1  0.84082946  0.87473829  0.83401863  1
  Pr  Pr32  1  0.66007702  0.12453936  0.66359923  1
  Pr  Pr33  1  0.32370109  0.12261175  0.66339165  1
  Pr  Pr34  1  0.48658078  0.62584947  0.83288937  1
  Pr  Pr35  1  0.82968565  0.62675507  0.50064336  1
  Pr  Pr36  1  0.01588277  0.37619593  0.00296399  1
  Pr  Pr37  1  0.17375990  0.37517519  0.49972081  1
  Pr  Pr38  1  0.65310473  0.62550212  0.99644008  1
  Pr  Pr39  1  0.50863627  0.37508326  0.83098023  1
  Pr  Pr40  1  0.65459072  0.12492764  1.00137169  1
  Pr  Pr41  1  0.15528455  0.62785046  0.83086594  1
  Pr  Pr42  1  0.83899315  0.37446322  0.49839251  1
  Pr  Pr43  1  0.17318882  0.87395086  0.16467422  1
  Pr  Pr44  1  0.15871502  0.12657447  0.16922468  1
  Pr  Pr45  1  0.67201512  0.87734555  0.67248230  1
  Pr  Pr46  1  0.33833972  0.37428805  0.33446303  1
  Pr  Pr47  1  0.84239804  0.87568275  0.50121609  1
  Pr  Pr48  1  0.34621604  0.37534111  0.67090990  1
  Pr  Pr49  1  0.82127212  0.12590679  0.83618935  1
  Pr  Pr50  1  0.84570767  0.37169554  0.16942314  1
  Pr  Pr51  1  0.82491779  0.12397053  0.17125675  1
  Pr  Pr52  1  0.84700537  0.37536505  0.83130800  1
  Pr  Pr53  1  0.17258459  0.87485504  0.50079112  1
  Pr  Pr54  1  0.15514747  0.62699804  0.50285325  1
  Pr  Pr55  1  0.50247860  0.37227711  0.17152908  1
  Pr  Pr56  1  0.01449750  0.37593456  0.66938395  1
  Pr  Pr57  1  -0.00935869  0.12587822  0.99413768  1
  Pr  Pr58  1  0.82768740  0.12363488  0.49913615  1
  Pr  Pr59  1  -0.01235221  0.62447973  0.99590056  1
  Pr  Pr60  1  0.67513815  0.37642125  0.00717515  1
  Pr  Pr61  1  0.65966418  0.62335494  0.33262968  1
  Pr  Pr62  1  0.67781597  0.37254700  0.66824035  1
  Pr  Pr63  1  0.82528895  0.62490682  0.17070956  1
  Pr  Pr64  1  0.50414969  0.87136935  0.49692843  1
  Pr  Pr65  1  0.48872124  0.12465920  0.83203666  1
  Pr  Pr66  1  0.49222198  0.12549155  0.17380759  1
  Pr  Pr67  1  0.01230345  0.87458554  0.00588856  1
  Pr  Pr68  1  0.49170128  0.62257994  0.16665661  1
  Pr  Pr69  1  0.82225133  0.62393254  0.83770044  1
  Pr  Pr70  1  0.17821297  0.37608572  0.16528185  1
  Pr  Pr71  1  0.15636038  0.62299371  0.16902734  1
  Mn  Mn72  1  0.00089549  0.00092029  0.16267326  1
  Mn  Mn73  1  -0.00050979  -0.00066252  0.50184237  1
  Mn  Mn74  1  -0.00358348  -0.00006134  0.83455083  1
  Mn  Mn75  1  0.00053945  0.49953716  0.16365921  1
  Mn  Mn76  1  -0.00156742  0.50026186  0.50490362  1
  Mn  Mn77  1  0.00054596  0.49976912  0.83378427  1
  Mn  Mn78  1  0.33270335  -0.00108331  0.16550231  1
  Mn  Mn79  1  0.33269271  -0.00020336  0.49937543  1
  Mn  Mn80  1  0.33070584  0.00210579  0.83211724  1
  Mn  Mn81  1  0.33412105  0.49968346  0.16196711  1
  Mn  Mn82  1  0.33068874  0.49938012  0.50002593  1
  Mn  Mn83  1  0.33192992  0.49885475  0.83324130  1
  Mn  Mn84  1  0.66899005  -0.00128975  0.16605753  1
  Mn  Mn85  1  0.66538905  -0.00306600  0.50537472  1
  Mn  Mn86  1  0.66664281  0.00158764  0.83609166  1
  Mn  Mn87  1  0.66766480  0.50131468  0.16425021  1
  Mn  Mn88  1  0.66896967  0.50235514  0.50201840  1
  Mn  Mn89  1  0.66724997  0.49766037  0.83542520  1
  Mn  Mn90  1  0.00212254  0.25072685  0.16234502  1
  Mn  Mn91  1  -0.00148209  0.25036739  0.50312050  1
  Mn  Mn92  1  0.00107741  0.25163748  0.83444715  1
  Mn  Mn93  1  -0.00055795  0.74945913  0.16379916  1
  Mn  Mn94  1  -0.00101322  0.75052042  0.50328058  1
  Mn  Mn95  1  -0.00415997  0.74796840  0.83407573  1
  Mn  Mn96  1  0.33389052  0.25214523  0.16460082  1
  Mn  Mn97  1  0.33026379  0.25016867  0.50144152  1
  Mn  Mn98  1  0.33335567  0.25142684  0.83200984  1
  Mn  Mn99  1  0.33190620  0.74848431  0.16295956  1
  Mn  Mn100  1  0.33260044  0.75014023  0.49719319  1
  Mn  Mn101  1  0.32991559  0.74816040  0.83265269  1
  Mn  Mn102  1  0.66803410  0.25189692  0.16388384  1
  Mn  Mn103  1  0.66796697  0.25058404  0.50439444  1
  Mn  Mn104  1  0.66723775  0.25079320  0.83645231  1
  Mn  Mn105  1  0.66897284  0.74822179  0.16620733  1
  Mn  Mn106  1  0.66697721  0.74943950  0.50263370  1
  Mn  Mn107  1  0.66598895  0.74982891  0.83490712  1
  Mn  Mn108  1  0.16774480  0.25108780  -0.00136709  1
  Mn  Mn109  1  0.16696954  0.25180254  0.33258168  1
  Mn  Mn110  1  0.16852215  0.25161691  0.66666080  1
  Mn  Mn111  1  0.16641980  0.74733573  0.00086073  1
  Mn  Mn112  1  0.16680885  0.74950945  0.33190401  1
  Mn  Mn113  1  0.16322242  0.74868947  0.66707706  1
  Mn  Mn114  1  0.50182457  0.25090417  -0.00144805  1
  Mn  Mn115  1  0.50000693  0.25073075  0.33335203  1
  Mn  Mn116  1  0.50222718  0.25090254  0.66920096  1
  Mn  Mn117  1  0.49950703  0.75026827  -0.00135843  1
  Mn  Mn118  1  0.50139723  0.74983814  0.33086114  1
  Mn  Mn119  1  0.50264178  0.74903281  0.66422810  1
  Mn  Mn120  1  0.83341544  0.25119139  -0.00043756  1
  Mn  Mn121  1  0.83314511  0.25026478  0.33424474  1
  Mn  Mn122  1  0.83436492  0.25086432  0.66870159  1
  Mn  Mn123  1  0.83288992  0.74881853  0.00186542  1
  Mn  Mn124  1  0.83082360  0.75024274  0.33493511  1
  Mn  Mn125  1  0.83212423  0.74936409  0.66978673  1
  Mn  Mn126  1  0.16586732  0.00156795  0.00064753  1
  Mn  Mn127  1  0.16693804  -0.00083048  0.33112898  1
  Mn  Mn128  1  0.16429976  -0.00033599  0.66703490  1
  Mn  Mn129  1  0.16871136  0.50024338  -0.00141391  1
  Mn  Mn130  1  0.16714620  0.49986713  0.33336338  1
  Mn  Mn131  1  0.16724814  0.50015546  0.66694222  1
  Mn  Mn132  1  0.50074844  0.00081266  -0.00052478  1
  Mn  Mn133  1  0.50109373  -0.00289968  0.33145371  1
  Mn  Mn134  1  0.50037626  0.00072549  0.66549523  1
  Mn  Mn135  1  0.50059486  0.49869400  -0.00167777  1
  Mn  Mn136  1  0.49991628  0.50173334  0.33251846  1
  Mn  Mn137  1  0.50344582  0.49960835  0.66789263  1
  Mn  Mn138  1  0.83365008  0.00158486  0.00065926  1
  Mn  Mn139  1  0.83225388  -0.00130038  0.33412935  1
  Mn  Mn140  1  0.83179103  -0.00085173  0.67015987  1
  Mn  Mn141  1  0.83280485  0.49799459  0.00105378  1
  Mn  Mn142  1  0.83178192  0.50113081  0.33495185  1
  Mn  Mn143  1  0.83481931  0.50034070  0.66831756  1
  O  O144  1  0.16000488  0.12742063  0.02476938  1
  O  O145  1  0.16644890  0.12764441  0.35351372  1
  O  O146  1  0.17203150  0.12831798  0.68648313  1
  O  O147  1  0.17351007  0.62371484  0.02706184  1
  O  O148  1  0.16577427  0.62337288  0.35689521  1
  O  O149  1  0.16118969  0.62264887  0.68511719  1
  O  O150  1  0.50546204  0.12641579  0.02669219  1
  O  O151  1  0.49652944  0.12415876  0.33458351  1
  O  O152  1  0.50980090  0.13050750  0.68974342  1
  O  O153  1  0.50030928  0.62438248  0.02205570  1
  O  O154  1  0.50303045  0.62747606  0.35246456  1
  O  O155  1  0.50750922  0.62121604  0.68945066  1
  O  O156  1  0.84126953  0.12893911  0.02766811  1
  O  O157  1  0.82970942  0.12486996  0.35202669  1
  O  O158  1  0.82694434  0.12635046  0.69393107  1
  O  O159  1  0.83917777  0.62045569  0.02729478  1
  O  O160  1  0.82354098  0.62687201  0.35482860  1
  O  O161  1  0.83045415  0.62418240  0.69608823  1
  O  O162  1  0.17360726  0.37613173  0.31027095  1
  O  O163  1  0.16522112  0.37603572  0.64564626  1
  O  O164  1  0.16316716  0.37630365  0.97868223  1
  O  O165  1  0.17391232  0.87341355  0.30906746  1
  O  O166  1  0.16453250  0.87375592  0.64978513  1
  O  O167  1  0.16165147  0.87236291  0.98759309  1
  O  O168  1  0.49997682  0.37802536  0.31593002  1
  O  O169  1  0.49727069  0.37570625  0.65795104  1
  O  O170  1  0.51052525  0.37616791  0.97477302  1
  O  O171  1  0.50828446  0.87132489  0.32150140  1
  O  O172  1  0.50984716  0.87169129  0.64376065  1
  O  O173  1  0.50231126  0.87381648  0.98788362  1
  O  O174  1  0.83563138  0.37622992  0.31470785  1
  O  O175  1  0.82642790  0.37687630  0.64246699  1
  O  O176  1  0.82448833  0.37443624  0.97277557  1
  O  O177  1  0.82827516  0.87247927  0.31835698  1
  O  O178  1  0.82256507  0.87209988  0.64562107  1
  O  O179  1  0.82689884  0.87628710  0.97698441  1
  O  O180  1  -0.00699577  0.37577018  0.17630395  1
  O  O181  1  -0.01258344  0.37592984  0.52596035  1
  O  O182  1  -0.00435243  0.37631011  0.85896755  1
  O  O183  1  -0.00016986  0.87439107  0.17193687  1
  O  O184  1  -0.00886177  0.87364796  0.51743970  1
  O  O185  1  -0.00940738  0.87288937  0.86164494  1
  O  O186  1  0.32761002  0.37704263  0.18698992  1
  O  O187  1  0.32275267  0.37440223  0.52738233  1
  O  O188  1  0.33423197  0.37521788  0.84807477  1
  O  O189  1  0.32242194  0.87168742  0.18636261  1
  O  O190  1  0.32519608  0.87487098  0.51110479  1
  O  O191  1  0.33051286  0.87242581  0.85316779  1
  O  O192  1  0.65311597  0.37891590  0.17438069  1
  O  O193  1  0.67264451  0.37776049  0.52443432  1
  O  O194  1  0.65879521  0.37474942  0.86454102  1
  O  O195  1  0.66813139  0.86915485  0.18755057  1
  O  O196  1  0.65383054  0.87025434  0.52981952  1
  O  O197  1  0.66974886  0.87898898  0.86322848  1
  O  O198  1  0.00959796  0.12770728  0.13813173  1
  O  O199  1  0.00566653  0.12602368  0.49238700  1
  O  O200  1  0.00394574  0.12831832  0.82578545  1
  O  O201  1  0.00524572  0.62229249  0.13950163  1
  O  O202  1  0.00685124  0.62493091  0.49280116  1
  O  O203  1  0.00112735  0.62136538  0.81821103  1
  O  O204  1  0.34367161  0.12798245  0.15738918  1
  O  O205  1  0.32500481  0.12564888  0.48909455  1
  O  O206  1  0.33901418  0.13055814  0.81003920  1
  O  O207  1  0.34149242  0.62221625  0.13946689  1
  O  O208  1  0.33841911  0.62500196  0.48843426  1
  O  O209  1  0.33817122  0.62160562  0.82275124  1
  O  O210  1  0.67643355  0.12775013  0.14500688  1
  O  O211  1  0.67848237  0.12305667  0.49583768  1
  O  O212  1  0.67509702  0.12810124  0.80777786  1
  O  O213  1  0.67864873  0.62352683  0.13958445  1
  O  O214  1  0.68024059  0.62897096  0.47702442  1
  O  O215  1  0.67682374  0.61935270  0.81155497  1
  O  O216  1  0.08215569  0.01401742  0.24834153  1
  O  O217  1  0.08277841  0.00696806  0.58541274  1
  O  O218  1  0.07160284  0.01508175  0.92733066  1
  O  O219  1  0.08125183  0.51309961  0.24963649  1
  O  O220  1  0.07098875  0.50797825  0.59735833  1
  O  O221  1  0.07365786  0.51972305  0.92967843  1
  O  O222  1  0.41119975  0.00091856  0.25076189  1
  O  O223  1  0.40679458  0.01456977  0.58784000  1
  O  O224  1  0.41258721  0.01192441  0.91416192  1
  O  O225  1  0.41680819  0.50929512  0.24604923  1
  O  O226  1  0.41277813  0.50704474  0.58429043  1
  O  O227  1  0.40861880  0.51576726  0.92699772  1
  O  O228  1  0.74583285  0.00861476  0.25394093  1
  O  O229  1  0.73882159  0.01171893  0.60092811  1
  O  O230  1  0.74158744  0.02559137  0.92785974  1
  O  O231  1  0.74121386  0.52044176  0.25611898  1
  O  O232  1  0.74255013  0.51964444  0.59676315  1
  O  O233  1  0.73829592  0.51900186  0.93051745  1
  O  O234  1  0.24085879  0.23819751  0.23817643  1
  O  O235  1  0.23728961  0.23151875  0.57368285  1
  O  O236  1  0.23672154  0.23346429  0.90211808  1
  O  O237  1  0.24047257  0.73043765  0.23387164  1
  O  O238  1  0.23906024  0.73871089  0.56907322  1
  O  O239  1  0.23944889  0.72592825  0.91404680  1
  O  O240  1  0.57524260  0.23915982  0.23146860  1
  O  O241  1  0.58388532  0.23979422  0.58674199  1
  O  O242  1  0.57594125  0.22465750  0.90669820  1
  O  O243  1  0.58093210  0.72206469  0.24065375  1
  O  O244  1  0.57876552  0.72105599  0.57420990  1
  O  O245  1  0.57650344  0.72499272  0.90680829  1
  O  O246  1  0.90974096  0.23580836  0.23031608  1
  O  O247  1  0.90074005  0.23338429  0.57474090  1
  O  O248  1  0.90175910  0.23215209  0.90763505  1
  O  O249  1  0.90826726  0.73413233  0.23429998  1
  O  O250  1  0.90496009  0.73451372  0.58005287  1
  O  O251  1  0.90436921  0.72708003  0.90892297  1
  O  O252  1  0.09553144  0.48050819  0.09033030  1
  O  O253  1  0.09126900  0.48567041  0.43445938  1
  O  O254  1  0.09416081  0.48442273  0.75884016  1
  O  O255  1  0.09384081  0.98177966  0.09064377  1
  O  O256  1  0.09468468  0.98536762  0.42340710  1
  O  O257  1  0.08479074  0.99564043  0.75593075  1
  O  O258  1  0.43259509  0.47935846  0.09066360  1
  O  O259  1  0.41387644  0.48631675  0.41582660  1
  O  O260  1  0.42768008  0.48550691  0.76284225  1
  O  O261  1  0.41618837  0.98760385  0.08365867  1
  O  O262  1  0.42178210  0.97805916  0.42121585  1
  O  O263  1  0.42405687  0.99848148  0.74927206  1
  O  O264  1  0.76409175  0.47664287  0.09493811  1
  O  O265  1  0.75879239  0.48619210  0.43172206  1
  O  O266  1  0.76023330  0.47584910  0.76279005  1
  O  O267  1  0.76142711  0.98597717  0.09005449  1
  O  O268  1  0.75176316  0.97796733  0.43326405  1
  O  O269  1  0.75913131  0.98013575  0.76460203  1
  O  O270  1  0.25616442  0.26852836  0.07716595  1
  O  O271  1  0.25326531  0.27380143  0.41090417  1
  O  O272  1  0.26559592  0.26459933  0.73272581  1
  O  O273  1  0.25684837  0.76917178  0.07282954  1
  O  O274  1  0.25601148  0.76876731  0.40744364  1
  O  O275  1  0.24759638  0.75141881  0.74987624  1
  O  O276  1  0.59757455  0.26300569  0.06795793  1
  O  O277  1  0.58636573  0.25557850  0.41576819  1
  O  O278  1  0.59549026  0.27294572  0.74745656  1
  O  O279  1  0.59836626  0.75816345  0.07197615  1
  O  O280  1  0.59272533  0.76443604  0.41357736  1
  O  O281  1  0.59572882  0.76085426  0.73656718  1
  O  O282  1  0.92777043  0.27059003  0.06613034  1
  O  O283  1  0.91822507  0.26145323  0.41747143  1
  O  O284  1  0.92440585  0.27530627  0.74126778  1
  O  O285  1  0.93092389  0.76204617  0.06553348  1
  O  O286  1  0.91457666  0.75785697  0.42058740  1
  O  O287  1  0.91565956  0.76965325  0.74828071  1
  O  O288  1  0.26073852  0.48279185  0.07112642  1
  O  O289  1  0.25543076  0.47664903  0.41159829  1
  O  O290  1  0.26127493  0.48234820  0.73672642  1
  O  O291  1  0.25564402  0.97986130  0.07619958  1
  O  O292  1  0.25533998  0.98040379  0.40910689  1
  O  O293  1  0.25333148  0.99870145  0.74515068  1
  O  O294  1  0.59830165  0.49267294  0.06630876  1
  O  O295  1  0.58949846  0.50124484  0.41278459  1
  O  O296  1  0.59764800  0.47797511  0.74458475  1
  O  O297  1  0.60042881  0.98826149  0.07156016  1
  O  O298  1  0.58911537  0.98017265  0.41514956  1
  O  O299  1  0.59822192  0.98776508  0.74282885  1
  O  O300  1  0.92840045  0.48080672  0.06660680  1
  O  O301  1  0.91786188  0.49119380  0.41875142  1
  O  O302  1  0.92466042  0.47622651  0.74082761  1
  O  O303  1  0.93195996  0.98790438  0.06366457  1
  O  O304  1  0.91379354  0.99028401  0.41726566  1
  O  O305  1  0.91805069  0.97894849  0.74711508  1
  O  O306  1  0.09336664  0.27427321  0.08966103  1
  O  O307  1  0.09282961  0.26486875  0.42840555  1
  O  O308  1  0.09478482  0.26573792  0.75597415  1
  O  O309  1  0.09350758  0.76435395  0.09066978  1
  O  O310  1  0.09342520  0.76482065  0.42787345  1
  O  O311  1  0.08023604  0.75523504  0.75776606  1
  O  O312  1  0.43001419  0.26987701  0.08959394  1
  O  O313  1  0.41130573  0.26697865  0.41831107  1
  O  O314  1  0.42973366  0.26733513  0.76057513  1
  O  O315  1  0.41478284  0.76306307  0.07956372  1
  O  O316  1  0.42065964  0.76895055  0.41843342  1
  O  O317  1  0.42498128  0.75349845  0.75007654  1
  O  O318  1  0.76141015  0.27372242  0.09042075  1
  O  O319  1  0.75813913  0.26173720  0.43368677  1
  O  O320  1  0.76059822  0.27398736  0.76418814  1
  O  O321  1  0.76146310  0.76618335  0.09244424  1
  O  O322  1  0.75176109  0.77639284  0.43046051  1
  O  O323  1  0.75559949  0.77117735  0.76201937  1
  O  O324  1  0.23949029  0.01538326  0.23633589  1
  O  O325  1  0.24135434  0.01485142  0.57687638  1
  O  O326  1  0.23577335  0.01956084  0.91061219  1
  O  O327  1  0.24248641  0.51535674  0.23305989  1
  O  O328  1  0.23307917  0.51536975  0.56955976  1
  O  O329  1  0.23814459  0.52132250  0.90604949  1
  O  O330  1  0.57754260  0.01516987  0.23668622  1
  O  O331  1  0.57937498  0.01622277  0.58150349  1
  O  O332  1  0.57808043  0.02706809  0.90761139  1
  O  O333  1  0.57859282  0.52245965  0.23718321  1
  O  O334  1  0.58136286  0.52346359  0.57652212  1
  O  O335  1  0.57186920  0.52368071  0.90407021  1
  O  O336  1  0.91058909  0.01614589  0.23125397  1
  O  O337  1  0.89949466  0.01222056  0.57719668  1
  O  O338  1  0.90217942  0.02071847  0.90715456  1
  O  O339  1  0.90533982  0.51315078  0.23326891  1
  O  O340  1  0.90348101  0.52023983  0.57657488  1
  O  O341  1  0.90161863  0.51807642  0.90736077  1
  O  O342  1  0.08289262  0.23777311  0.24892712  1
  O  O343  1  0.07637739  0.24711923  0.59130535  1
  O  O344  1  0.07395052  0.23532840  0.92877532  1
  O  O345  1  0.08065695  0.73553632  0.24906458  1
  O  O346  1  0.07801438  0.73789935  0.58821142  1
  O  O347  1  0.07441138  0.72832883  0.92678518  1
  O  O348  1  0.41515877  0.25148723  0.24887145  1
  O  O349  1  0.40413914  0.23893811  0.59781524  1
  O  O350  1  0.41629501  0.23867508  0.91920167  1
  O  O351  1  0.41469845  0.73697385  0.24406749  1
  O  O352  1  0.42180020  0.74146561  0.57735985  1
  O  O353  1  0.40972135  0.73299520  0.91938766  1
  O  O354  1  0.74947517  0.24209068  0.24797862  1
  O  O355  1  0.74152218  0.23619937  0.60035738  1
  O  O356  1  0.73985473  0.22736405  0.92859523  1
  O  O357  1  0.74005812  0.72994633  0.25828338  1
  O  O358  1  0.74253836  0.72885013  0.59327897  1
  O  O359  1  0.74318241  0.72681628  0.92889427  1
