# generated using pymatgen
data_Ba17Sr5La8Pr42Mn72O216
_symmetry_space_group_name_H-M   'P 1'
_cell_length_a   16.67304166
_cell_length_b   15.69972059
_cell_length_c   16.81762575
_cell_angle_alpha   89.99220399
_cell_angle_beta   90.00598361
_cell_angle_gamma   89.99370614
_symmetry_Int_Tables_number   1
_chemical_formula_structural   Ba17Sr5La8Pr42Mn72O216
_chemical_formula_sum   'Ba17 Sr5 La8 Pr42 Mn72 O216'
_cell_volume   4402.21686536
_cell_formula_units_Z   1
loop_
 _symmetry_equiv_pos_site_id
 _symmetry_equiv_pos_as_xyz
  1  'x, y, z'
loop_
 _atom_site_type_symbol
 _atom_site_label
 _atom_site_symmetry_multiplicity
 _atom_site_fract_x
 _atom_site_fract_y
 _atom_site_fract_z
 _atom_site_occupancy
  Ba  Ba0  1  0.66679229  0.12453168  0.99910125  1
  Ba  Ba1  1  0.49566724  0.62521885  0.50278889  1
  Ba  Ba2  1  0.49935233  0.12368257  0.50144642  1
  Ba  Ba3  1  0.49627527  0.62443115  0.83390301  1
  Ba  Ba4  1  0.00196961  0.87697836  0.66564421  1
  Ba  Ba5  1  0.50126600  0.87546989  0.16855759  1
  Ba  Ba6  1  0.50141949  0.37480864  0.16887066  1
  Ba  Ba7  1  0.66871662  0.37520752  0.66624935  1
  Ba  Ba8  1  0.00240642  0.12574215  0.66681706  1
  Ba  Ba9  1  0.83143423  0.62460749  0.16797809  1
  Ba  Ba10  1  -0.00499273  0.62602383  0.33241451  1
  Ba  Ba11  1  0.16576962  0.87459160  0.49836774  1
  Ba  Ba12  1  0.00050421  0.87485559  0.33241889  1
  Ba  Ba13  1  0.16712409  0.87361025  0.16459265  1
  Ba  Ba14  1  0.83172955  0.37499359  0.50021923  1
  Ba  Ba15  1  0.00442530  0.12616291  0.99743354  1
  Ba  Ba16  1  0.33341849  0.12611083  0.33417920  1
  Sr  Sr17  1  -0.00417401  0.62688134  1.00099263  1
  Sr  Sr18  1  0.33869600  0.37282000  0.66886389  1
  Sr  Sr19  1  0.16869605  0.37561240  0.16444607  1
  Sr  Sr20  1  0.83037425  0.62629633  0.49989330  1
  Sr  Sr21  1  0.00467736  0.87537191  0.00192481  1
  La  La22  1  0.66891944  0.12484760  0.66382977  1
  La  La23  1  0.50154105  0.87333199  0.49748524  1
  La  La24  1  0.16027461  0.62448893  0.83359099  1
  La  La25  1  0.33204040  0.12606094  0.66296489  1
  La  La26  1  0.67063547  0.87260996  0.00460435  1
  La  La27  1  0.00021674  0.37966945  0.33295281  1
  La  La28  1  0.00067080  0.37664825  0.66633783  1
  La  La29  1  0.49960039  0.12772463  0.83465827  1
  Pr  Pr30  1  0.16690971  0.12178998  0.49991981  1
  Pr  Pr31  1  0.50813658  0.37450914  0.83179084  1
  Pr  Pr32  1  0.00466843  0.37646959  0.00132336  1
  Pr  Pr33  1  0.32501648  0.62327783  1.00060238  1
  Pr  Pr34  1  0.83635642  0.87690768  0.49699125  1
  Pr  Pr35  1  0.16874762  0.87697101  0.83056827  1
  Pr  Pr36  1  0.17063372  0.12417392  0.83325432  1
  Pr  Pr37  1  0.33524307  0.12511986  1.00296916  1
  Pr  Pr38  1  0.32469670  0.62542617  0.33245633  1
  Pr  Pr39  1  0.16685554  0.37242333  0.49534381  1
  Pr  Pr40  1  0.66904890  0.12766560  0.32695311  1
  Pr  Pr41  1  0.00291686  0.12605733  0.32958908  1
  Pr  Pr42  1  0.83457068  0.37566286  0.16563572  1
  Pr  Pr43  1  -0.00862596  0.62661070  0.66159994  1
  Pr  Pr44  1  0.32387252  0.62259519  0.66222092  1
  Pr  Pr45  1  0.33868724  0.87456035  0.67041802  1
  Pr  Pr46  1  0.65951615  0.62472678  0.66227712  1
  Pr  Pr47  1  0.65845765  0.62480463  1.00106744  1
  Pr  Pr48  1  0.50197822  0.12430015  0.17487177  1
  Pr  Pr49  1  0.83843863  0.87345667  0.16282692  1
  Pr  Pr50  1  0.15687860  0.62416135  0.16740152  1
  Pr  Pr51  1  0.67037948  0.37685896  0.00058338  1
  Pr  Pr52  1  0.33736161  0.87138299  0.00520642  1
  Pr  Pr53  1  0.50851689  0.87359271  0.83618291  1
  Pr  Pr54  1  0.66222948  0.62238401  0.33286858  1
  Pr  Pr55  1  0.16644691  0.12469217  0.16813903  1
  Pr  Pr56  1  0.84106097  0.12335743  0.16589823  1
  Pr  Pr57  1  0.16964937  0.37269974  0.82852078  1
  Pr  Pr58  1  0.15629018  0.62498974  0.50121702  1
  Pr  Pr59  1  0.83823639  0.37153660  0.82918072  1
  Pr  Pr60  1  0.66963452  0.87383029  0.33403970  1
  Pr  Pr61  1  0.83779941  0.87799961  0.83409172  1
  Pr  Pr62  1  0.50399033  0.37640359  0.49722164  1
  Pr  Pr63  1  0.84069901  0.12597349  0.83555514  1
  Pr  Pr64  1  0.82857694  0.62434054  0.83904319  1
  Pr  Pr65  1  0.83727405  0.12450742  0.50117149  1
  Pr  Pr66  1  0.33478763  0.87630771  0.33765116  1
  Pr  Pr67  1  0.33590353  0.37436124  0.33860763  1
  Pr  Pr68  1  0.66887554  0.87125882  0.66653335  1
  Pr  Pr69  1  0.49359305  0.62584001  0.17177183  1
  Pr  Pr70  1  0.66732407  0.37764331  0.33801074  1
  Pr  Pr71  1  0.33725998  0.37854621  0.00253621  1
  Mn  Mn72  1  0.00146951  0.00135159  0.16436990  1
  Mn  Mn73  1  -0.00045929  0.00165957  0.49762409  1
  Mn  Mn74  1  0.00273916  -0.00084444  0.83455953  1
  Mn  Mn75  1  -0.00044461  0.49723154  0.16506431  1
  Mn  Mn76  1  -0.00170004  0.49961941  0.50130498  1
  Mn  Mn77  1  0.00009944  0.50056328  0.83317773  1
  Mn  Mn78  1  0.33382908  0.00041489  0.16603466  1
  Mn  Mn79  1  0.33318043  -0.00059297  0.50274970  1
  Mn  Mn80  1  0.33576620  -0.00040426  0.83576334  1
  Mn  Mn81  1  0.33143016  0.49951058  0.16746343  1
  Mn  Mn82  1  0.32972971  0.49852178  0.50163454  1
  Mn  Mn83  1  0.33200779  0.49908702  0.83272974  1
  Mn  Mn84  1  0.66883440  0.00045135  0.16626269  1
  Mn  Mn85  1  0.66845741  -0.00027843  0.49950637  1
  Mn  Mn86  1  0.66785752  -0.00141806  0.83138805  1
  Mn  Mn87  1  0.66591371  0.49886002  0.16682366  1
  Mn  Mn88  1  0.66621472  0.50182177  0.50070388  1
  Mn  Mn89  1  0.66775661  0.50114457  0.83478379  1
  Mn  Mn90  1  0.00115012  0.25172453  0.16485306  1
  Mn  Mn91  1  0.00046348  0.25155490  0.49624194  1
  Mn  Mn92  1  0.00402404  0.25183325  0.83284818  1
  Mn  Mn93  1  -0.00094176  0.75045510  0.16402163  1
  Mn  Mn94  1  -0.00309732  0.74915143  0.49988632  1
  Mn  Mn95  1  -0.00049705  0.74986208  0.83366273  1
  Mn  Mn96  1  0.33258928  0.25255220  0.16603057  1
  Mn  Mn97  1  0.33221789  0.25159621  0.50291003  1
  Mn  Mn98  1  0.33504626  0.25026096  0.83472223  1
  Mn  Mn99  1  0.33192722  0.74748887  0.16733953  1
  Mn  Mn100  1  0.33060528  0.74845284  0.50139036  1
  Mn  Mn101  1  0.33191784  0.74949087  0.83506174  1
  Mn  Mn102  1  0.66853918  0.25077500  0.16588873  1
  Mn  Mn103  1  0.66609491  0.24714811  0.49797589  1
  Mn  Mn104  1  0.66855819  0.24823676  0.83293967  1
  Mn  Mn105  1  0.66605687  0.74966396  0.16772598  1
  Mn  Mn106  1  0.66835118  0.75120950  0.50099197  1
  Mn  Mn107  1  0.66830038  0.75063055  0.83452654  1
  Mn  Mn108  1  0.17115098  0.25212761  -0.00167615  1
  Mn  Mn109  1  0.16664864  0.25245070  0.33049648  1
  Mn  Mn110  1  0.16819250  0.25175004  0.66396332  1
  Mn  Mn111  1  0.16543739  0.74785686  -0.00224504  1
  Mn  Mn112  1  0.16700294  0.74864135  0.33255398  1
  Mn  Mn113  1  0.16725451  0.74960749  0.66811551  1
  Mn  Mn114  1  0.49982056  0.25021450  0.00114300  1
  Mn  Mn115  1  0.50108914  0.25041421  0.33436633  1
  Mn  Mn116  1  0.50062581  0.25002787  0.66871397  1
  Mn  Mn117  1  0.49860784  0.74893338  0.00181475  1
  Mn  Mn118  1  0.49846499  0.74931250  0.33520841  1
  Mn  Mn119  1  0.49805251  0.75066075  0.66832824  1
  Mn  Mn120  1  0.83381103  0.25244588  -0.00181390  1
  Mn  Mn121  1  0.83229633  0.24884459  0.33070268  1
  Mn  Mn122  1  0.83480693  0.24903329  0.66623105  1
  Mn  Mn123  1  0.83344649  0.74871370  -0.00046680  1
  Mn  Mn124  1  0.82961764  0.75101976  0.33352722  1
  Mn  Mn125  1  0.83248348  0.75040606  0.66891083  1
  Mn  Mn126  1  0.17076188  0.00095609  -0.00164427  1
  Mn  Mn127  1  0.16767483  0.00140547  0.33221581  1
  Mn  Mn128  1  0.16951803  -0.00021379  0.66717675  1
  Mn  Mn129  1  0.16578150  0.49952950  -0.00197154  1
  Mn  Mn130  1  0.16717609  0.49867433  0.33186255  1
  Mn  Mn131  1  0.16631726  0.49839931  0.66644382  1
  Mn  Mn132  1  0.50005242  0.00101538  0.00058915  1
  Mn  Mn133  1  0.50185193  -0.00162766  0.33504195  1
  Mn  Mn134  1  0.50094228  -0.00297294  0.66992018  1
  Mn  Mn135  1  0.49892371  0.49952702  0.00103981  1
  Mn  Mn136  1  0.49726067  0.50117358  0.33459611  1
  Mn  Mn137  1  0.49781291  0.49855888  0.66772629  1
  Mn  Mn138  1  0.83437867  0.00065256  -0.00140837  1
  Mn  Mn139  1  0.83239683  0.00222162  0.33227970  1
  Mn  Mn140  1  0.83247420  -0.00038799  0.66594639  1
  Mn  Mn141  1  0.83253924  0.49972351  -0.00152699  1
  Mn  Mn142  1  0.82998571  0.49952185  0.33276609  1
  Mn  Mn143  1  0.83362909  0.50111283  0.66992182  1
  O  O144  1  0.17665328  0.13098532  0.02501329  1
  O  O145  1  0.16167296  0.13170544  0.35553530  1
  O  O146  1  0.17515300  0.12498976  0.68926323  1
  O  O147  1  0.17405384  0.62113310  0.02366504  1
  O  O148  1  0.17463690  0.62121583  0.35678620  1
  O  O149  1  0.17380615  0.62255117  0.69089817  1
  O  O150  1  0.49645559  0.12786301  0.02877837  1
  O  O151  1  0.51115471  0.12428242  0.34276860  1
  O  O152  1  0.50035735  0.12070828  0.69159281  1
  O  O153  1  0.50686989  0.62312195  0.02486553  1
  O  O154  1  0.50390200  0.62578391  0.34738140  1
  O  O155  1  0.50439503  0.62728795  0.67831098  1
  O  O156  1  0.83599634  0.13064935  0.02127318  1
  O  O157  1  0.83280646  0.12582556  0.35799862  1
  O  O158  1  0.82755123  0.12204072  0.69091941  1
  O  O159  1  0.83518313  0.62285581  0.01240084  1
  O  O160  1  0.82385228  0.62660997  0.34777400  1
  O  O161  1  0.83938059  0.62533283  0.69510977  1
  O  O162  1  0.16820295  0.37528175  0.31282552  1
  O  O163  1  0.16185545  0.37758648  0.63918130  1
  O  O164  1  0.16674098  0.37676002  0.97153617  1
  O  O165  1  0.17446100  0.87281570  0.32255897  1
  O  O166  1  0.17509873  0.87487671  0.65587798  1
  O  O167  1  0.17283687  0.87138102  0.97575614  1
  O  O168  1  0.49591158  0.37674962  0.32482053  1
  O  O169  1  0.49879033  0.37551663  0.64298286  1
  O  O170  1  0.49271776  0.37480919  0.97542375  1
  O  O171  1  0.49342068  0.87252519  0.32444643  1
  O  O172  1  0.49608715  0.87370369  0.64326993  1
  O  O173  1  0.49075249  0.87462302  0.97936142  1
  O  O174  1  0.82182866  0.37012252  0.31061765  1
  O  O175  1  0.83827606  0.37546233  0.65759794  1
  O  O176  1  0.82238540  0.37645161  0.97225453  1
  O  O177  1  0.82254910  0.88048298  0.30749131  1
  O  O178  1  0.82452096  0.87648934  0.64066366  1
  O  O179  1  0.82449234  0.87214104  0.97794535  1
  O  O180  1  -0.00009492  0.37183806  0.18829471  1
  O  O181  1  0.00671484  0.37595430  0.52178140  1
  O  O182  1  0.00490922  0.37675696  0.85659164  1
  O  O183  1  -0.00428204  0.87916860  0.17430700  1
  O  O184  1  -0.00672954  0.87511156  0.50785567  1
  O  O185  1  0.00369783  0.87278935  0.85031647  1
  O  O186  1  0.33043689  0.37770130  0.19412391  1
  O  O187  1  0.32386235  0.37545156  0.52029043  1
  O  O188  1  0.32458904  0.37435318  0.86077047  1
  O  O189  1  0.33203379  0.87066282  0.19133514  1
  O  O190  1  0.33497034  0.87491245  0.52372910  1
  O  O191  1  0.32190966  0.87738265  0.86400007  1
  O  O192  1  0.67602897  0.37356137  0.19253221  1
  O  O193  1  0.66037673  0.37469906  0.50855733  1
  O  O194  1  0.66808398  0.37662901  0.85569414  1
  O  O195  1  0.67679881  0.87689639  0.18829210  1
  O  O196  1  0.67428996  0.87636943  0.52404155  1
  O  O197  1  0.66991088  0.87516515  0.86059684  1
  O  O198  1  -0.00276971  0.12878362  0.15274973  1
  O  O199  1  -0.00466903  0.12903592  0.47493902  1
  O  O200  1  -0.00175768  0.12714807  0.82385489  1
  O  O201  1  0.00305892  0.62019678  0.15206715  1
  O  O202  1  0.00130588  0.62202672  0.49138601  1
  O  O203  1  -0.00247454  0.62379678  0.80689921  1
  O  O204  1  0.33166525  0.12821311  0.14628076  1
  O  O205  1  0.32757123  0.12548579  0.49141088  1
  O  O206  1  0.33897122  0.12300256  0.80576262  1
  O  O207  1  0.33797373  0.62275843  0.14453432  1
  O  O208  1  0.32679562  0.62169262  0.47743626  1
  O  O209  1  0.32920596  0.62227996  0.80516075  1
  O  O210  1  0.65454472  0.12544681  0.15476381  1
  O  O211  1  0.67102926  0.12097290  0.47207515  1
  O  O212  1  0.66060216  0.11930045  0.80817642  1
  O  O213  1  0.66140777  0.62350203  0.14432893  1
  O  O214  1  0.66885480  0.62853363  0.47840633  1
  O  O215  1  0.67461258  0.62816028  0.80672659  1
  O  O216  1  0.08324195  0.02233100  0.24826363  1
  O  O217  1  0.08766279  0.01591429  0.57784929  1
  O  O218  1  0.09592967  0.01186712  0.91141230  1
  O  O219  1  0.08539745  0.51168459  0.24998083  1
  O  O220  1  0.07904698  0.52190260  0.59316841  1
  O  O221  1  0.07769962  0.52038998  0.91707957  1
  O  O222  1  0.42055608  0.01462311  0.24539819  1
  O  O223  1  0.40984618  0.01128824  0.59538223  1
  O  O224  1  0.41560431  0.02430696  0.91925667  1
  O  O225  1  0.41029842  0.52054635  0.25687735  1
  O  O226  1  0.40271687  0.51368342  0.59203117  1
  O  O227  1  0.40424991  0.51502958  0.92556266  1
  O  O228  1  0.75475599  0.02818598  0.24689611  1
  O  O229  1  0.75362606  0.02425911  0.57820887  1
  O  O230  1  0.75744327  0.01701555  0.90430698  1
  O  O231  1  0.73689770  0.51409686  0.25807849  1
  O  O232  1  0.74621969  0.52080776  0.59266106  1
  O  O233  1  0.74216284  0.52354867  0.92445233  1
  O  O234  1  0.24393438  0.23474956  0.24321100  1
  O  O235  1  0.24803298  0.23147207  0.58280192  1
  O  O236  1  0.25477951  0.22488724  0.91633344  1
  O  O237  1  0.24473065  0.72238194  0.24241719  1
  O  O238  1  0.24123242  0.72566366  0.57681428  1
  O  O239  1  0.24254877  0.72469087  0.90848801  1
  O  O240  1  0.59016835  0.23861462  0.25337751  1
  O  O241  1  0.58912546  0.23162934  0.58745401  1
  O  O242  1  0.57783618  0.23862125  0.91195991  1
  O  O243  1  0.57685897  0.73141910  0.24375433  1
  O  O244  1  0.58535287  0.74306771  0.58236163  1
  O  O245  1  0.58217760  0.73999366  0.91580999  1
  O  O246  1  0.91453445  0.23166860  0.24907041  1
  O  O247  1  0.91536306  0.23586805  0.57751512  1
  O  O248  1  0.91496173  0.24484532  0.91358005  1
  O  O249  1  0.90689450  0.74950606  0.24624129  1
  O  O250  1  0.91219641  0.73453549  0.58561618  1
  O  O251  1  0.90755323  0.73730305  0.90843009  1
  O  O252  1  0.08430698  0.48098681  0.07975930  1
  O  O253  1  0.09030779  0.48257525  0.42110187  1
  O  O254  1  0.08919425  0.47901235  0.75347831  1
  O  O255  1  0.08677406  0.99561469  0.08121366  1
  O  O256  1  0.08194807  1.00103160  0.41387489  1
  O  O257  1  0.09271478  0.99022887  0.75402474  1
  O  O258  1  0.41649178  0.48683230  0.08555669  1
  O  O259  1  0.41633727  0.47864519  0.42438832  1
  O  O260  1  0.42067945  0.47704846  0.76026783  1
  O  O261  1  0.41378048  0.98750342  0.08033131  1
  O  O262  1  0.41684139  0.98145603  0.42270694  1
  O  O263  1  0.41999021  0.97155108  0.76131177  1
  O  O264  1  0.75466092  0.47787982  0.08732233  1
  O  O265  1  0.74539259  0.48815957  0.41445482  1
  O  O266  1  0.76211966  0.48753644  0.76439409  1
  O  O267  1  0.75141211  0.98376288  0.08258084  1
  O  O268  1  0.74677097  0.97834821  0.41287453  1
  O  O269  1  0.74574556  0.97686045  0.74466163  1
  O  O270  1  0.25260154  0.27464579  0.07680125  1
  O  O271  1  0.24846444  0.27076661  0.41425493  1
  O  O272  1  0.25004662  0.26529694  0.75464144  1
  O  O273  1  0.25983346  0.75994746  0.07188097  1
  O  O274  1  0.26243791  0.76121448  0.40397392  1
  O  O275  1  0.25873335  0.76826199  0.74432895  1
  O  O276  1  0.58896084  0.27027051  0.07731889  1
  O  O277  1  0.57916782  0.26889809  0.41933737  1
  O  O278  1  0.58195209  0.26372804  0.75399985  1
  O  O279  1  0.59450271  0.76480680  0.07676276  1
  O  O280  1  0.58939212  0.77020711  0.41373173  1
  O  O281  1  0.58933779  0.77167045  0.74947691  1
  O  O282  1  0.91587208  0.27708839  0.08128275  1
  O  O283  1  0.92108477  0.26755102  0.40823392  1
  O  O284  1  0.92166848  0.26788745  0.75208008  1
  O  O285  1  0.91662205  0.76709942  0.07772599  1
  O  O286  1  0.90857588  0.76310779  0.41806137  1
  O  O287  1  0.91562456  0.76856158  0.75076995  1
  O  O288  1  0.25598559  0.48298483  0.07640807  1
  O  O289  1  0.25463675  0.47743491  0.41060366  1
  O  O290  1  0.25143774  0.47800133  0.74616466  1
  O  O291  1  0.25809046  0.98490050  0.07362969  1
  O  O292  1  0.25608194  0.98794475  0.41190175  1
  O  O293  1  0.25672359  0.98100393  0.75059341  1
  O  O294  1  0.59430015  0.48187864  0.07616624  1
  O  O295  1  0.58352306  0.48525940  0.41290362  1
  O  O296  1  0.58502294  0.48681507  0.75448734  1
  O  O297  1  0.58816019  0.98257095  0.07705213  1
  O  O298  1  0.58489959  0.97500766  0.42126446  1
  O  O299  1  0.58554722  0.97082292  0.75022802  1
  O  O300  1  0.91830480  0.47436601  0.07521611  1
  O  O301  1  0.91974497  0.48316668  0.40884580  1
  O  O302  1  0.92452746  0.47795073  0.74772447  1
  O  O303  1  0.91136179  0.98822041  0.08952205  1
  O  O304  1  0.90681969  0.98889380  0.42072762  1
  O  O305  1  0.90886889  0.98739550  0.75519474  1
  O  O306  1  0.08375319  0.26998040  0.07535302  1
  O  O307  1  0.08216483  0.27444132  0.41108587  1
  O  O308  1  0.08480475  0.27222842  0.74331039  1
  O  O309  1  0.08704677  0.75342206  0.08057707  1
  O  O310  1  0.08868712  0.74988945  0.42035217  1
  O  O311  1  0.09536856  0.76125385  0.75957023  1
  O  O312  1  0.41171118  0.26687151  0.07789153  1
  O  O313  1  0.41463593  0.27032045  0.42157337  1
  O  O314  1  0.42229156  0.26953090  0.76159765  1
  O  O315  1  0.41920221  0.75878541  0.08979233  1
  O  O316  1  0.41947120  0.76780668  0.42610800  1
  O  O317  1  0.42007658  0.77593840  0.76236701  1
  O  O318  1  0.75148323  0.27216837  0.08236884  1
  O  O319  1  0.74000438  0.26050498  0.40420538  1
  O  O320  1  0.75578994  0.25909907  0.75429510  1
  O  O321  1  0.75472093  0.76820375  0.08911292  1
  O  O322  1  0.75194713  0.77536119  0.42127132  1
  O  O323  1  0.75463132  0.77498784  0.75671129  1
  O  O324  1  0.24528202  0.01760976  0.24196624  1
  O  O325  1  0.24844382  0.01972828  0.58291008  1
  O  O326  1  0.25336800  0.02867688  0.91330216  1
  O  O327  1  0.24643370  0.52387137  0.24540029  1
  O  O328  1  0.24025059  0.52114882  0.57644228  1
  O  O329  1  0.24387839  0.52163767  0.91047722  1
  O  O330  1  0.59070292  0.01024630  0.25290586  1
  O  O331  1  0.59318614  0.01138283  0.58837411  1
  O  O332  1  0.57682414  0.01084584  0.90900299  1
  O  O333  1  0.57763010  0.51899627  0.24510850  1
  O  O334  1  0.58407889  0.51273585  0.58313162  1
  O  O335  1  0.58397702  0.51250137  0.91843004  1
  O  O336  1  0.91784967  0.02258693  0.25356075  1
  O  O337  1  0.91307549  0.01464044  0.57954445  1
  O  O338  1  0.91532148  0.00833793  0.91609987  1
  O  O339  1  0.90908261  0.49742765  0.24614964  1
  O  O340  1  0.91444414  0.51571354  0.58815566  1
  O  O341  1  0.90707434  0.51110466  0.90653657  1
  O  O342  1  0.08348340  0.22966763  0.24917136  1
  O  O343  1  0.08991726  0.23416281  0.56923019  1
  O  O344  1  0.09655278  0.23759763  0.90458236  1
  O  O345  1  0.08566082  0.73590652  0.24803249  1
  O  O346  1  0.07983803  0.73003264  0.59222236  1
  O  O347  1  0.07981842  0.72858953  0.91757799  1
  O  O348  1  0.42386373  0.23549665  0.24642592  1
  O  O349  1  0.41259840  0.23653320  0.59344495  1
  O  O350  1  0.41611518  0.22680506  0.91930014  1
  O  O351  1  0.40775767  0.72824362  0.25715047  1
  O  O352  1  0.40033858  0.73652312  0.59708030  1
  O  O353  1  0.40246469  0.73360918  0.92750700  1
  O  O354  1  0.75515446  0.22339893  0.24285627  1
  O  O355  1  0.75097443  0.22800909  0.57724484  1
  O  O356  1  0.75510027  0.23238161  0.91062096  1
  O  O357  1  0.73391504  0.73666035  0.26269398  1
  O  O358  1  0.74350238  0.73002124  0.59457714  1
  O  O359  1  0.74337061  0.72677023  0.92307147  1
