# generated using pymatgen
data_H2O
_symmetry_space_group_name_H-M   'P 1'
_cell_length_a   13.48494221
_cell_length_b   13.49315213
_cell_length_c   14.70350262
_cell_angle_alpha   89.98049187
_cell_angle_beta   89.98501344
_cell_angle_gamma   119.92491755
_symmetry_Int_Tables_number   1
_chemical_formula_structural   H2O
_chemical_formula_sum   'H144 O72'
_cell_volume   2318.68602411
_cell_formula_units_Z   72
loop_
 _symmetry_equiv_pos_site_id
 _symmetry_equiv_pos_as_xyz
  1  'x, y, z'
loop_
 _atom_type_symbol
 _atom_type_oxidation_number
  H+  1.0
  O2-  -2.0
loop_
 _atom_site_type_symbol
 _atom_site_label
 _atom_site_symmetry_multiplicity
 _atom_site_fract_x
 _atom_site_fract_y
 _atom_site_fract_z
 _atom_site_occupancy
  H+  H0  1  0.35700735  0.85816700  0.71398900  1
  H+  H1  1  0.84886028  0.26968630  0.25972622  1
  H+  H2  1  0.88356639  0.44237543  0.84670708  1
  H+  H3  1  0.52132666  0.37513110  1.00829784  1
  H+  H4  1  0.68801765  0.17498628  0.49689796  1
  H+  H5  1  0.28643419  0.69126315  0.41583702  1
  H+  H6  1  -0.03274859  0.49848101  -0.02178664  1
  H+  H7  1  0.17524191  0.82374945  0.24589492  1
  H+  H8  1  0.27264105  0.12152212  0.47663436  1
  H+  H9  1  0.28831787  0.16429149  0.24566126  1
  H+  H10  1  0.96112704  0.46800487  0.75616093  1
  H+  H11  1  0.01419195  0.83266555  0.49518202  1
  H+  H12  1  0.81138493  0.97378108  0.74915512  1
  H+  H13  1  -0.03552782  0.81864071  0.77390949  1
  H+  H14  1  0.12228105  0.14403050  0.49352666  1
  H+  H15  1  0.83022085  1.00708620  0.50418259  1
  H+  H16  1  0.81949035  0.41938834  0.25435840  1
  H+  H17  1  0.46714332  0.01730712  0.24014524  1
  H+  H18  1  0.83825848  0.35092060  0.48753922  1
  H+  H19  1  0.14441164  0.96346817  0.78977998  1
  H+  H20  1  0.81485776  0.62491801  0.74058203  1
  H+  H21  1  0.35739484  0.26921370  0.53784423  1
  H+  H22  1  0.71325483  0.15663909  0.03318885  1
  H+  H23  1  0.65760848  0.45104914  0.77465310  1
  H+  H24  1  0.69626354  0.52501458  0.01587798  1
  H+  H25  1  0.88777464  0.11790166  0.84342602  1
  H+  H26  1  0.83366006  0.13660105  0.49750337  1
  H+  H27  1  0.21480432  0.45158572  0.34407743  1
  H+  H28  1  0.96143322  0.13343686  0.49714170  1
  H+  H29  1  0.14078803  0.84240883  0.78246987  1
  H+  H30  1  0.81017519  0.99221147  0.22928937  1
  H+  H31  1  0.47618217  0.64183120  0.24940165  1
  H+  H32  1  0.37301454  0.85807607  -0.00048344  1
  H+  H33  1  0.14048947  0.52169478  0.23781482  1
  H+  H34  1  0.36760054  0.85524820  0.48345525  1
  H+  H35  1  0.17006800  0.33324818  0.73886088  1
  H+  H36  1  0.21556570  0.41085225  0.82820030  1
  H+  H37  1  0.04209478  0.86292219  -0.00317125  1
  H+  H38  1  0.47903794  0.52254829  0.99073725  1
  H+  H39  1  0.84978796  0.82362167  0.99280920  1
  H+  H40  1  0.82680057  0.51036747  0.74206815  1
  H+  H41  1  0.14691667  0.52222191  0.01292391  1
  H+  H42  1  0.63228771  0.83466249  0.25242399  1
  H+  H43  1  0.52074532  0.83751044  0.48691864  1
  H+  H44  1  0.31882965  0.50914690  0.96785027  1
  H+  H45  1  0.81502798  0.87581626  0.21662115  1
  H+  H46  1  0.47551325  0.84991715  0.23294736  1
  H+  H47  1  0.15729002  0.32134023  -0.00023672  1
  H+  H48  1  0.84283495  0.81944242  0.75669460  1
  H+  H49  1  0.15792503  1.00073351  0.45112009  1
  H+  H50  1  0.62894053  0.81037650  0.76815218  1
  H+  H51  1  0.46605998  -0.01681804  0.71090476  1
  H+  H52  1  0.60766334  0.46267309  0.27304831  1
  H+  H53  1  0.81659864  0.64146553  1.02016255  1
  H+  H54  1  0.95482647  0.46379838  0.25815919  1
  H+  H55  1  0.15101629  0.33231577  0.23551746  1
  H+  H56  1  0.13588680  0.15735784  0.73683846  1
  H+  H57  1  0.67715449  0.17543404  0.73257967  1
  H+  H58  1  0.30329964  0.50346593  0.25992639  1
  H+  H59  1  0.68928570  0.84876163  0.51234549  1
  H+  H60  1  0.82755612  -0.02707053  0.99575595  1
  H+  H61  1  0.83673213  0.15022578  0.75511689  1
  H+  H62  1  0.81889007  0.50927926  0.51204977  1
  H+  H63  1  0.96556167  0.83344209  0.21097379  1
  H+  H64  1  0.49214506  0.85509689  0.99952840  1
  H+  H65  1  0.18433297  0.69062443  0.75761062  1
  H+  H66  1  0.50236906  0.04482333  0.46859677  1
  H+  H67  1  0.64475312  0.36751146  0.17854237  1
  H+  H68  1  0.29696770  0.14689442  0.75498742  1
  H+  H69  1  0.98355636  0.15262244  0.97743012  1
  H+  H70  1  0.48195556  0.64364233  -0.00756570  1
  H+  H71  1  0.14598429  0.97790161  0.22440879  1
  H+  H72  1  0.43971512  0.88501495  0.13864555  1
  H+  H73  1  0.89900520  0.78240057  0.62809611  1
  H+  H74  1  0.13714231  0.60965179  0.49688901  1
  H+  H75  1  0.84929940  0.49816884  0.97996575  1
  H+  H76  1  0.20582226  0.17663899  1.00132699  1
  H+  H77  1  0.37353298  0.52798158  0.50258169  1
  H+  H78  1  0.12269974  0.82293154  0.47064826  1
  H+  H79  1  0.23342259  0.77221856  0.84443329  1
  H+  H80  1  0.01688843  0.16057298  0.73062064  1
  H+  H81  1  0.47462567  0.15058697  0.74065249  1
  H+  H82  1  0.16124080  0.98252012  0.00038373  1
  H+  H83  1  0.86057542  0.14088883  0.99111905  1
  H+  H84  1  0.51245177  0.18814462  0.03319027  1
  H+  H85  1  0.01533814  0.49500998  0.50570269  1
  H+  H86  1  -0.03597369  0.19049959  0.24315723  1
  H+  H87  1  0.51214703  0.69051735  0.76823123  1
  H+  H88  1  0.50635309  0.16404509  0.47280226  1
  H+  H89  1  0.51799922  0.71570911  0.48883287  1
  H+  H90  1  0.12945095  0.63421849  0.23214088  1
  H+  H91  1  0.23398075  0.53092347  0.90378502  1
  H+  H92  1  0.18773272  0.70688830  0.99250722  1
  H+  H93  1  0.36401262  0.50848950  0.73156860  1
  H+  H94  1  0.48720882  0.18204379  0.18404783  1
  H+  H95  1  0.84687795  0.73113867  0.17672953  1
  H+  H96  1  0.29048763  0.81539744  0.23821234  1
  H+  H97  1  0.88004040  0.77407890  0.90577992  1
  H+  H98  1  0.63506846  0.82617740  0.98639541  1
  H+  H99  1  0.74341338  0.48929806  0.14936248  1
  H+  H100  1  0.17179370  0.47143208  0.49013033  1
  H+  H101  1  0.47129250  0.52164963  0.26138518  1
  H+  H102  1  0.51791867  0.37308812  0.50781465  1
  H+  H103  1  0.85006268  0.69494595  0.54678042  1
  H+  H104  1  0.52453474  0.02902299  0.99854729  1
  H+  H105  1  0.46142487  0.27843829  0.72765722  1
  H+  H106  1  0.80688966  0.84369733  0.53632529  1
  H+  H107  1  0.60934666  0.32911308  0.81853347  1
  H+  H108  1  0.46933859  0.07045735  0.82655363  1
  H+  H109  1  0.56008363  0.79758387  0.34513786  1
  H+  H110  1  0.09140827  0.18290340  0.58934391  1
  H+  H111  1  0.81424828  0.77722046  0.35577273  1
  H+  H112  1  0.40751603  0.21272293  0.61169351  1
  H+  H113  1  0.14122487  0.20822142  0.23509239  1
  H+  H114  1  0.64239873  0.48722340  0.50872113  1
  H+  H115  1  0.76791144  0.89466904  0.66124794  1
  H+  H116  1  0.56637006  0.43130365  0.91218252  1
  H+  H117  1  0.44902111  0.56721188  0.65060008  1
  H+  H118  1  0.18210087  0.35916200  0.48820810  1
  H+  H119  1  0.76038210  0.20996928  0.59029512  1
  H+  H120  1  0.79334403  0.75464515  0.40287578  1
  H+  H121  1  0.58854851  0.12802798  0.92306700  1
  H+  H122  1  0.12068228  0.90232734  0.13427559  1
  H+  H123  1  0.20966552  0.97086771  0.61286811  1
  H+  H124  1  0.20989075  0.11402863  0.33322403  1
  H+  H125  1  0.16313238  0.91139899  0.62465592  1
  H+  H126  1  0.55263886  0.45729094  0.36938631  1
  H+  H127  1  0.09910874  0.55735296  0.09882773  1
  H+  H128  1  0.77626530  0.90474594  0.08861048  1
  H+  H129  1  0.23684804  0.13049387  0.85366436  1
  H+  H130  1  0.19221955  0.82718113  -0.01692748  1
  H+  H131  1  0.51011737  0.11287766  0.31821003  1
  H+  H132  1  0.77960173  0.53901005  0.60748970  1
  H+  H133  1  0.14491615  0.49575451  0.73197928  1
  H+  H134  1  0.12017965  0.25179996  0.09298699  1
  H+  H135  1  0.87920479  0.42829878  0.39875962  1
  H+  H136  1  0.10511270  0.54226690  0.64880659  1
  H+  H137  1  0.43584500  0.90832200  0.57685711  1
  H+  H138  1  0.49411388  0.53306347  0.51054139  1
  H+  H139  1  0.55339301  0.78157500  0.89708787  1
  H+  H140  1  0.31781523  0.16515141  1.01265965  1
  H+  H141  1  0.79846730  0.18012073  0.11642552  1
  H+  H142  1  0.22451091  0.74974451  0.36921805  1
  H+  H143  1  0.79709633  0.29277037  0.73763712  1
  O2-  O144  1  0.10511343  0.25142018  0.21082844  1
  O2-  O145  1  0.09522176  0.19230056  0.70382814  1
  O2-  O146  1  0.09074813  0.55189367  0.21397756  1
  O2-  O147  1  0.10682761  0.54084139  0.71649994  1
  O2-  O148  1  0.11211164  0.89781336  0.20237668  1
  O2-  O149  1  0.09540798  0.87940998  0.79830754  1
  O2-  O150  1  0.49820655  0.25443757  0.15083743  1
  O2-  O151  1  0.41678938  0.20104107  0.70213313  1
  O2-  O152  1  0.42924941  0.55920643  0.23614739  1
  O2-  O153  1  0.44588842  0.55825333  0.71743604  1
  O2-  O154  1  0.42851371  0.88156732  0.20618562  1
  O2-  O155  1  0.42952416  0.90744684  0.68104135  1
  O2-  O156  1  0.81649696  0.19008387  0.23432211  1
  O2-  O157  1  0.75688552  0.21391961  0.71034396  1
  O2-  O158  1  0.71315986  0.43665252  0.20229836  1
  O2-  O159  1  0.77861318  0.54377201  0.71982108  1
  O2-  O160  1  0.76782250  0.91324221  0.20496879  1
  O2-  O161  1  0.77403976  0.89206942  0.72832780  1
  O2-  O162  1  0.20849949  0.12318377  0.26519945  1
  O2-  O163  1  0.21989774  0.11303016  0.78820595  1
  O2-  O164  1  0.21683025  0.46178387  0.27713222  1
  O2-  O165  1  0.21049611  0.41415046  0.76130796  1
  O2-  O166  1  0.21063968  0.77673568  0.26418410  1
  O2-  O167  1  0.22526034  0.77196685  0.77701540  1
  O2-  O168  1  0.47865899  0.09424177  0.25610059  1
  O2-  O169  1  0.52125424  0.11465652  0.77734058  1
  O2-  O170  1  0.53847341  0.45386159  0.30304788  1
  O2-  O171  1  0.59026854  0.38917278  0.80851917  1
  O2-  O172  1  0.55289353  0.79344544  0.27775020  1
  O2-  O173  1  0.55057926  0.76986002  0.79355495  1
  O2-  O174  1  0.88593599  0.14385496  0.27173041  1
  O2-  O175  1  0.88139837  0.11354276  0.77504337  1
  O2-  O176  1  0.87901682  0.40715763  0.28496226  1
  O2-  O177  1  0.88013015  0.43162224  0.77728800  1
  O2-  O178  1  0.88062146  0.79795067  0.21604218  1
  O2-  O179  1  0.87825219  0.76993200  0.76446180  1
  O2-  O180  1  0.19744514  0.08694765  0.44473941  1
  O2-  O181  1  0.24325945  0.13239749  0.98124510  1
  O2-  O182  1  0.21969470  0.43898834  0.46676533  1
  O2-  O183  1  0.23267126  0.47278297  0.94403918  1
  O2-  O184  1  0.24228674  0.72836829  0.43112564  1
  O2-  O185  1  0.23262515  0.78497215  0.96530935  1
  O2-  O186  1  0.54676616  0.12668420  0.44768307  1
  O2-  O187  1  0.57285041  0.11574329  0.98819509  1
  O2-  O188  1  0.56067560  0.45441973  0.48902082  1
  O2-  O189  1  0.55815551  0.44974766  0.97673689  1
  O2-  O190  1  0.56277953  0.79705329  0.46748269  1
  O2-  O191  1  0.55342083  0.78722380  0.96719012  1
  O2-  O192  1  0.87405080  0.09221092  0.48033298  1
  O2-  O193  1  0.90343866  0.10892650  0.95516126  1
  O2-  O194  1  0.87991867  0.43225773  0.46712439  1
  O2-  O195  1  0.88974589  0.46195937  0.95100753  1
  O2-  O196  1  0.88921037  0.77903341  0.56131186  1
  O2-  O197  1  0.89024292  0.78158915  0.97227311  1
  O2-  O198  1  0.12649901  0.24430394  0.02565429  1
  O2-  O199  1  0.08518856  0.18588178  0.52115329  1
  O2-  O200  1  0.10787435  0.56473553  0.03082465  1
  O2-  O201  1  0.09688207  0.53431016  0.52785994  1
  O2-  O202  1  0.12233390  0.90079599  0.01978958  1
  O2-  O203  1  0.08086847  0.86128558  0.45300156  1
  O2-  O204  1  0.46796396  0.22596070  0.05460855  1
  O2-  O205  1  0.39862980  0.22688082  0.53761510  1
  O2-  O206  1  0.43298532  0.55971374  0.00344064  1
  O2-  O207  1  0.45289683  0.57566944  0.52507638  1
  O2-  O208  1  0.45341611  0.89878926  0.02311278  1
  O2-  O209  1  0.44486129  0.90781626  0.50727991  1
  O2-  O210  1  0.79401032  0.18497975  0.04945426  1
  O2-  O211  1  0.76678319  0.20606183  0.52264656  1
  O2-  O212  1  0.77602708  0.56014245  0.04048826  1
  O2-  O213  1  0.78130492  0.55001758  0.53956736  1
  O2-  O214  1  0.78062957  0.89389615  0.02166189  1
  O2-  O215  1  0.76880419  0.89106144  0.54025716  1
