# generated using pymatgen
data_H2O
_symmetry_space_group_name_H-M   'P 1'
_cell_length_a   13.51498793
_cell_length_b   13.51943633
_cell_length_c   14.70058979
_cell_angle_alpha   89.99809607
_cell_angle_beta   90.04176687
_cell_angle_gamma   119.95394776
_symmetry_Int_Tables_number   1
_chemical_formula_structural   H2O
_chemical_formula_sum   'H144 O72'
_cell_volume   2327.23821188
_cell_formula_units_Z   72
loop_
 _symmetry_equiv_pos_site_id
 _symmetry_equiv_pos_as_xyz
  1  'x, y, z'
loop_
 _atom_type_symbol
 _atom_type_oxidation_number
  H+  1.0
  O2-  -2.0
loop_
 _atom_site_type_symbol
 _atom_site_label
 _atom_site_symmetry_multiplicity
 _atom_site_fract_x
 _atom_site_fract_y
 _atom_site_fract_z
 _atom_site_occupancy
  H+  H0  1  0.85108685  0.49979782  0.98545754  1
  H+  H1  1  0.13784609  0.17272800  0.00815169  1
  H+  H2  1  0.37508646  0.19776604  0.49421284  1
  H+  H3  1  0.47633171  0.16881062  0.00795791  1
  H+  H4  1  0.27796559  0.16105944  0.24903659  1
  H+  H5  1  0.34789461  0.52584814  0.25460600  1
  H+  H6  1  0.15512091  0.14805339  0.25141500  1
  H+  H7  1  0.68984097  0.50989474  0.49143697  1
  H+  H8  1  0.44001894  0.19114332  0.23120610  1
  H+  H9  1  0.49052229  0.19150339  0.49790451  1
  H+  H10  1  0.50575507  0.81565376  0.48399491  1
  H+  H11  1  -0.03662488  0.79443958  0.48454022  1
  H+  H12  1  0.47998782  -0.02484636  0.50519392  1
  H+  H13  1  0.85267755  0.04149440  0.74593205  1
  H+  H14  1  0.12233468  0.89778143  0.09693174  1
  H+  H15  1  -0.03161497  0.14096831  0.25333528  1
  H+  H16  1  0.51016940  0.84483482  0.99957672  1
  H+  H17  1  0.97299631  0.15199261  0.50691379  1
  H+  H18  1  0.47560471  0.63485484  0.49757222  1
  H+  H19  1  0.02290882  0.17608189  0.00993553  1
  H+  H20  1  0.47835822  0.03209894  0.01772355  1
  H+  H21  1  0.16103783  0.97546487  0.00538551  1
  H+  H22  1  0.59474338  0.14619282  0.99267348  1
  H+  H23  1  0.90716633  0.47191679  0.82717585  1
  H+  H24  1  0.87861970  0.40152205  0.96267606  1
  H+  H25  1  0.69080817  0.85049833  0.73125054  1
  H+  H26  1  0.99365597  0.83401690  0.98883754  1
  H+  H27  1  0.03226614  0.51122800  0.48659542  1
  H+  H28  1  0.30670349  0.79885608  0.26502891  1
  H+  H29  1  0.19810752  0.81790672  0.25530411  1
  H+  H30  1  0.76689975  0.22297829  0.05715312  1
  H+  H31  1  0.83361461  0.52081323  0.25650069  1
  H+  H32  1  0.17728997  0.35379257  0.49648496  1
  H+  H33  1  0.16507059  0.12577361  0.75238588  1
  H+  H34  1  0.87467695  0.50043405  0.73115691  1
  H+  H35  1  0.71365367  0.51227135  0.25273491  1
  H+  H36  1  0.35967221  0.85703902  0.50476382  1
  H+  H37  1  0.78922579  0.62922567  0.03549168  1
  H+  H38  1  0.54505842  0.78916463  0.39055785  1
  H+  H39  1  0.77451284  0.54388837  0.11296356  1
  H+  H40  1  0.91189161  0.71030779  0.95540647  1
  H+  H41  1  0.83866581  0.67211440  0.47136392  1
  H+  H42  1  0.84215208  0.17175926  0.26799443  1
  H+  H43  1  0.14560899  0.94932404  0.74871745  1
  H+  H44  1  0.81985137  0.30464041  0.72133715  1
  H+  H45  1  1.04036340  0.85002590  0.23754505  1
  H+  H46  1  0.10107652  0.21503075  0.14347408  1
  H+  H47  1  0.45852651  0.72044699  0.96347274  1
  H+  H48  1  0.85003459  0.48026377  0.44546599  1
  H+  H49  1  0.96981286  0.82343765  0.75647473  1
  H+  H50  1  0.61544277  0.36046184  0.31953466  1
  H+  H51  1  0.14051036  0.29459517  0.23608512  1
  H+  H52  1  0.66814113  0.12983228  0.27114642  1
  H+  H53  1  0.54323699  1.01300905  0.77023120  1
  H+  H54  1  0.48000567  0.31537432  1.00237815  1
  H+  H55  1  0.46746406  0.84578725  0.72845216  1
  H+  H56  1  0.17736989  0.47244404  0.48701782  1
  H+  H57  1  1.04226941  0.51614505  0.72324833  1
  H+  H58  1  0.63071715  0.47896355  0.99395003  1
  H+  H59  1  0.51310442  0.61700879  0.71925466  1
  H+  H60  1  0.02921790  0.17458756  0.73888018  1
  H+  H61  1  0.84896028  1.01638613  -0.02065370  1
  H+  H62  1  0.49987445  0.63398962  0.04236094  1
  H+  H63  1  0.69895784  0.83472745  0.00259861  1
  H+  H64  1  1.02505493  0.50986762  0.26260937  1
  H+  H65  1  0.20607551  0.71029680  0.01486622  1
  H+  H66  1  0.21524159  0.77789429  0.40129898  1
  H+  H67  1  0.15144589  0.29079704  0.73903374  1
  H+  H68  1  0.47095095  0.70859425  0.78920086  1
  H+  H69  1  0.30511438  0.81063026  0.73964622  1
  H+  H70  1  0.84564191  1.02378706  0.25370067  1
  H+  H71  1  0.85053030  0.69855075  0.25744308  1
  H+  H72  1  0.71632825  0.17598719  0.72937539  1
  H+  H73  1  0.16022883  0.51275073  0.72376599  1
  H+  H74  1  0.15194737  -0.02851166  0.23921435  1
  H+  H75  1  1.04368682  0.54370635  1.01458644  1
  H+  H76  1  0.36596503  0.85979896  0.03168311  1
  H+  H77  1  0.69334048  0.86807648  0.49736929  1
  H+  H78  1  0.17462191  0.79881796  0.75652706  1
  H+  H79  1  0.45050945  0.26008023  0.73998855  1
  H+  H80  1  0.54673994  0.10355931  0.23816390  1
  H+  H81  1  0.22299737  0.45347592  0.83881361  1
  H+  H82  1  0.20353456  0.82654316  0.00350705  1
  H+  H83  1  0.29932755  0.47726215  0.75018022  1
  H+  H84  1  0.85170114  0.16074983  0.49544126  1
  H+  H85  1  0.28152172  0.12064798  0.74849392  1
  H+  H86  1  0.22772115  0.05049225  0.45638904  1
  H+  H87  1  0.48159560  0.70950600  0.25057312  1
  H+  H88  1  0.83794331  0.02524103  0.50066004  1
  H+  H89  1  0.85492039  0.35817451  0.30983941  1
  H+  H90  1  0.51200597  0.92888561  0.25949905  1
  H+  H91  1  0.16664321  0.46852729  0.26588316  1
  H+  H92  1  0.17747685  0.69335883  0.48607978  1
  H+  H93  1  0.29192352  0.15606735  0.97719797  1
  H+  H94  1  0.59399038  0.43041476  0.74959626  1
  H+  H95  1  0.84069254  0.81326182  0.25894244  1
  H+  H96  1  0.13438880  0.82285727  0.51409452  1
  H+  H97  1  0.75116387  0.54351198  0.76197793  1
  H+  H98  1  0.11546095  0.92942327  0.53665320  1
  H+  H99  1  0.14415236  0.17334750  0.51316152  1
  H+  H100  1  0.51202258  0.49036722  0.48657967  1
  H+  H101  1  0.18111464  0.67659807  0.73725725  1
  H+  H102  1  0.49282560  0.45457726  0.75525966  1
  H+  H103  1  0.47366241  0.31824994  0.23808873  1
  H+  H104  1  0.81738457  0.83486642  1.00335267  1
  H+  H105  1  0.19101243  0.50634022  -0.01648584  1
  H+  H106  1  0.30414008  0.49837927  -0.01544598  1
  H+  H107  1  0.48409029  0.51360170  0.01913462  1
  H+  H108  1  0.55045627  0.80982007  0.84994690  1
  H+  H109  1  0.21029247  0.10056771  0.89057227  1
  H+  H110  1  0.45785387  0.89779049  0.11689960  1
  H+  H111  1  0.55751273  0.10404993  0.39621460  1
  H+  H112  1  0.82534576  0.25480536  0.19667233  1
  H+  H113  1  0.43133632  0.89198919  0.64020739  1
  H+  H114  1  0.88929556  0.77002598  0.38183847  1
  H+  H115  1  0.82921524  0.12128458  0.97651137  1
  H+  H116  1  0.55163132  0.44154830  0.90228670  1
  H+  H117  1  0.89467869  0.11091256  0.83780731  1
  H+  H118  1  0.35885653  0.51232007  0.50242147  1
  H+  H119  1  0.42555237  0.19860117  0.64502910  1
  H+  H120  1  0.57746971  0.11677436  0.83289534  1
  H+  H121  1  0.68534961  0.84777757  0.23001899  1
  H+  H122  1  0.63620873  0.15449130  0.48326198  1
  H+  H123  1  0.44449818  0.54416586  0.63482716  1
  H+  H124  1  0.77578930  0.23220136  0.58147240  1
  H+  H125  1  0.21944139  0.12786169  0.38303286  1
  H+  H126  1  0.10455123  0.54666180  0.58083396  1
  H+  H127  1  0.83495796  0.65940494  0.72134494  1
  H+  H128  1  0.14351025  0.62496065  0.25043048  1
  H+  H129  1  0.76694280  0.89925563  0.58968209  1
  H+  H130  1  0.10917920  0.21187737  0.60683611  1
  H+  H131  1  0.20880736  0.42602226  0.35174099  1
  H+  H132  1  0.42661877  0.24045490  0.09503795  1
  H+  H133  1  0.10520830  0.55427383  0.11003946  1
  H+  H134  1  0.69269092  0.09435862  0.08181593  1
  H+  H135  1  0.51398163  0.37020054  0.49306615  1
  H+  H136  1  0.78131203  0.54420328  0.57084309  1
  H+  H137  1  0.77164938  0.87775056  0.14728120  1
  H+  H138  1  0.80957143  0.85206640  0.72710842  1
  H+  H139  1  0.88174966  0.78594514  0.83694688  1
  H+  H140  1  0.56848199  0.43487849  0.36097021  1
  H+  H141  1  0.09898675  0.85854216  0.66545865  1
  H+  H142  1  0.81593215  0.29870839  0.48428933  1
  H+  H143  1  0.42914358  0.55784641  0.16949398  1
  O2-  O144  1  0.09920378  0.21387048  0.21337332  1
  O2-  O145  1  0.11210073  0.21085827  0.71619901  1
  O2-  O146  1  0.09843167  0.54425536  0.22927728  1
  O2-  O147  1  0.12292267  0.55640566  0.69893927  1
  O2-  O148  1  0.12072608  0.89126663  0.21691443  1
  O2-  O149  1  0.10541798  0.86404146  0.73277620  1
  O2-  O150  1  0.41825070  0.24473207  0.20679271  1
  O2-  O151  1  0.41290322  0.18421679  0.71129331  1
  O2-  O152  1  0.42749106  0.57912390  0.23349142  1
  O2-  O153  1  0.45070680  0.54113100  0.70356570  1
  O2-  O154  1  0.46487865  0.85035663  0.23327687  1
  O2-  O155  1  0.42387801  0.88369934  0.70883156  1
  O2-  O156  1  0.80286572  0.22512639  0.25820003  1
  O2-  O157  1  0.76526333  0.23748929  0.68627745  1
  O2-  O158  1  0.79283785  0.55646263  0.22715482  1
  O2-  O159  1  0.79553171  0.57528483  0.70637659  1
  O2-  O160  1  0.76690586  0.87756398  0.21489545  1
  O2-  O161  1  0.76790066  0.89080889  0.70487014  1
  O2-  O162  1  0.20139487  0.11163618  0.27559701  1
  O2-  O163  1  0.20178771  0.08164130  0.77546227  1
  O2-  O164  1  0.20850613  0.42825169  0.28374671  1
  O2-  O165  1  0.21929154  0.44224362  0.77038310  1
  O2-  O166  1  0.22657035  0.76997587  0.28395052  1
  O2-  O167  1  0.22142374  0.75893306  0.76473333  1
  O2-  O168  1  0.58317201  0.07659989  0.28089460  1
  O2-  O169  1  0.60730746  0.07049080  0.80695587  1
  O2-  O170  1  0.58792711  0.41183809  0.30024408  1
  O2-  O171  1  0.52732090  0.41294496  0.78657662  1
  O2-  O172  1  0.53115988  0.79638007  0.26665874  1
  O2-  O173  1  0.53689925  0.78561885  0.78469651  1
  O2-  O174  1  0.88877410  0.10202251  0.27920893  1
  O2-  O175  1  0.90218345  0.11869466  0.77073889  1
  O2-  O176  1  0.88834022  0.44182370  0.32558246  1
  O2-  O177  1  0.91074591  0.46054878  0.76093988  1
  O2-  O178  1  0.88674690  0.77840589  0.28165308  1
  O2-  O179  1  0.88567123  0.78766119  0.76971258  1
  O2-  O180  1  0.23197949  0.12437220  0.45136424  1
  O2-  O181  1  0.21197821  0.10464840  0.95890837  1
  O2-  O182  1  0.21939297  0.43207024  0.46958922  1
  O2-  O183  1  0.23800638  0.48383810  0.94699467  1
  O2-  O184  1  0.21146384  0.77626728  0.46941479  1
  O2-  O185  1  0.25176931  0.79110466  0.99342596  1
  O2-  O186  1  0.55424648  0.11503971  0.46265239  1
  O2-  O187  1  0.51012476  0.11091274  0.98583493  1
  O2-  O188  1  0.55473666  0.45036757  0.46748346  1
  O2-  O189  1  0.55083740  0.44293634  0.97036397  1
  O2-  O190  1  0.54776187  0.77956679  0.45740590  1
  O2-  O191  1  0.53191497  0.79157163  0.96862138  1
  O2-  O192  1  0.89126901  0.11467869  0.48259755  1
  O2-  O193  1  0.88281666  0.09620136  0.95745458  1
  O2-  O194  1  0.89248716  0.44055531  0.42655490  1
  O2-  O195  1  0.90366161  0.48167563  0.95099155  1
  O2-  O196  1  0.88600778  0.75721171  0.45290759  1
  O2-  O197  1  0.91311547  0.78271955  0.96299008  1
  O2-  O198  1  0.10005258  0.21122624  0.03713435  1
  O2-  O199  1  0.10394681  0.21200079  0.53743842  1
  O2-  O200  1  0.11848465  0.56958339  0.04348371  1
  O2-  O201  1  0.11016746  0.55152654  0.51297059  1
  O2-  O202  1  0.12164455  0.89458100  0.02898106  1
  O2-  O203  1  0.08075745  0.84695393  0.54402995  1
  O2-  O204  1  0.43399983  0.23395119  0.02735624  1
  O2-  O205  1  0.45235419  0.23352701  0.52218917  1
  O2-  O206  1  0.44533556  0.55233793  0.04701693  1
  O2-  O207  1  0.44079055  0.55583010  0.52316111  1
  O2-  O208  1  0.45219388  0.91394670  0.05177811  1
  O2-  O209  1  0.43927238  0.89474958  0.52857468  1
  O2-  O210  1  0.71697923  0.14788133  0.03068075  1
  O2-  O211  1  0.77755290  0.22190920  0.51230855  1
  O2-  O212  1  0.76677091  0.54889796  0.04504500  1
  O2-  O213  1  0.77502235  0.54629612  0.50414080  1
  O2-  O214  1  0.77749420  0.87437167  0.02660559  1
  O2-  O215  1  0.77242353  0.91044780  0.52218265  1
