# generated using pymatgen
data_H2O
_symmetry_space_group_name_H-M   'P 1'
_cell_length_a   13.52593055
_cell_length_b   13.51970527
_cell_length_c   14.70468261
_cell_angle_alpha   89.88658932
_cell_angle_beta   90.07467322
_cell_angle_gamma   119.91933001
_symmetry_Int_Tables_number   1
_chemical_formula_structural   H2O
_chemical_formula_sum   'H144 O72'
_cell_volume   2330.62414733
_cell_formula_units_Z   72
loop_
 _symmetry_equiv_pos_site_id
 _symmetry_equiv_pos_as_xyz
  1  'x, y, z'
loop_
 _atom_type_symbol
 _atom_type_oxidation_number
  H+  1.0
  O2-  -2.0
loop_
 _atom_site_type_symbol
 _atom_site_label
 _atom_site_symmetry_multiplicity
 _atom_site_fract_x
 _atom_site_fract_y
 _atom_site_fract_z
 _atom_site_occupancy
  H+  H0  1  0.51649338  0.69587834  0.26694543  1
  H+  H1  1  0.89267916  0.94929960  0.55060480  1
  H+  H2  1  0.65294085  0.82749336  -0.01018270  1
  H+  H3  1  0.15571420  0.83569356  1.03158247  1
  H+  H4  1  0.11668446  0.13377833  0.76146590  1
  H+  H5  1  0.64575517  0.48759547  0.29650997  1
  H+  H6  1  0.95727308  0.81727325  0.27569802  1
  H+  H7  1  0.49216758  0.69819576  0.76431946  1
  H+  H8  1  0.10156992  0.74827868  0.47033924  1
  H+  H9  1  0.65620662  0.82397296  0.48783644  1
  H+  H10  1  0.82758331  0.12948091  0.24825798  1
  H+  H11  1  0.78448402  -0.04056070  0.75059518  1
  H+  H12  1  0.49820070  0.31728820  0.26654328  1
  H+  H13  1  0.86508057  0.72062328  -0.02264655  1
  H+  H14  1  0.37316106  0.84205511  0.02303784  1
  H+  H15  1  0.81956214  0.32101314  0.48714808  1
  H+  H16  1  0.73353961  0.22957725  0.71231695  1
  H+  H17  1  0.86593103  0.48934440  0.21122403  1
  H+  H18  1  0.14330514  0.32582250  0.00662578  1
  H+  H19  1  0.23957983  0.50404657  0.50131170  1
  H+  H20  1  0.75780504  0.61039021  0.50909049  1
  H+  H21  1  0.39776751  0.51566202  0.51554885  1
  H+  H22  1  0.69954189  0.19137814  0.24192862  1
  H+  H23  1  0.82773298  0.14190250  1.00111704  1
  H+  H24  1  0.34914997  0.14579208  0.52015194  1
  H+  H25  1  0.52393759  0.65925407  1.01076940  1
  H+  H26  1  0.15944519  0.29389814  0.51150978  1
  H+  H27  1  0.45929175  0.89321688  0.15844191  1
  H+  H28  1  0.70730877  0.19663269  0.50384919  1
  H+  H29  1  0.99408263  0.81082293  0.50962980  1
  H+  H30  1  0.16816738  0.12099261  0.50109987  1
  H+  H31  1  0.75053238  0.53990090  0.64877378  1
  H+  H32  1  0.31537400  0.70793573  0.55036536  1
  H+  H33  1  0.53713873  0.02756753  0.77038175  1
  H+  H34  1  0.11401612  0.15343706  0.01879586  1
  H+  H35  1  0.51321081  0.82377656  0.77241435  1
  H+  H36  1  0.68128460  0.18355084  0.00710766  1
  H+  H37  1  0.56372217  0.51013058  0.53199346  1
  H+  H38  1  0.85475359  0.17276944  0.47652730  1
  H+  H39  1  0.19396200  0.65724774  0.50658722  1
  H+  H40  1  0.55076193  0.38997212  1.00500536  1
  H+  H41  1  0.69510827  0.83497009  0.23849567  1
  H+  H42  1  0.52365726  0.15712042  0.27862690  1
  H+  H43  1  0.56936857  0.45078346  0.38482996  1
  H+  H44  1  0.17392353  0.60606351  0.65570462  1
  H+  H45  1  0.49658816  0.85393332  0.01261680  1
  H+  H46  1  0.66475056  0.10037945  0.80333299  1
  H+  H47  1  0.16650751  0.08456255  0.90310006  1
  H+  H48  1  0.53749156  0.19319690  0.75071584  1
  H+  H49  1  0.31640273  0.58417671  0.70473450  1
  H+  H50  1  0.94683508  0.14206201  1.00213543  1
  H+  H51  1  0.83671891  0.81004535  0.26836485  1
  H+  H52  1  0.48826393  0.95345039  0.52765736  1
  H+  H53  1  0.25613862  0.12356833  0.98524098  1
  H+  H54  1  1.03325996  0.18751338  0.50138729  1
  H+  H55  1  0.07469943  0.54702417  0.72923766  1
  H+  H56  1  0.37146312  0.86343123  0.76227157  1
  H+  H57  1  0.81066895  0.48000178  0.47779757  1
  H+  H58  1  0.37651689  0.85564713  0.24338498  1
  H+  H59  1  0.18447669  0.69856377  0.25638675  1
  H+  H60  1  0.82989678  0.69431059  0.75542959  1
  H+  H61  1  0.50804254  0.02744049  -0.00250352  1
  H+  H62  1  0.19385967  0.82909108  0.78915598  1
  H+  H63  1  0.31680423  0.44661168  0.77744317  1
  H+  H64  1  0.24605543  0.39502013  0.86738867  1
  H+  H65  1  0.41248904  0.57001609  0.65277398  1
  H+  H66  1  0.80922807  0.95649762  0.23970759  1
  H+  H67  1  0.32042865  0.15667432  0.27963452  1
  H+  H68  1  0.46744828  0.55404707  0.16270231  1
  H+  H69  1  0.84273959  1.05071555  0.48748405  1
  H+  H70  1  0.04569297  0.96798031  0.20003969  1
  H+  H71  1  0.24698436  0.43770372  1.04036399  1
  H+  H72  1  0.82753290  0.81358385  0.75382664  1
  H+  H73  1  0.18350383  0.68564935  0.00874669  1
  H+  H74  1  0.84589621  0.83591636  0.98383777  1
  H+  H75  1  0.18479489  0.81434074  0.23747022  1
  H+  H76  1  0.44976167  0.15084687  0.02071056  1
  H+  H77  1  0.73409293  0.53890123  0.00645856  1
  H+  H78  1  0.67682747  0.83655637  0.74070628  1
  H+  H79  1  0.55328832  0.50879139  0.99743494  1
  H+  H80  1  0.67360174  0.49189834  0.75861405  1
  H+  H81  1  0.16970613  0.73897808  0.38702262  1
  H+  H82  1  0.49426492  0.51580840  0.25909206  1
  H+  H83  1  0.56884456  0.77939067  0.40521384  1
  H+  H84  1  0.41338736  0.53870917  1.00373593  1
  H+  H85  1  0.24126840  0.16385586  0.77947716  1
  H+  H86  1  0.81314714  0.79079966  0.49927621  1
  H+  H87  1  0.82113101  0.64008907  0.26184185  1
  H+  H88  1  0.19072900  0.48797301  0.28437844  1
  H+  H89  1  0.87917201  0.39941602  0.72736418  1
  H+  H90  1  0.11862701  0.92039425  0.50374428  1
  H+  H91  1  0.16989477  0.30810842  0.24293487  1
  H+  H92  1  0.19873700  1.04134552  0.26757095  1
  H+  H93  1  0.50424433  0.84571695  0.52943267  1
  H+  H94  1  0.14382917  0.28402776  0.74381980  1
  H+  H95  1  0.82523817  0.51906577  0.72978619  1
  H+  H96  1  0.11606506  0.48201958  0.02310404  1
  H+  H97  1  0.93986869  0.52115032  0.46328748  1
  H+  H98  1  0.13572109  -0.03793601  0.75883983  1
  H+  H99  1  0.80361771  0.29667651  -0.00472589  1
  H+  H100  1  0.84145335  0.14969280  0.76469150  1
  H+  H101  1  0.41623460  0.17893912  0.75382161  1
  H+  H102  1  0.31109347  0.49210757  0.26680939  1
  H+  H103  1  0.85607610  0.48494312  -0.04284335  1
  H+  H104  1  0.51997590  0.81722897  0.26626422  1
  H+  H105  1  0.09075522  0.56837310  0.34682713  1
  H+  H106  1  0.03136976  0.83827596  0.75262649  1
  H+  H107  1  0.81980924  0.97211549  0.01727470  1
  H+  H108  1  0.52509087  0.03953794  0.26994574  1
  H+  H109  1  0.13072915  0.93858697  0.01386453  1
  H+  H110  1  0.25088347  0.44603315  0.41085213  1
  H+  H111  1  0.17734032  0.19439850  0.24646279  1
  H+  H112  1  0.50833821  0.64051748  0.51972080  1
  H+  H113  1  0.51589271  0.13605231  0.50645654  1
  H+  H114  1  0.34927403  0.10154997  0.08958016  1
  H+  H115  1  0.86163792  0.36944520  0.20575356  1
  H+  H116  1  0.96209249  0.46848933  0.96727081  1
  H+  H117  1  0.44363654  0.21601087  0.59452757  1
  H+  H118  1  0.56195842  0.10339901  0.41916606  1
  H+  H119  1  0.76250837  0.21529840  0.14495796  1
  H+  H120  1  0.58758293  0.45054953  0.86170155  1
  H+  H121  1  0.80912911  0.25814060  0.62388519  1
  H+  H122  1  0.73889070  0.56650077  0.18342165  1
  H+  H123  1  0.54441054  0.36077146  0.77460258  1
  H+  H124  1  0.23029933  0.77250598  0.92437577  1
  H+  H125  1  0.78540754  0.89770666  0.61503608  1
  H+  H126  1  0.84439437  0.58201087  0.07126485  1
  H+  H127  1  0.78565474  0.88280771  0.10307105  1
  H+  H128  1  0.45621425  0.24167498  0.17448601  1
  H+  H129  1  0.84945121  0.75052566  0.40823316  1
  H+  H130  1  0.56655683  0.78128676  0.90266157  1
  H+  H131  1  0.54788106  0.10756742  0.90917804  1
  H+  H132  1  0.09806513  0.20710184  0.11211018  1
  H+  H133  1  0.20597152  0.71767189  0.77865138  1
  H+  H134  1  0.21499926  0.08847934  0.41462599  1
  H+  H135  1  0.87332516  0.78725986  0.87779825  1
  H+  H136  1  0.86962135  0.09678406  0.33820050  1
  H+  H137  1  0.90675782  0.46379048  0.82180641  1
  H+  H138  1  0.83298549  0.09429232  0.86286820  1
  H+  H139  1  0.09149454  0.89574482  0.14995347  1
  H+  H140  1  0.02940368  0.51079167  0.25370427  1
  H+  H141  1  0.44793733  0.89075205  0.66934301  1
  H+  H142  1  0.03924958  0.50566922  0.09340095  1
  H+  H143  1  0.08971472  0.21791333  0.65085245  1
  O2-  O144  1  0.14041443  0.23209393  0.21463939  1
  O2-  O145  1  0.07723198  0.21474053  0.71782603  1
  O2-  O146  1  0.10632133  0.55343530  0.28461043  1
  O2-  O147  1  0.15843902  0.59261920  0.72201928  1
  O2-  O148  1  0.07825883  0.91928062  0.21353277  1
  O2-  O149  1  0.11471449  0.88175110  0.74814422  1
  O2-  O150  1  0.45974574  0.23795945  0.24125087  1
  O2-  O151  1  0.49402371  0.23209835  0.73431306  1
  O2-  O152  1  0.45601561  0.55403445  0.22903779  1
  O2-  O153  1  0.38466979  0.57735420  0.71423122  1
  O2-  O154  1  0.45864741  0.89545730  0.22637656  1
  O2-  O155  1  0.45172213  0.89869966  0.73750850  1
  O2-  O156  1  0.77588489  0.22509917  0.21177791  1
  O2-  O157  1  0.81316805  0.26530747  0.69272449  1
  O2-  O158  1  0.77801596  0.55929414  0.23651980  1
  O2-  O159  1  0.76770096  0.54732215  0.71645591  1
  O2-  O160  1  0.77586035  0.87376770  0.21642690  1
  O2-  O161  1  0.75967876  0.88307316  0.72221941  1
  O2-  O162  1  0.23870475  0.11614535  0.29861561  1
  O2-  O163  1  0.16416289  0.10113896  0.79047025  1
  O2-  O164  1  0.23443004  0.44755746  0.29501895  1
  O2-  O165  1  0.26944574  0.37395129  0.81075737  1
  O2-  O166  1  0.22781939  0.78295296  0.26688827  1
  O2-  O167  1  0.24063614  0.79386438  0.80996963  1
  O2-  O168  1  0.56607681  0.11761588  0.29669131  1
  O2-  O169  1  0.59466340  0.10602766  0.79503392  1
  O2-  O170  1  0.56508734  0.45045523  0.31725047  1
  O2-  O171  1  0.58499083  0.44410760  0.79354416  1
  O2-  O172  1  0.55999762  0.77627560  0.28882049  1
  O2-  O173  1  0.54834257  0.77548141  0.78879712  1
  O2-  O174  1  0.85695503  0.08045502  0.27217853  1
  O2-  O175  1  0.79573958  0.08079535  0.80176005  1
  O2-  O176  1  0.91122495  0.45356659  0.19312210  1
  O2-  O177  1  0.91094034  0.47801349  0.75468425  1
  O2-  O178  1  0.87669872  0.77056596  0.29653860  1
  O2-  O179  1  0.86700645  0.77321589  0.77989489  1
  O2-  O180  1  0.20317337  0.07502019  0.48151824  1
  O2-  O181  1  0.17397723  0.07926730  0.97086261  1
  O2-  O182  1  0.25842146  0.44629935  0.47879856  1
  O2-  O183  1  0.19058154  0.41106012  0.99165701  1
  O2-  O184  1  0.12042789  0.69279567  0.43780519  1
  O2-  O185  1  0.23032588  0.76745661  0.99285971  1
  O2-  O186  1  0.56507467  0.10303227  0.48681911  1
  O2-  O187  1  0.53768486  0.10815565  0.97624269  1
  O2-  O188  1  0.60182273  0.46753611  0.50743548  1
  O2-  O189  1  0.59299863  0.46551948  0.97683081  1
  O2-  O190  1  0.57477343  0.77901487  0.47344046  1
  O2-  O191  1  0.57079409  0.78356030  0.97117176  1
  O2-  O192  1  0.88983770  0.12523461  0.45814456  1
  O2-  O193  1  0.86644620  0.10003836  0.97826381  1
  O2-  O194  1  0.86353120  0.45847970  0.44944596  1
  O2-  O195  1  0.88497420  0.43434138  0.93715470  1
  O2-  O196  1  0.83649865  0.73685559  0.47545250  1
  O2-  O197  1  0.88459818  0.79635258  0.94923835  1
  O2-  O198  1  0.07974804  0.19819144  0.04414171  1
  O2-  O199  1  0.10857941  0.21372964  0.53110229  1
  O2-  O200  1  0.07799868  0.52812275  0.03404729  1
  O2-  O201  1  0.24153164  0.63683051  0.54718531  1
  O2-  O202  1  0.10766593  0.86876921  0.05065378  1
  O2-  O203  1  0.07573947  0.83765419  0.51830432  1
  O2-  O204  1  0.39633418  0.17023735  0.05372663  1
  O2-  O205  1  0.43286122  0.19014097  0.53146364  1
  O2-  O206  1  0.48830202  0.57614070  0.03281520  1
  O2-  O207  1  0.47209113  0.56318813  0.54840955  1
  O2-  O208  1  0.45577975  0.89127626  0.03925555  1
  O2-  O209  1  0.45667980  0.87589447  0.55509691  1
  O2-  O210  1  0.76309427  0.22089267  0.02578306  1
  O2-  O211  1  0.79189258  0.24393457  0.51485820  1
  O2-  O212  1  0.81952231  0.58673135  0.00975057  1
  O2-  O213  1  0.72201182  0.53049838  0.53814008  1
  O2-  O214  1  0.78798313  0.88855265  0.03416039  1
  O2-  O215  1  0.80931207  0.90801381  0.54838420  1
