# generated using pymatgen
data_H2O
_symmetry_space_group_name_H-M   'P 1'
_cell_length_a   13.52714135
_cell_length_b   13.51910194
_cell_length_c   14.70036459
_cell_angle_alpha   90.02349353
_cell_angle_beta   90.02331646
_cell_angle_gamma   120.05833000
_symmetry_Int_Tables_number   1
_chemical_formula_structural   H2O
_chemical_formula_sum   'H144 O72'
_cell_volume   2326.78843901
_cell_formula_units_Z   72
loop_
 _symmetry_equiv_pos_site_id
 _symmetry_equiv_pos_as_xyz
  1  'x, y, z'
loop_
 _atom_type_symbol
 _atom_type_oxidation_number
  H+  1.0
  O2-  -2.0
loop_
 _atom_site_type_symbol
 _atom_site_label
 _atom_site_symmetry_multiplicity
 _atom_site_fract_x
 _atom_site_fract_y
 _atom_site_fract_z
 _atom_site_occupancy
  H+  H0  1  0.26372811  0.12727504  0.82088543  1
  H+  H1  1  0.68946654  0.83920242  0.22804527  1
  H+  H2  1  0.85351787  0.81159773  0.75764360  1
  H+  H3  1  0.23722993  0.43739009  0.97669391  1
  H+  H4  1  0.49783030  0.53243094  0.24613744  1
  H+  H5  1  0.96655921  0.80516615  0.47316094  1
  H+  H6  1  0.82682037  0.18820088  0.72045937  1
  H+  H7  1  0.51734074  0.48500572  0.75110347  1
  H+  H8  1  0.51254343  0.70044032  0.27022773  1
  H+  H9  1  0.13851259  0.20759900  0.82816531  1
  H+  H10  1  0.47864597  0.17631098  0.96435695  1
  H+  H11  1  0.78391017  0.55695018  0.14178310  1
  H+  H12  1  0.50905802  0.53079533  0.02292573  1
  H+  H13  1  0.11013182  0.87028228  0.57821762  1
  H+  H14  1  0.48507865  0.30280300  0.49078409  1
  H+  H15  1  0.51417365  0.82498204  0.27033240  1
  H+  H16  1  0.80583339  0.83629867  0.21605991  1
  H+  H17  1  0.49464721  0.85663965  0.75138305  1
  H+  H18  1  0.85797866  0.82221901  -0.02118678  1
  H+  H19  1  0.19273074  0.82909765  0.76031782  1
  H+  H20  1  0.84972073  0.69548451  0.24023533  1
  H+  H21  1  0.80143447  0.28395383  0.17521493  1
  H+  H22  1  0.40990325  0.18994297  0.72223092  1
  H+  H23  1  0.38088147  0.86881182  0.75029546  1
  H+  H24  1  0.82304786  0.19562586  1.03991507  1
  H+  H25  1  0.96607826  0.81479978  0.23628739  1
  H+  H26  1  -0.13543698  0.37673188  0.00026476  1
  H+  H27  1  0.63674146  0.48953275  0.25396649  1
  H+  H28  1  0.63571553  0.17505195  0.26425163  1
  H+  H29  1  0.53269581  0.87850220  0.02553425  1
  H+  H30  1  0.72173374  0.52876592  0.00453685  1
  H+  H31  1  0.56022474  0.41111744  1.08145241  1
  H+  H32  1  0.12585422  0.27438634  0.03528860  1
  H+  H33  1  -0.00596905  0.49424968  0.45768641  1
  H+  H34  1  1.01611032  0.16606112  0.24409710  1
  H+  H35  1  0.52964513  1.02188112  0.75289729  1
  H+  H36  1  0.37304532  0.84759149  0.24893545  1
  H+  H37  1  0.82380919  0.15868290  0.48154390  1
  H+  H38  1  0.20582188  0.81661178  0.25608503  1
  H+  H39  1  0.17022797  0.98632689  0.22553414  1
  H+  H40  1  0.35826123  0.16776672  0.97809418  1
  H+  H41  1  0.37710619  0.52547145  0.73558871  1
  H+  H42  1  0.84732155  0.36695879  0.76694809  1
  H+  H43  1  0.01062741  0.15804305  0.01954410  1
  H+  H44  1  0.59170285  0.73122639  1.00403862  1
  H+  H45  1  0.15473124  0.83478538  0.48800739  1
  H+  H46  1  0.86698539  -0.02040763  0.45597664  1
  H+  H47  1  0.15186320  0.32930834  0.80723378  1
  H+  H48  1  0.36423863  0.19533960  0.23936503  1
  H+  H49  1  0.57615024  0.78143118  0.85246578  1
  H+  H50  1  0.71051467  0.20221110  0.03123449  1
  H+  H51  1  0.16116952  0.12257916  1.01650813  1
  H+  H52  1  0.04751846  0.52952109  0.00731629  1
  H+  H53  1  0.14839187  0.83812203  1.06484504  1
  H+  H54  1  0.87040753  0.48135599  0.46670689  1
  H+  H55  1  0.82004561  0.96034574  0.73241243  1
  H+  H56  1  0.11696180  0.56929424  0.10238390  1
  H+  H57  1  0.16620902  0.66094250  0.47798635  1
  H+  H58  1  0.85310510  0.48828675  0.76469967  1
  H+  H59  1  0.80457340  0.50170610  0.23022090  1
  H+  H60  1  0.64940548  0.81016378  0.48459600  1
  H+  H61  1  0.94035321  0.12822237  0.67208762  1
  H+  H62  1  0.84088492  0.03306422  0.22332721  1
  H+  H63  1  0.14436159  0.29267955  0.47528053  1
  H+  H64  1  0.19624130  0.49591702  0.47474903  1
  H+  H65  1  0.15378628  0.18017480  0.47494632  1
  H+  H66  1  0.66588274  0.15425392  0.74760495  1
  H+  H67  1  0.83960390  0.52846280  1.00507264  1
  H+  H68  1  0.14675062  0.63624278  0.23884699  1
  H+  H69  1  1.01781542  0.49319082  0.72875520  1
  H+  H70  1  0.53707068  0.04151303  1.00453150  1
  H+  H71  1  0.82441921  0.01441119  0.99638254  1
  H+  H72  1  0.87333429  0.41449910  0.32933806  1
  H+  H73  1  0.05693775  0.43409712  0.65769894  1
  H+  H74  1  0.18957894  0.35101043  0.26252856  1
  H+  H75  1  0.41449785  0.56819683  0.01000306  1
  H+  H76  1  0.98265710  0.09957949  0.44311512  1
  H+  H77  1  0.20339663  0.13680859  0.73204191  1
  H+  H78  1  0.21766689  0.54199228  0.99292872  1
  H+  H79  1  0.48097154  0.19597617  0.24429893  1
  H+  H80  1  0.56083384  0.78439133  0.38191040  1
  H+  H81  1  0.52207152  0.69951567  0.76404293  1
  H+  H82  1  0.50640035  0.97566589  0.50812060  1
  H+  H83  1  0.51745212  0.48174708  0.48643224  1
  H+  H84  1  0.82560421  0.63577235  0.74141656  1
  H+  H85  1  0.29567936  0.81384462  0.47796772  1
  H+  H86  1  0.16569873  0.13341809  0.25655447  1
  H+  H87  1  0.15012424  0.96921997  0.07707461  1
  H+  H88  1  0.02562730  0.82817354  0.73342169  1
  H+  H89  1  0.13574088  0.94875780  0.73116796  1
  H+  H90  1  0.18269504  0.01390462  0.47618498  1
  H+  H91  1  0.48300878  0.62831392  0.50445199  1
  H+  H92  1  0.15901337  0.70374898  1.02030661  1
  H+  H93  1  0.51098376  0.14681966  0.48298842  1
  H+  H94  1  0.51782400  0.31194076  0.73384151  1
  H+  H95  1  -0.01863877  0.17521206  0.77098282  1
  H+  H96  1  0.63530854  0.16817464  0.49318222  1
  H+  H97  1  0.19189110  0.49717356  0.75159182  1
  H+  H98  1  0.54218514  0.15592234  0.75127829  1
  H+  H99  1  0.70614309  0.51846118  0.74390271  1
  H+  H100  1  0.30570269  0.47231176  0.25612172  1
  H+  H101  1  0.81887604  0.15140637  0.43075143  1
  H+  H102  1  0.81090419  0.80986486  0.49817159  1
  H+  H103  1  0.68667478  0.47614176  0.51519778  1
  H+  H104  1  0.51407986  0.37302103  0.25927006  1
  H+  H105  1  0.90030418  0.77960521  0.84717745  1
  H+  H106  1  0.30102718  0.13494354  0.47491421  1
  H+  H107  1  0.81968530  0.31846820  0.51097393  1
  H+  H108  1  0.46984304  0.90109143  0.10673595  1
  H+  H109  1  0.15279389  0.03181926  0.94595189  1
  H+  H110  1  0.18053673  0.25260180  0.65032771  1
  H+  H111  1  0.87230531  0.10949593  0.92054398  1
  H+  H112  1  0.88684439  0.77304266  0.38651491  1
  H+  H113  1  0.46804097  0.58202953  0.15814197  1
  H+  H114  1  0.25597043  0.50477450  0.84656744  1
  H+  H115  1  0.58713458  0.11388023  0.91412210  1
  H+  H116  1  0.21069430  0.72520733  0.78233010  1
  H+  H117  1  0.56161671  0.45023057  0.39557787  1
  H+  H118  1  0.23204488  0.77552907  0.35395511  1
  H+  H119  1  0.45376674  0.55899411  0.64556019  1
  H+  H120  1  0.19726094  0.80997721  0.94851158  1
  H+  H121  1  0.77415680  0.24503070  0.64853963  1
  H+  H122  1  0.10040778  0.19652472  0.16178318  1
  H+  H123  1  0.77383429  0.85565515  0.58883481  1
  H+  H124  1  0.53380720  0.83007244  0.48971446  1
  H+  H125  1  0.11668746  0.57122020  0.56462681  1
  H+  H126  1  0.55731987  0.11762362  0.34940327  1
  H+  H127  1  0.36276272  0.51157847  0.50382240  1
  H+  H128  1  0.87742170  0.71766935  0.98495925  1
  H+  H129  1  0.55218285  0.44351452  0.84081129  1
  H+  H130  1  0.50822686  0.34841308  0.99012564  1
  H+  H131  1  0.49064016  0.97088043  0.24852793  1
  H+  H132  1  0.02438757  0.51922488  0.22938636  1
  H+  H133  1  0.45884064  0.22894855  0.58057220  1
  H+  H134  1  0.70098910  0.84424673  0.74145402  1
  H+  H135  1  0.90029572  0.44796825  0.90595672  1
  H+  H136  1  0.14561659  0.18820372  0.64788374  1
  H+  H137  1  0.74350534  0.86160746  0.08397041  1
  H+  H138  1  0.21581810  0.09007329  0.33774383  1
  H+  H139  1  0.76961290  0.51867038  0.60361019  1
  H+  H140  1  0.23664842  0.44670004  0.39241747  1
  H+  H141  1  0.73998271  0.35154728  0.55771264  1
  H+  H142  1  0.46778916  0.89536607  0.59620202  1
  H+  H143  1  0.88508101  0.07448532  0.32139213  1
  O2-  O144  1  0.10131243  0.20181484  0.22872272  1
  O2-  O145  1  0.09761758  0.25053320  0.83019127  1
  O2-  O146  1  0.10091896  0.56444093  0.20310485  1
  O2-  O147  1  0.08598870  0.50508828  0.69218490  1
  O2-  O148  1  0.13519355  0.89690545  0.20311652  1
  O2-  O149  1  0.10703568  0.86978612  0.71082882  1
  O2-  O150  1  0.44596203  0.24093831  0.22232409  1
  O2-  O151  1  0.49135308  0.23294205  0.70849959  1
  O2-  O152  1  0.45952421  0.57612729  0.22545345  1
  O2-  O153  1  0.45806138  0.56104222  0.71413715  1
  O2-  O154  1  0.45632435  0.88992417  0.22814502  1
  O2-  O155  1  0.46228155  0.90433472  0.72778671  1
  O2-  O156  1  0.78842911  0.28959410  0.24143265  1
  O2-  O157  1  0.77739903  0.22402131  0.71530361  1
  O2-  O158  1  0.77428650  0.55160210  0.20945492  1
  O2-  O159  1  0.78594348  0.55317233  0.72194711  1
  O2-  O160  1  0.75899080  0.86841618  0.19024262  1
  O2-  O161  1  0.77964009  0.87874677  0.71561772  1
  O2-  O162  1  0.21271939  0.09488383  0.26900549  1
  O2-  O163  1  0.18948312  0.09798248  0.79103641  1
  O2-  O164  1  0.22994145  0.43089979  0.28487882  1
  O2-  O165  1  0.24309865  0.47444173  0.78309146  1
  O2-  O166  1  0.24056980  0.77378060  0.28130656  1
  O2-  O167  1  0.24439226  0.80702247  0.79352158  1
  O2-  O168  1  0.55580262  0.12068377  0.28149946  1
  O2-  O169  1  0.57913177  0.11043189  0.77308075  1
  O2-  O170  1  0.55822599  0.45579329  0.28006782  1
  O2-  O171  1  0.55702133  0.44307030  0.77456000  1
  O2-  O172  1  0.55407853  0.78229040  0.29509560  1
  O2-  O173  1  0.56150849  0.78065952  0.78626504  1
  O2-  O174  1  0.88117905  0.10379820  0.25901350  1
  O2-  O175  1  0.91009410  0.12672683  0.73280371  1
  O2-  O176  1  0.85937297  0.41247357  0.26118968  1
  O2-  O177  1  0.89406330  0.44750888  0.78697307  1
  O2-  O178  1  0.88590455  0.77825130  0.25638202  1
  O2-  O179  1  0.89458667  0.77164029  0.77845318  1
  O2-  O180  1  0.22244156  0.09358880  0.45005360  1
  O2-  O181  1  0.19343633  0.07184539  1.00125562  1
  O2-  O182  1  0.23631220  0.45223162  0.46163070  1
  O2-  O183  1  0.27179553  0.51876662  0.96422196  1
  O2-  O184  1  0.21904049  0.77563744  0.45161065  1
  O2-  O185  1  0.18650889  0.78986384  1.01320618  1
  O2-  O186  1  0.55932316  0.11186831  0.46768575  1
  O2-  O187  1  0.57365722  0.12227353  0.97837586  1
  O2-  O188  1  0.55722907  0.44125694  0.46359208  1
  O2-  O189  1  0.55545135  0.42733558  1.01726436  1
  O2-  O190  1  0.56640034  0.78312440  0.46029528  1
  O2-  O191  1  0.62974778  0.81123138  0.97841240  1
  O2-  O192  1  0.92175807  0.03114579  0.41072700  1
  O2-  O193  1  0.87373258  0.09913068  0.98604248  1
  O2-  O194  1  0.91054830  0.44459024  0.43929141  1
  O2-  O195  1  0.90611658  0.45543991  0.97353458  1
  O2-  O196  1  0.88504012  0.76508656  0.45335388  1
  O2-  O197  1  0.91026283  0.79561192  0.95871564  1
  O2-  O198  1  0.09165572  0.19216028  0.04188380  1
  O2-  O199  1  0.10195894  0.20990228  0.48920225  1
  O2-  O200  1  0.12675605  0.57765843  0.03192721  1
  O2-  O201  1  0.12314313  0.57084816  0.49828583  1
  O2-  O202  1  0.11268518  0.88893724  0.10470439  1
  O2-  O203  1  0.11170960  0.87584621  0.51137841  1
  O2-  O204  1  0.43257217  0.21272259  -0.05272425  1
  O2-  O205  1  0.44734504  0.22166647  0.51433866  1
  O2-  O206  1  0.49031993  0.59155812  0.03728857  1
  O2-  O207  1  0.44448528  0.55018036  0.52934607  1
  O2-  O208  1  0.48358657  0.91075738  0.03990513  1
  O2-  O209  1  0.47345450  0.89456702  0.52940061  1
  O2-  O210  1  0.79083231  0.24518183  0.05418060  1
  O2-  O211  1  0.75289943  0.28368227  0.55308938  1
  O2-  O212  1  0.80157320  0.57234477  0.02552503  1
  O2-  O213  1  0.75437820  0.47834370  0.54433398  1
  O2-  O214  1  0.74922860  0.86752786  0.01336548  1
  O2-  O215  1  0.76457348  0.84651160  0.52203162  1
