# generated using pymatgen
data_H2O
_symmetry_space_group_name_H-M   'P 1'
_cell_length_a   13.53064259
_cell_length_b   13.51641001
_cell_length_c   14.68801945
_cell_angle_alpha   89.97815838
_cell_angle_beta   89.97125615
_cell_angle_gamma   119.99101011
_symmetry_Int_Tables_number   1
_chemical_formula_structural   H2O
_chemical_formula_sum   'H144 O72'
_cell_volume   2326.55227266
_cell_formula_units_Z   72
loop_
 _symmetry_equiv_pos_site_id
 _symmetry_equiv_pos_as_xyz
  1  'x, y, z'
loop_
 _atom_type_symbol
 _atom_type_oxidation_number
  H+  1.0
  O2-  -2.0
loop_
 _atom_site_type_symbol
 _atom_site_label
 _atom_site_symmetry_multiplicity
 _atom_site_fract_x
 _atom_site_fract_y
 _atom_site_fract_z
 _atom_site_occupancy
  H+  H0  1  0.82084737  0.31677583  0.22687440  1
  H+  H1  1  0.72177977  0.84103703  0.72732884  1
  H+  H2  1  0.11436371  0.88063244  0.65133165  1
  H+  H3  1  0.44769944  1.03396268  0.75687969  1
  H+  H4  1  0.19429914  0.14846292  0.50263040  1
  H+  H5  1  0.52143314  0.87614238  0.74976153  1
  H+  H6  1  0.82291283  0.63647002  0.73950858  1
  H+  H7  1  0.13145121  0.49865678  0.51993550  1
  H+  H8  1  0.77578911  0.88569324  0.13903665  1
  H+  H9  1  0.52043380  0.46850683  0.47869769  1
  H+  H10  1  0.79613197  0.13315508  0.01244945  1
  H+  H11  1  0.11682056  0.81530451  0.01355273  1
  H+  H12  1  0.60387420  0.97399249  0.19629245  1
  H+  H13  1  0.05866106  0.89840808  0.24746448  1
  H+  H14  1  0.65275292  0.16824401  0.49697406  1
  H+  H15  1  0.47210137  -0.04289722  1.00758402  1
  H+  H16  1  0.19766082  1.05200129  0.25219298  1
  H+  H17  1  0.96100031  0.12072078  0.80579864  1
  H+  H18  1  0.53945882  0.66944249  0.75097447  1
  H+  H19  1  0.31040149  0.14736618  0.48719344  1
  H+  H20  1  0.51833726  0.69594323  0.99016083  1
  H+  H21  1  0.17581473  0.69004826  0.25506357  1
  H+  H22  1  0.95249922  0.13769799  0.42361887  1
  H+  H23  1  0.63951594  0.80184639  0.25842123  1
  H+  H24  1  0.83138503  0.13710556  0.24443959  1
  H+  H25  1  0.87171976  0.70883941  0.25005122  1
  H+  H26  1  0.52466631  0.17071787  0.49509762  1
  H+  H27  1  0.57185334  0.14436221  0.76721024  1
  H+  H28  1  0.49415906  0.29893450  0.49911015  1
  H+  H29  1  0.64038823  0.48907755  0.76670743  1
  H+  H30  1  0.84260423  0.34228326  0.97767816  1
  H+  H31  1  0.48981207  0.51455749  1.01006644  1
  H+  H32  1  0.15618657  0.97324079  0.51953132  1
  H+  H33  1  0.49053758  0.62592261  0.24406844  1
  H+  H34  1  0.30139207  0.48656798  0.25755922  1
  H+  H35  1  0.48830080  0.90806395  0.13942162  1
  H+  H36  1  0.61776444  0.13041047  0.98559223  1
  H+  H37  1  0.89038360  0.88925033  0.27214166  1
  H+  H38  1  0.15317539  0.19773553  1.00804032  1
  H+  H39  1  0.87550235  0.84282009  0.50169382  1
  H+  H40  1  0.75024347  0.87266606  0.51163649  1
  H+  H41  1  0.87608744  0.36889470  0.74877008  1
  H+  H42  1  0.16118244  0.51911804  0.24680342  1
  H+  H43  1  0.85505820  0.02081545  0.48244975  1
  H+  H44  1  0.54787489  0.44139079  0.90084842  1
  H+  H45  1  0.85954589  0.81970286  0.75388858  1
  H+  H46  1  0.69621512  0.09645176  0.79823627  1
  H+  H47  1  0.39945763  0.22141315  0.18958482  1
  H+  H48  1  0.17607090  0.67255332  0.76170401  1
  H+  H49  1  0.15786241  0.31454766  0.99715907  1
  H+  H50  1  0.72131950  0.30636268  0.16894174  1
  H+  H51  1  0.35632123  0.49067220  0.71433019  1
  H+  H52  1  0.44190473  0.82271902  0.52744138  1
  H+  H53  1  0.47663973  0.61116984  0.49686874  1
  H+  H54  1  0.58471981  0.80598371  0.49462940  1
  H+  H55  1  0.81326478  0.69224504  0.26915172  1
  H+  H56  1  0.31628168  0.40884069  0.88917996  1
  H+  H57  1  0.97304269  0.81300103  0.76427077  1
  H+  H58  1  0.02469996  0.50341755  0.01956709  1
  H+  H59  1  0.15908220  0.78056545  0.76535536  1
  H+  H60  1  0.28809655  0.80420621  0.99647346  1
  H+  H61  1  0.17757860  0.82561877  0.48742611  1
  H+  H62  1  0.97386032  0.28044946  0.69596015  1
  H+  H63  1  0.86467167  0.46949838  0.25573007  1
  H+  H64  1  0.77035912  0.20507595  0.08568936  1
  H+  H65  1  0.71632580  0.15028792  0.82536041  1
  H+  H66  1  0.21032820  0.75756137  -0.09275008  1
  H+  H67  1  0.57632093  0.74997099  0.83802287  1
  H+  H68  1  1.03497681  0.85521431  0.51882293  1
  H+  H69  1  0.02806340  0.50811556  0.74017385  1
  H+  H70  1  0.47538943  0.83940849  0.00448772  1
  H+  H71  1  0.94685138  0.80406186  -0.00424381  1
  H+  H72  1  0.14499873  0.20079473  0.23651724  1
  H+  H73  1  0.47049815  0.18019098  0.02745926  1
  H+  H74  1  0.82091679  0.51720603  0.73647907  1
  H+  H75  1  0.47717050  0.30046544  0.01985449  1
  H+  H76  1  0.30031792  0.16630270  0.98966443  1
  H+  H77  1  0.17489466  0.34792547  0.51376866  1
  H+  H78  1  0.44062700  0.18433962  0.73476892  1
  H+  H79  1  0.51674446  0.47403608  0.75954792  1
  H+  H80  1  0.82229763  0.17597128  0.49226015  1
  H+  H81  1  0.62657905  0.47557099  0.98802061  1
  H+  H82  1  0.81991924  0.52166299  0.50559571  1
  H+  H83  1  0.63818497  0.17005162  0.26688120  1
  H+  H84  1  0.83885350  0.45984323  0.97802690  1
  H+  H85  1  0.82209383  0.86054394  0.99066885  1
  H+  H86  1  0.52813487  0.47839855  0.25314113  1
  H+  H87  1  0.32186285  0.86203698  0.73195519  1
  H+  H88  1  0.48967681  0.86177878  0.79393031  1
  H+  H89  1  0.84390285  0.35960746  0.48536253  1
  H+  H90  1  0.53041572  0.81475401  0.25608051  1
  H+  H91  1  0.15107630  0.46619994  0.71990485  1
  H+  H92  1  0.80795771  0.61980644  -0.00036748  1
  H+  H93  1  -0.00905062  0.48351990  0.26235198  1
  H+  H94  1  0.08839261  0.87044765  0.09881602  1
  H+  H95  1  0.17444146  0.94064265  0.74450335  1
  H+  H96  1  0.85121461  0.00764020  0.76764675  1
  H+  H97  1  0.52960152  0.04664123  0.27449146  1
  H+  H98  1  0.34141931  0.21247728  0.71541685  1
  H+  H99  1  0.15251416  0.10770033  0.75908076  1
  H+  H100  1  0.78199727  0.95652089  0.22732580  1
  H+  H101  1  0.02447802  0.13481213  0.55423051  1
  H+  H102  1  0.15465679  0.86161547  0.23640735  1
  H+  H103  1  0.36322477  0.49108508  0.51018448  1
  H+  H104  1  0.21652832  0.43129609  0.59525227  1
  H+  H105  1  0.29229617  0.80931430  0.25538510  1
  H+  H106  1  0.80534757  0.57289855  0.21171082  1
  H+  H107  1  0.01373771  0.50075129  0.51218265  1
  H+  H108  1  0.89099778  0.44095998  0.39832830  1
  H+  H109  1  0.22330271  0.11993539  0.34591634  1
  H+  H110  1  0.23815970  0.16388822  0.89683447  1
  H+  H111  1  0.22610106  0.43391593  0.84996822  1
  H+  H112  1  0.64286961  0.47896833  0.48544003  1
  H+  H113  1  0.17490499  0.23359782  0.75417981  1
  H+  H114  1  0.81006701  0.90900069  0.64124372  1
  H+  H115  1  0.85853208  0.71422334  0.49215128  1
  H+  H116  1  0.39566254  0.91396521  0.64013345  1
  H+  H117  1  0.13799558  0.62425582  0.02048429  1
  H+  H118  1  0.11111975  0.24311268  0.14786013  1
  H+  H119  1  0.09650472  0.54415329  0.64237401  1
  H+  H120  1  0.84727772  0.02623573  0.91907815  1
  H+  H121  1  0.68120825  0.46762796  0.22397511  1
  H+  H122  1  0.34485288  0.84962590  0.50589121  1
  H+  H123  1  0.78094050  0.56023576  0.59518596  1
  H+  H124  1  0.62924291  0.81993883  0.97974774  1
  H+  H125  1  0.17899931  0.37411736  0.25452903  1
  H+  H126  1  0.87659482  0.77479355  0.90114152  1
  H+  H127  1  0.85852460  0.18760520  0.73494665  1
  H+  H128  1  0.88970157  0.43374382  0.84350532  1
  H+  H129  1  0.45174856  0.54978641  0.15463801  1
  H+  H130  1  0.10832087  0.23391835  0.62051880  1
  H+  H131  1  0.21301420  0.78762513  0.39519634  1
  H+  H132  1  0.53825168  0.76045154  0.39532706  1
  H+  H133  1  0.10931654  0.55256449  0.15848732  1
  H+  H134  1  0.44806193  0.53293830  0.63499019  1
  H+  H135  1  0.93266361  0.85682804  0.36309601  1
  H+  H136  1  0.80947110  0.07374531  0.33852302  1
  H+  H137  1  0.56950181  0.43421764  0.33830135  1
  H+  H138  1  0.37654579  0.52222380  0.00891589  1
  H+  H139  1  0.52179036  0.09992909  0.90873844  1
  H+  H140  1  0.76847915  0.52503315  0.07941985  1
  H+  H141  1  0.81698391  0.22741516  0.58821871  1
  H+  H142  1  0.57330457  0.12951459  0.39859730  1
  H+  H143  1  0.44039413  0.21758363  0.58919297  1
  O2-  O144  1  0.10588032  0.24196080  0.21585716  1
  O2-  O145  1  0.10692526  0.29570321  0.71508548  1
  O2-  O146  1  0.11468941  0.55770200  0.22740209  1
  O2-  O147  1  0.10667036  0.54184727  0.71285893  1
  O2-  O148  1  0.12825355  0.91281435  0.21180030  1
  O2-  O149  1  0.11064120  0.87054419  0.72080519  1
  O2-  O150  1  0.41128598  0.21688488  0.25619069  1
  O2-  O151  1  0.41227517  0.21947589  0.69019216  1
  O2-  O152  1  0.45222569  0.54546033  0.22231047  1
  O2-  O153  1  0.43914008  0.53022750  0.70301112  1
  O2-  O154  1  0.52122108  0.92623535  0.20350228  1
  O2-  O155  1  0.37086428  0.93440172  0.69877659  1
  O2-  O156  1  0.75282972  0.25928646  0.19036551  1
  O2-  O157  1  0.88987282  0.25555713  0.69503475  1
  O2-  O158  1  0.76058910  0.49276942  0.19308264  1
  O2-  O159  1  0.78110832  0.55729359  0.71382820  1
  O2-  O160  1  0.77027829  0.88066469  0.20627344  1
  O2-  O161  1  0.80319671  0.89648728  0.71030425  1
  O2-  O162  1  0.22240401  0.12924022  0.27885980  1
  O2-  O163  1  0.21141899  0.18595070  0.77180971  1
  O2-  O164  1  0.22162125  0.45535944  0.27798360  1
  O2-  O165  1  0.19584646  0.41918107  0.71888284  1
  O2-  O166  1  0.21260498  0.77391688  0.27345120  1
  O2-  O167  1  0.20678253  0.74980218  0.79007016  1
  O2-  O168  1  0.56751212  0.12313956  0.30255446  1
  O2-  O169  1  0.49621319  0.10860294  0.79447645  1
  O2-  O170  1  0.57459249  0.44268485  0.27086448  1
  O2-  O171  1  0.56324391  0.44930020  0.79428020  1
  O2-  O172  1  0.56005328  0.76718942  0.28373992  1
  O2-  O173  1  0.60042476  0.74218453  0.77629911  1
  O2-  O174  1  0.77898273  0.06571404  0.27472412  1
  O2-  O175  1  0.87802605  0.07707955  0.80978359  1
  O2-  O176  1  0.90727843  0.43539852  0.28398369  1
  O2-  O177  1  0.89406303  0.44364422  0.77544002  1
  O2-  O178  1  0.95854482  0.90584108  0.30812199  1
  O2-  O179  1  0.89150443  0.77450271  0.78325772  1
  O2-  O180  1  0.22753042  0.10721802  0.47118271  1
  O2-  O181  1  0.22452039  0.13683330  0.96010186  1
  O2-  O182  1  0.21836081  0.43028222  0.52753708  1
  O2-  O183  1  0.26406766  0.43507478  0.90779364  1
  O2-  O184  1  0.22130032  0.79120169  0.46205361  1
  O2-  O185  1  0.20784253  0.76127427  0.97512673  1
  O2-  O186  1  0.57340550  0.13379954  0.47108885  1
  O2-  O187  1  0.53436095  0.09555030  0.97545904  1
  O2-  O188  1  0.56462077  0.43095651  0.45919776  1
  O2-  O189  1  0.54470998  0.43969620  0.97042972  1
  O2-  O190  1  0.51880819  0.74749352  0.46223029  1
  O2-  O191  1  0.54831058  0.77283201  0.96116128  1
  O2-  O192  1  0.87232627  0.09749729  0.44164592  1
  O2-  O193  1  0.84173453  0.02193217  0.98776081  1
  O2-  O194  1  0.88070427  0.44103050  0.46596079  1
  O2-  O195  1  0.88334321  0.42298871  0.95764239  1
  O2-  O196  1  0.90797570  0.79565317  0.47465969  1
  O2-  O197  1  0.86661861  0.77438221  0.96864188  1
  O2-  O198  1  0.11579715  0.24164918  0.02960019  1
  O2-  O199  1  0.10332193  0.19675979  0.55864134  1
  O2-  O200  1  0.10019682  0.54674401  0.04857353  1
  O2-  O201  1  0.09031747  0.53724359  0.54165929  1
  O2-  O202  1  0.06524964  0.84243615  0.03530916  1
  O2-  O203  1  0.11459476  0.89405002  0.54540174  1
  O2-  O204  1  0.43314648  0.22319842  0.04780555  1
  O2-  O205  1  0.45379121  0.21683308  0.52037703  1
  O2-  O206  1  0.45373221  0.55951667  0.03474871  1
  O2-  O207  1  0.44761978  0.53183447  0.51981472  1
  O2-  O208  1  0.43765698  0.87833960  0.03474021  1
  O2-  O209  1  0.42090481  0.88105998  0.53862298  1
  O2-  O210  1  0.76818868  0.18784509  0.01972116  1
  O2-  O211  1  0.78938138  0.21889045  0.52425043  1
  O2-  O212  1  0.77197712  0.53633667  0.01193422  1
  O2-  O213  1  0.78055448  0.56320558  0.52700026  1
  O2-  O214  1  0.77617963  0.89977197  0.01146572  1
  O2-  O215  1  0.82655125  0.92554466  0.53350703  1
