# generated using pymatgen
data_H2O
_symmetry_space_group_name_H-M   'P 1'
_cell_length_a   13.50637164
_cell_length_b   13.53661369
_cell_length_c   14.71363381
_cell_angle_alpha   90.07305358
_cell_angle_beta   89.96995182
_cell_angle_gamma   119.91913589
_symmetry_Int_Tables_number   1
_chemical_formula_structural   H2O
_chemical_formula_sum   'H144 O72'
_cell_volume   2331.59037295
_cell_formula_units_Z   72
loop_
 _symmetry_equiv_pos_site_id
 _symmetry_equiv_pos_as_xyz
  1  'x, y, z'
loop_
 _atom_type_symbol
 _atom_type_oxidation_number
  H+  1.0
  O2-  -2.0
loop_
 _atom_site_type_symbol
 _atom_site_label
 _atom_site_symmetry_multiplicity
 _atom_site_fract_x
 _atom_site_fract_y
 _atom_site_fract_z
 _atom_site_occupancy
  H+  H0  1  0.33978758  0.44684235  0.71814670  1
  H+  H1  1  0.31788754  0.44758120  0.24907221  1
  H+  H2  1  0.27877604  0.13198291  0.75627567  1
  H+  H3  1  1.02524243  0.14665486  0.25476491  1
  H+  H4  1  0.83578538  0.19844100  0.52303843  1
  H+  H5  1  0.17820749  0.83377036  0.49499240  1
  H+  H6  1  0.53315831  0.37532166  0.48020543  1
  H+  H7  1  0.99847685  1.07385084  0.84342608  1
  H+  H8  1  0.73132448  0.05197446  0.42749992  1
  H+  H9  1  0.62893105  0.48495168  0.98888421  1
  H+  H10  1  0.15470616  0.26811253  0.25077157  1
  H+  H11  1  0.36534744  0.51413597  0.00839578  1
  H+  H12  1  0.52315634  0.47147215  0.25005243  1
  H+  H13  1  0.00452554  0.52214488  0.26139713  1
  H+  H14  1  0.82553711  0.63361500  0.23594477  1
  H+  H15  1  0.17867509  0.72779494  0.25528326  1
  H+  H16  1  0.83948616  0.64112307  0.73460733  1
  H+  H17  1  0.84776617  0.80937104  0.25104882  1
  H+  H18  1  0.46928930  0.92191560  0.73218586  1
  H+  H19  1  0.87404924  0.09393473  0.34136659  1
  H+  H20  1  0.46782436  0.02476545  0.83222458  1
  H+  H21  1  0.91385268  0.39475109  0.27179534  1
  H+  H22  1  0.48264015  0.16560892  0.24320423  1
  H+  H23  1  0.59083269  0.14005167  0.01993330  1
  H+  H24  1  0.17709329  0.22434161  0.74729098  1
  H+  H25  1  0.85132126  0.80326446  -0.00452991  1
  H+  H26  1  0.58979548  0.21383653  0.88216086  1
  H+  H27  1  0.06047417  0.87470211  0.50165859  1
  H+  H28  1  0.90690123  0.14446455  0.91220093  1
  H+  H29  1  0.81565664  0.86517564  0.76463737  1
  H+  H30  1  0.58319403  0.76077493  0.76197977  1
  H+  H31  1  0.69206222  0.82061645  0.00047308  1
  H+  H32  1  0.18938781  0.68061062  0.75472877  1
  H+  H33  1  0.50312456  0.42975916  0.76032154  1
  H+  H34  1  0.02272627  0.83697604  0.01274200  1
  H+  H35  1  -0.03179653  0.19553911  0.00507673  1
  H+  H36  1  0.17566958  0.50948743  0.50987376  1
  H+  H37  1  0.61334838  0.32031008  0.82459337  1
  H+  H38  1  0.50511691  0.79644604  0.25987217  1
  H+  H39  1  0.88651673  0.39431421  0.50131913  1
  H+  H40  1  0.17141517  0.70237259  0.98854019  1
  H+  H41  1  0.83061085  0.51867141  0.24069479  1
  H+  H42  1  0.15372954  0.83808794  0.00885730  1
  H+  H43  1  0.34061804  0.81439777  0.73481943  1
  H+  H44  1  0.19635562  0.97955902  0.52614612  1
  H+  H45  1  0.85031888  0.49388403  0.97753175  1
  H+  H46  1  0.67896244  0.83574110  0.74978989  1
  H+  H47  1  0.44836595  0.53739794  0.59184502  1
  H+  H48  1  0.73891516  0.17160007  0.15625258  1
  H+  H49  1  0.45125463  0.94195992  0.50791287  1
  H+  H50  1  1.03093652  0.53109813  1.00200445  1
  H+  H51  1  0.84092641  0.53480981  0.50435894  1
  H+  H52  1  1.05640104  0.52215712  0.72826442  1
  H+  H53  1  0.17906459  0.37762723  0.96266475  1
  H+  H54  1  0.19228963  0.43088767  0.24985954  1
  H+  H55  1  0.86289919  0.51697861  0.73457887  1
  H+  H56  1  0.47753512  0.61443707  0.24235128  1
  H+  H57  1  0.30340968  0.83351489  0.25941330  1
  H+  H58  1  0.42973886  0.12421123  0.70524623  1
  H+  H59  1  0.19839262  0.02985497  0.26255764  1
  H+  H60  1  0.96738901  0.83022390  0.75916535  1
  H+  H61  1  0.50059270  0.69261001  -0.00080942  1
  H+  H62  1  0.14202941  0.46211254  0.81734198  1
  H+  H63  1  0.87085724  0.39040804  0.94628601  1
  H+  H64  1  0.60960701  0.11046550  0.28130844  1
  H+  H65  1  0.86868994  0.38413331  0.75414374  1
  H+  H66  1  0.31744552  0.47438369  0.48421181  1
  H+  H67  1  0.85420253  0.13762969  0.24835094  1
  H+  H68  1  0.18959429  0.20760165  -0.00187454  1
  H+  H69  1  0.15222815  0.86125904  0.23506587  1
  H+  H70  1  0.07203947  0.53239079  0.51871793  1
  H+  H71  1  0.53710497  0.13293258  0.50157450  1
  H+  H72  1  0.29139779  0.81925028  -0.00798355  1
  H+  H73  1  0.73348137  0.25127053  0.77492728  1
  H+  H74  1  0.19062985  0.58782929  0.21951529  1
  H+  H75  1  0.76238505  0.26895822  0.04332992  1
  H+  H76  1  0.17514855  0.19355144  0.52508876  1
  H+  H77  1  0.46449656  0.30058845  0.75702749  1
  H+  H78  1  1.01305042  0.17167705  0.78115188  1
  H+  H79  1  0.50035144  0.51828476  0.49984009  1
  H+  H80  1  0.87751147  0.71574915  0.48061547  1
  H+  H81  1  1.15651466  0.29662060  0.51301224  1
  H+  H82  1  0.76150375  0.25268062  0.23881780  1
  H+  H83  1  0.51184076  0.80555919  0.48947578  1
  H+  H84  1  0.46647229  0.76440158  0.75464139  1
  H+  H85  1  0.82261973  0.62896678  0.01094805  1
  H+  H86  1  0.13238828  0.25107976  0.65749912  1
  H+  H87  1  0.51892438  0.69033844  0.49286413  1
  H+  H88  1  0.83943906  0.79322502  0.79256992  1
  H+  H89  1  0.69119420  0.83451667  0.49908750  1
  H+  H90  1  0.87096271  0.82880995  0.47525829  1
  H+  H91  1  0.74052637  0.22837985  0.53703810  1
  H+  H92  1  0.47155194  -0.05355662  0.24563062  1
  H+  H93  1  0.49681664  1.05700921  0.78907235  1
  H+  H94  1  0.43916858  0.57297824  0.74096244  1
  H+  H95  1  0.54950516  0.76125654  0.34797629  1
  H+  H96  1  0.31516605  0.15136501  0.25448060  1
  H+  H97  1  0.68876576  0.83059007  0.23775770  1
  H+  H98  1  0.27392013  0.14436497  0.41294814  1
  H+  H99  1  0.49575483  0.28946572  0.23002261  1
  H+  H100  1  0.10979855  0.99245445  0.73843977  1
  H+  H101  1  0.19433214  0.03606812  0.99518963  1
  H+  H102  1  0.80677194  0.94910054  0.23150411  1
  H+  H103  1  0.79584082  0.17514127  0.01392814  1
  H+  H104  1  0.72058837  0.53193720  0.50113633  1
  H+  H105  1  1.02962986  0.85613900  0.23187466  1
  H+  H106  1  0.80839106  1.01194456  0.47496302  1
  H+  H107  1  0.46681957  0.84029992  1.01036144  1
  H+  H108  1  0.45787265  0.95519761  0.02032454  1
  H+  H109  1  0.78149128  0.54411671  0.09507236  1
  H+  H110  1  0.08402817  0.90933332  0.65218887  1
  H+  H111  1  0.14674383  0.52772405  0.00232240  1
  H+  H112  1  0.64427420  0.47653481  0.25040481  1
  H+  H113  1  0.92280331  0.46920957  0.41029437  1
  H+  H114  1  0.79800398  0.24673922  0.68167618  1
  H+  H115  1  0.39977828  0.08143667  0.48922764  1
  H+  H116  1  0.14817975  0.54805403  0.65174649  1
  H+  H117  1  0.21959629  0.79751495  0.39259047  1
  H+  H118  1  0.76723148  0.85767011  0.08964281  1
  H+  H119  1  0.46474631  0.17686133  0.09431202  1
  H+  H120  1  0.42981653  0.86943124  0.15456412  1
  H+  H121  1  0.18844751  0.27980626  0.08005777  1
  H+  H122  1  0.91545477  0.48654175  0.83307886  1
  H+  H123  1  0.80561939  0.57075176  0.63797311  1
  H+  H124  1  0.15917142  0.14675386  0.25721719  1
  H+  H125  1  0.90195993  0.78159475  0.33830464  1
  H+  H126  1  0.44391239  0.54215410  0.14927171  1
  H+  H127  1  0.22066377  0.76899713  0.83806690  1
  H+  H128  1  0.51198717  0.07731686  0.35989259  1
  H+  H129  1  0.52275609  0.75668503  0.90600476  1
  H+  H130  1  0.77583038  0.89360270  0.66248669  1
  H+  H131  1  0.29419002  0.80933392  0.48703973  1
  H+  H132  1  0.78278431  0.88698161  0.58267383  1
  H+  H133  1  0.23774067  0.42301752  0.39701009  1
  H+  H134  1  0.42043140  0.85505574  0.59210063  1
  H+  H135  1  0.36286878  0.14488687  0.62454731  1
  H+  H136  1  0.48380800  0.51334998  0.00849374  1
  H+  H137  1  0.56937544  0.44436887  0.38781089  1
  H+  H138  1  0.22169532  0.11120577  0.85525794  1
  H+  H139  1  0.32328040  0.13533313  0.98926887  1
  H+  H140  1  0.11049171  0.88557772  0.10643276  1
  H+  H141  1  0.11819401  0.58645232  0.13388026  1
  H+  H142  1  0.90686738  0.76852678  0.91133046  1
  H+  H143  1  0.53408129  0.42145414  0.91244925  1
  O2-  O144  1  0.10908430  0.18350110  0.23376283  1
  O2-  O145  1  0.14544342  0.27110197  0.72366628  1
  O2-  O146  1  0.12685228  0.59878343  0.20304120  1
  O2-  O147  1  0.13851339  0.54864534  0.72040147  1
  O2-  O148  1  0.11112522  0.89955191  0.20819878  1
  O2-  O149  1  0.04817785  0.92447490  0.70489826  1
  O2-  O150  1  0.44955881  0.20768568  0.21121552  1
  O2-  O151  1  0.39411488  0.16916399  0.68892117  1
  O2-  O152  1  0.44282906  0.53495076  0.21752671  1
  O2-  O153  1  0.42102970  0.50195893  0.70788693  1
  O2-  O154  1  0.42978701  0.86585080  0.22263943  1
  O2-  O155  1  0.42350134  0.84493856  0.70740479  1
  O2-  O156  1  0.74761692  0.17626413  0.22516715  1
  O2-  O157  1  0.80762706  0.26755955  0.74661456  1
  O2-  O158  1  0.78658019  0.55230503  0.21477487  1
  O2-  O159  1  0.80750731  0.56402938  0.70614080  1
  O2-  O160  1  0.76832603  0.86799852  0.21308572  1
  O2-  O161  1  0.76593932  0.89538372  0.73454713  1
  O2-  O162  1  0.23710286  0.11066875  0.28429063  1
  O2-  O163  1  0.20614622  0.11090364  0.78914830  1
  O2-  O164  1  0.23573443  0.39636566  0.27256474  1
  O2-  O165  1  0.10303178  0.41849551  0.87307476  1
  O2-  O166  1  0.22255775  0.80559086  0.28234656  1
  O2-  O167  1  0.22501511  0.76401730  0.77155017  1
  O2-  O168  1  0.52671075  0.07727336  0.29278034  1
  O2-  O169  1  0.65018823  0.27863888  0.84906293  1
  O2-  O170  1  0.56393599  0.43207974  0.27327150  1
  O2-  O171  1  0.51539259  0.37163019  0.79043092  1
  O2-  O172  1  0.54709092  0.75699889  0.28022089  1
  O2-  O173  1  0.50298496  0.72172395  0.78389455  1
  O2-  O174  1  0.89390294  0.09920619  0.27522856  1
  O2-  O175  1  0.95383755  0.10490237  0.81641934  1
  O2-  O176  1  0.92780546  0.47025945  0.28895541  1
  O2-  O177  1  0.91303612  0.47652948  0.76504270  1
  O2-  O178  1  0.89678367  0.77648375  0.27018974  1
  O2-  O179  1  0.89512486  0.76607463  0.79554959  1
  O2-  O180  1  0.29777959  0.17853389  0.47414109  1
  O2-  O181  1  0.24325227  0.11414305  0.97271374  1
  O2-  O182  1  0.23636588  0.43355494  0.46308719  1
  O2-  O183  1  0.19600681  0.45462970  0.94050261  1
  O2-  O184  1  0.21547095  0.78785766  0.46120965  1
  O2-  O185  1  0.20996145  0.78483304  0.96923719  1
  O2-  O186  1  0.47270717  0.07113329  0.46960036  1
  O2-  O187  1  0.51004332  0.10117041  0.99720845  1
  O2-  O188  1  0.57416390  0.45287520  0.45618905  1
  O2-  O189  1  0.54645234  0.44988560  0.97553921  1
  O2-  O190  1  0.55873597  0.77114897  0.46922916  1
  O2-  O191  1  0.53631940  0.77078763  0.97216777  1
  O2-  O192  1  0.81060418  0.08018252  0.44573551  1
  O2-  O193  1  0.89451040  0.16639064  0.97455306  1
  O2-  O194  1  0.91919106  0.47303098  0.47745446  1
  O2-  O195  1  0.90496958  0.47319770  0.94576480  1
  O2-  O196  1  0.91756044  0.79491271  0.45520335  1
  O2-  O197  1  0.90436439  0.77117565  0.97932436  1
  O2-  O198  1  0.15783152  0.25623185  0.01904023  1
  O2-  O199  1  0.12069587  0.21946261  0.54058428  1
  O2-  O200  1  0.10984049  0.57013248  0.02870813  1
  O2-  O201  1  0.14901890  0.55638433  0.54219856  1
  O2-  O202  1  0.10860760  0.87973842  0.03554494  1
  O2-  O203  1  0.13249678  0.89432587  0.53449164  1
  O2-  O204  1  0.46258972  0.17418554  0.02613680  1
  O2-  O205  1  0.30854612  0.08953879  0.52485396  1
  O2-  O206  1  0.44169587  0.55261984  0.03550577  1
  O2-  O207  1  0.45669101  0.55362195  0.52514540  1
  O2-  O208  1  0.42069585  0.87317491  0.03705678  1
  O2-  O209  1  0.42221407  0.85989388  0.52389754  1
  O2-  O210  1  0.73462857  0.18743412  0.04746013  1
  O2-  O211  1  0.81962188  0.25433486  0.55360962  1
  O2-  O212  1  0.78048862  0.54629119  0.02723924  1
  O2-  O213  1  0.80010224  0.57609078  0.52462977  1
  O2-  O214  1  0.77093204  0.85018648  0.02285781  1
  O2-  O215  1  0.77679876  0.88183036  0.51508506  1
