# generated using pymatgen
data_H2O
_symmetry_space_group_name_H-M   'P 1'
_cell_length_a   13.54690349
_cell_length_b   13.55517430
_cell_length_c   14.70608500
_cell_angle_alpha   89.90210730
_cell_angle_beta   90.04461065
_cell_angle_gamma   119.96200095
_symmetry_Int_Tables_number   1
_chemical_formula_structural   H2O
_chemical_formula_sum   'H144 O72'
_cell_volume   2339.58256965
_cell_formula_units_Z   72
loop_
 _symmetry_equiv_pos_site_id
 _symmetry_equiv_pos_as_xyz
  1  'x, y, z'
loop_
 _atom_type_symbol
 _atom_type_oxidation_number
  H+  1.0
  O2-  -2.0
loop_
 _atom_site_type_symbol
 _atom_site_label
 _atom_site_symmetry_multiplicity
 _atom_site_fract_x
 _atom_site_fract_y
 _atom_site_fract_z
 _atom_site_occupancy
  H+  H0  1  0.13104920  0.31511643  0.48937820  1
  H+  H1  1  -0.02554449  0.13488955  -0.02195780  1
  H+  H2  1  0.82646021  0.30038462  1.02735904  1
  H+  H3  1  0.46410394  0.62920813  0.70224620  1
  H+  H4  1  0.10578316  0.52405697  0.74680500  1
  H+  H5  1  0.24238241  0.41822448  0.26126102  1
  H+  H6  1  0.83545123  0.90967999  0.09874018  1
  H+  H7  1  0.80859122  0.28976669  0.25933264  1
  H+  H8  1  0.48323164  0.17640477  -0.02647877  1
  H+  H9  1  0.44417339  0.59746845  0.23042676  1
  H+  H10  1  0.60038170  0.75946810  0.24894744  1
  H+  H11  1  0.93615677  0.12539909  0.28583726  1
  H+  H12  1  0.48681070  0.31797729  0.76472379  1
  H+  H13  1  0.53773250  0.53522869  1.00607625  1
  H+  H14  1  0.22672451  0.90322045  0.24387318  1
  H+  H15  1  0.07592879  0.19168702  0.09823854  1
  H+  H16  1  0.54636862  0.73162850  0.46941737  1
  H+  H17  1  0.55132678  0.84958921  0.48615426  1
  H+  H18  1  0.53155862  0.36323785  0.99280893  1
  H+  H19  1  0.65439060  0.48105204  0.99906243  1
  H+  H20  1  0.09281182  0.12854521  0.23540505  1
  H+  H21  1  0.86286665  0.00155455  0.97368347  1
  H+  H22  1  0.89437729  0.87148430  0.47996528  1
  H+  H23  1  0.12812920  0.15165549  0.71528747  1
  H+  H24  1  0.20121481  0.93886374  0.49601868  1
  H+  H25  1  0.83628499  0.46613250  0.27532727  1
  H+  H26  1  0.74750229  0.83324141  0.01952681  1
  H+  H27  1  0.13570196  0.69930676  0.99115632  1
  H+  H28  1  0.89304288  0.91995247  0.22910671  1
  H+  H29  1  0.95539776  0.80219979  0.25275528  1
  H+  H30  1  0.17461112  0.48086955  0.81350787  1
  H+  H31  1  0.37761946  0.48706863  0.71726698  1
  H+  H32  1  0.43616836  0.46531716  0.49669401  1
  H+  H33  1  0.53629762  1.04959206  0.49962899  1
  H+  H34  1  0.02067548  0.89098546  0.48623061  1
  H+  H35  1  0.67049731  0.19921911  0.52584537  1
  H+  H36  1  0.84621502  0.42727848  0.90568168  1
  H+  H37  1  0.75137231  0.16797237  0.02660001  1
  H+  H38  1  0.15088265  0.86191333  1.01365409  1
  H+  H39  1  0.06267402  0.54877877  0.09756466  1
  H+  H40  1  0.17370672  -0.00110606  1.01586147  1
  H+  H41  1  0.91419174  0.80048089  0.75416274  1
  H+  H42  1  0.77073221  0.62905382  0.73374649  1
  H+  H43  1  0.57828738  0.42897851  0.48762134  1
  H+  H44  1  0.40761944  0.19783519  0.66366445  1
  H+  H45  1  0.11683776  0.28442217  0.01673876  1
  H+  H46  1  0.92532157  0.48211621  0.75841288  1
  H+  H47  1  0.50532991  0.36327975  0.24349988  1
  H+  H48  1  0.80490610  0.47596210  0.75731100  1
  H+  H49  1  1.02284654  0.17154322  0.72058580  1
  H+  H50  1  0.33130982  0.85541784  0.97314544  1
  H+  H51  1  0.23887367  0.47081032  0.99402880  1
  H+  H52  1  0.41158486  0.89022076  0.51536832  1
  H+  H53  1  0.23003665  0.53755634  0.80792187  1
  H+  H54  1  0.44662787  0.20583987  0.07057772  1
  H+  H55  1  0.12964428  0.58749248  0.49899841  1
  H+  H56  1  0.44044704  0.84260231  -0.03702978  1
  H+  H57  1  0.31889927  0.08482683  0.24071888  1
  H+  H58  1  0.53079967  0.71117465  -0.03298218  1
  H+  H59  1  0.35296276  0.17973021  0.76502568  1
  H+  H60  1  0.47286503  0.79909778  0.73081667  1
  H+  H61  1  0.22661417  0.79485744  0.50580038  1
  H+  H62  1  0.67028496  0.85524484  0.71872638  1
  H+  H63  1  0.51100048  -0.01879606  0.24912524  1
  H+  H64  1  0.49289620  1.02662747  -0.07433563  1
  H+  H65  1  0.10174743  0.24938640  0.24311425  1
  H+  H66  1  0.93792903  0.47832712  0.98637601  1
  H+  H67  1  0.90746020  0.13852921  0.41001215  1
  H+  H68  1  0.43385361  0.26056391  0.49202460  1
  H+  H69  1  0.60152069  0.84543566  0.94885096  1
  H+  H70  1  0.81204921  0.50904755  0.02323958  1
  H+  H71  1  0.86694508  0.69047002  0.97784633  1
  H+  H72  1  0.78049318  0.84391176  0.73584298  1
  H+  H73  1  0.84199037  0.15138791  0.76278339  1
  H+  H74  1  -0.00582965  0.47172410  0.24591378  1
  H+  H75  1  0.34436292  0.24087225  0.17944051  1
  H+  H76  1  0.30769999  0.16139309  0.97849913  1
  H+  H77  1  0.80218903  0.60836535  0.26975598  1
  H+  H78  1  0.88753415  0.81542694  -0.02078813  1
  H+  H79  1  0.83157208  0.02909558  0.74988639  1
  H+  H80  1  0.20544752  1.03370362  0.55703120  1
  H+  H81  1  0.86027855  0.50875506  0.50052491  1
  H+  H82  1  0.50471062  0.15416032  0.79104591  1
  H+  H83  1  0.50524926  0.13618339  0.27793236  1
  H+  H84  1  0.52181974  0.87070817  0.23826510  1
  H+  H85  1  0.10734363  0.83737819  0.77652751  1
  H+  H86  1  0.73125005  0.88309347  0.49789625  1
  H+  H87  1  0.15507354  0.02002157  0.77525197  1
  H+  H88  1  0.21275402  0.32214118  0.73106120  1
  H+  H89  1  0.68164659  0.17749287  0.76342076  1
  H+  H90  1  0.18688311  0.16030430  0.99314298  1
  H+  H91  1  0.16793795  0.93248246  0.11617269  1
  H+  H92  1  0.12867567  0.42461649  0.25565482  1
  H+  H93  1  0.61186424  0.46520266  0.75842492  1
  H+  H94  1  0.53088330  0.49160067  0.25742660  1
  H+  H95  1  0.79308290  0.29987213  0.75444411  1
  H+  H96  1  0.12112154  0.46820512  0.51354536  1
  H+  H97  1  0.63517777  0.15499404  0.27167117  1
  H+  H98  1  0.88213162  0.70025773  0.50224548  1
  H+  H99  1  0.51864177  0.40463995  0.39124081  1
  H+  H100  1  0.45818699  0.98373437  0.75672666  1
  H+  H101  1  0.74060082  0.55539329  0.64384580  1
  H+  H102  1  0.10803217  0.51876221  0.01084706  1
  H+  H103  1  0.83486212  0.15490588  0.29891679  1
  H+  H104  1  0.56510180  0.12651139  0.40805402  1
  H+  H105  1  0.42592905  0.53870463  0.01769244  1
  H+  H106  1  0.14896117  0.69850618  0.75038937  1
  H+  H107  1  0.31819689  0.46732858  0.50404426  1
  H+  H108  1  0.92707989  0.66350600  0.58409529  1
  H+  H109  1  0.37559381  0.95892550  0.67571193  1
  H+  H110  1  0.15757764  0.42641115  0.91234427  1
  H+  H111  1  0.87596108  0.43092042  0.36652778  1
  H+  H112  1  0.79506801  0.32563409  0.53634540  1
  H+  H113  1  0.55851320  0.42292416  0.86089520  1
  H+  H114  1  0.68765915  0.49454801  0.25209251  1
  H+  H115  1  0.07401174  0.54230284  0.64794877  1
  H+  H116  1  0.17829894  0.40052366  0.40648825  1
  H+  H117  1  0.78322466  0.56018634  0.11126355  1
  H+  H118  1  0.12068355  0.57264634  0.23716856  1
  H+  H119  1  -0.04873633  0.46686298  0.50110823  1
  H+  H120  1  0.26839781  0.81782260  0.75895076  1
  H+  H121  1  0.51858195  0.76137233  0.81473868  1
  H+  H122  1  0.36130696  0.85565087  0.26756250  1
  H+  H123  1  0.51786422  0.60456949  0.14528443  1
  H+  H124  1  0.46278997  0.15352333  0.49971269  1
  H+  H125  1  0.96946515  0.86337182  0.34806008  1
  H+  H126  1  0.78546735  0.21292516  0.17081032  1
  H+  H127  1  0.84099249  0.75325804  0.83958140  1
  H+  H128  1  0.48713541  0.92189566  0.60411188  1
  H+  H129  1  0.76984224  0.91018112  0.22488434  1
  H+  H130  1  0.28161139  0.84713282  0.40884882  1
  H+  H131  1  0.87895177  1.05791660  0.50944897  1
  H+  H132  1  0.23017616  0.75202694  0.28500180  1
  H+  H133  1  0.17216642  0.77245411  0.89776480  1
  H+  H134  1  1.03053898  0.84959399  0.85080060  1
  H+  H135  1  0.62403081  0.83605756  0.33613526  1
  H+  H136  1  0.42356782  0.53539222  0.60649457  1
  H+  H137  1  0.74678138  0.23167388  0.62855191  1
  H+  H138  1  0.05309598  0.17225697  0.57347607  1
  H+  H139  1  0.89150851  0.09181350  0.87917789  1
  H+  H140  1  0.20282864  0.11430060  0.84912695  1
  H+  H141  1  0.30966891  0.34084585  0.80004838  1
  H+  H142  1  0.79124398  0.91007818  0.59425059  1
  H+  H143  1  0.12680931  0.93478267  0.24797550  1
  O2-  O144  1  0.05757007  0.17209601  0.21431173  1
  O2-  O145  1  0.09474569  0.19572717  0.68685202  1
  O2-  O146  1  0.06867539  0.49799905  0.21146974  1
  O2-  O147  1  0.06509013  0.55603844  0.71335546  1
  O2-  O148  1  0.20005366  0.95445184  0.21629556  1
  O2-  O149  1  0.06054899  0.87416167  0.78881221  1
  O2-  O150  1  0.41550413  0.23789713  0.18506620  1
  O2-  O151  1  0.43182781  0.21914769  0.73877218  1
  O2-  O152  1  0.51843077  0.60756332  0.21344661  1
  O2-  O153  1  0.44313807  0.55075192  0.68016865  1
  O2-  O154  1  0.47037362  0.90167343  0.22538752  1
  O2-  O155  1  0.40780904  0.92169056  0.71276257  1
  O2-  O156  1  0.77216618  0.20895212  0.23868441  1
  O2-  O157  1  0.75737263  0.21899346  0.73211182  1
  O2-  O158  1  0.77113470  0.53763040  0.23523062  1
  O2-  O159  1  0.73457336  0.54788440  0.71031980  1
  O2-  O160  1  0.84524033  0.94277272  0.19378136  1
  O2-  O161  1  0.75388021  0.89468099  0.70874693  1
  O2-  O162  1  0.38963494  0.15636471  0.26097476  1
  O2-  O163  1  0.20263154  0.10454786  0.78207817  1
  O2-  O164  1  0.16488277  0.38320259  0.28524430  1
  O2-  O165  1  0.27948301  0.38162686  0.76598659  1
  O2-  O166  1  0.27982066  0.83277239  0.29712490  1
  O2-  O167  1  0.18878497  0.77374589  0.78152150  1
  O2-  O168  1  0.55849244  0.11126807  0.30180198  1
  O2-  O169  1  0.54317391  0.10958486  0.80838907  1
  O2-  O170  1  0.55077662  0.43422937  0.28007299  1
  O2-  O171  1  0.53975346  0.41473676  0.79365582  1
  O2-  O172  1  0.63140993  0.83925184  0.26878622  1
  O2-  O173  1  0.51700200  0.76210653  0.74657121  1
  O2-  O174  1  0.87720343  0.11944981  0.32946741  1
  O2-  O175  1  0.88082404  0.10712527  0.77675353  1
  O2-  O176  1  0.87646294  0.42607767  0.29866481  1
  O2-  O177  1  0.84603056  0.43819256  0.78235836  1
  O2-  O178  1  0.98644200  0.87760372  0.27997170  1
  O2-  O179  1  0.83215582  0.75903679  0.77199420  1
  O2-  O180  1  0.34339439  0.14557124  0.59181625  1
  O2-  O181  1  0.22283101  0.11777565  0.96730722  1
  O2-  O182  1  0.17921203  0.39894423  0.47410259  1
  O2-  O183  1  0.15807526  0.42339150  0.97952717  1
  O2-  O184  1  0.28714598  0.86272025  0.47645440  1
  O2-  O185  1  0.17412539  0.77845320  0.96571430  1
  O2-  O186  1  0.55929835  0.12924363  0.47779041  1
  O2-  O187  1  0.54169260  0.11073726  0.90925159  1
  O2-  O188  1  0.50312753  0.39226465  0.45890160  1
  O2-  O189  1  0.57532373  0.44425415  0.97169687  1
  O2-  O190  1  0.59167899  0.81315705  0.45629054  1
  O2-  O191  1  0.53295509  0.77508197  0.93148697  1
  O2-  O192  1  0.92506584  0.14324745  0.49078221  1
  O2-  O193  1  0.89570054  0.08345114  0.94920733  1
  O2-  O194  1  0.87034172  0.44246025  0.48388935  1
  O2-  O195  1  0.85512452  0.42753496  0.97283785  1
  O2-  O196  1  0.94354652  0.84155101  0.45702222  1
  O2-  O197  1  0.90347447  0.76317584  0.94305168  1
  O2-  O198  1  0.08884657  0.20264108  0.03068717  1
  O2-  O199  1  0.04556687  0.17468849  0.50472320  1
  O2-  O200  1  0.06988365  0.56134252  0.03086860  1
  O2-  O201  1  0.08617225  0.51658228  0.53287403  1
  O2-  O202  1  0.13910420  0.92186051  0.04932045  1
  O2-  O203  1  0.15107690  0.96224660  0.52511482  1
  O2-  O204  1  0.44702550  0.21662641  0.00394331  1
  O2-  O205  1  0.39869277  0.17468162  0.50174844  1
  O2-  O206  1  0.50775420  0.58690187  0.02752340  1
  O2-  O207  1  0.40219187  0.51194660  0.51792145  1
  O2-  O208  1  0.41524758  0.89859438  -0.02991642  1
  O2-  O209  1  0.49270534  0.92134000  0.53715604  1
  O2-  O210  1  0.81561943  0.23011329  0.05821872  1
  O2-  O211  1  0.74899714  0.24310339  0.55856896  1
  O2-  O212  1  0.78234541  0.56025359  0.04384841  1
  O2-  O213  1  0.86458811  0.63166433  0.54023147  1
  O2-  O214  1  0.82742840  0.89081634  0.02789978  1
  O2-  O215  1  0.80764416  0.92418360  0.52764586  1
