# generated using pymatgen
data_H2O
_symmetry_space_group_name_H-M   'P 1'
_cell_length_a   13.45234290
_cell_length_b   13.47765542
_cell_length_c   14.62980027
_cell_angle_alpha   90.24413726
_cell_angle_beta   90.00244980
_cell_angle_gamma   119.93182012
_symmetry_Int_Tables_number   1
_chemical_formula_structural   H2O
_chemical_formula_sum   'H144 O72'
_cell_volume   2298.65590641
_cell_formula_units_Z   72
loop_
 _symmetry_equiv_pos_site_id
 _symmetry_equiv_pos_as_xyz
  1  'x, y, z'
loop_
 _atom_type_symbol
 _atom_type_oxidation_number
  H+  1.0
  O2-  -2.0
loop_
 _atom_site_type_symbol
 _atom_site_label
 _atom_site_symmetry_multiplicity
 _atom_site_fract_x
 _atom_site_fract_y
 _atom_site_fract_z
 _atom_site_occupancy
  H+  H0  1  0.95094438  0.80967867  0.47958317  1
  H+  H1  1  0.15138478  0.52411524  0.50774297  1
  H+  H2  1  0.32597505  0.48905141  0.97458875  1
  H+  H3  1  0.45075792  0.83881104  0.52113553  1
  H+  H4  1  0.16826657  0.70336149  0.49358663  1
  H+  H5  1  0.73170190  0.21082331  0.92104598  1
  H+  H6  1  0.48384366  0.64302990  0.72864511  1
  H+  H7  1  0.65482879  0.54097834  0.98252226  1
  H+  H8  1  0.36200613  0.86801892  0.02557679  1
  H+  H9  1  0.09587905  0.89159748  0.15698364  1
  H+  H10  1  0.82654778  0.80183559  0.48511066  1
  H+  H11  1  0.62571427  0.83271801  0.27670261  1
  H+  H12  1  0.63412835  0.80644534  0.50282830  1
  H+  H13  1  0.81465634  0.53736789  0.08287110  1
  H+  H14  1  0.36892543  0.52413861  0.50092078  1
  H+  H15  1  0.37978328  0.19594362  0.25048186  1
  H+  H16  1  0.80759165  0.62158446  0.49581470  1
  H+  H17  1  0.95862429  0.81679593  0.25587879  1
  H+  H18  1  0.29918381  0.82843530  0.76051124  1
  H+  H19  1  0.61617611  0.46194394  0.47184482  1
  H+  H20  1  0.80078160  -0.06680544  0.51476620  1
  H+  H21  1  0.00575421  0.84712083  0.00973315  1
  H+  H22  1  -0.03223111  0.16027977  0.71931250  1
  H+  H23  1  0.34247253  0.24891992  0.89625141  1
  H+  H24  1  0.13368148  0.96394952  0.51323466  1
  H+  H25  1  0.48930546  0.64341161  0.50605858  1
  H+  H26  1  0.51300208  0.85556033  0.97300967  1
  H+  H27  1  0.13022530  0.86116868  0.00886685  1
  H+  H28  1  0.08953345  0.87970117  0.65440863  1
  H+  H29  1  0.15756774  0.20066277  0.72518236  1
  H+  H30  1  0.02928313  0.27713372  0.06365837  1
  H+  H31  1  0.15380109  0.52165238  0.73843799  1
  H+  H32  1  0.28841372  0.14897731  0.49708783  1
  H+  H33  1  0.52240543  0.37939253  0.75398577  1
  H+  H34  1  0.85585455  0.49357932  0.77133491  1
  H+  H35  1  0.58884090  0.35087287  0.27986485  1
  H+  H36  1  0.82812216  0.15705501  0.23040771  1
  H+  H37  1  0.62902722  0.85026037  -0.01777059  1
  H+  H38  1  0.09338364  0.02142920  0.99750236  1
  H+  H39  1  0.13355768  -0.15390585  0.74368060  1
  H+  H40  1  0.80746940  -0.04661186  0.71299191  1
  H+  H41  1  0.18579499  0.03132953  0.26401255  1
  H+  H42  1  -0.03647820  0.14366104  0.49735160  1
  H+  H43  1  0.30812353  0.49229603  0.74643023  1
  H+  H44  1  0.81017744  0.84866479  0.00523171  1
  H+  H45  1  0.51087262  0.57921476  -0.00315054  1
  H+  H46  1  0.80066582  0.66027219  0.19612111  1
  H+  H47  1  0.16366856  0.32266027  0.72880816  1
  H+  H48  1  0.63184243  0.81890791  0.74049007  1
  H+  H49  1  0.29212011  0.82100755  0.49962697  1
  H+  H50  1  0.13770071  0.84739895  0.51093874  1
  H+  H51  1  0.45794391  0.10065676  0.27409160  1
  H+  H52  1  0.59157502  0.51544741  0.88482522  1
  H+  H53  1  0.85379954  0.30343175  0.49563175  1
  H+  H54  1  -0.01743824  0.45504282  0.47386903  1
  H+  H55  1  0.46384933  0.29481053  0.50178937  1
  H+  H56  1  0.14991579  0.18757714  0.49534997  1
  H+  H57  1  0.21508671  0.10501803  0.40529408  1
  H+  H58  1  0.62528143  0.14766596  0.74337829  1
  H+  H59  1  0.37985150  0.20149832  0.75602675  1
  H+  H60  1  0.95845488  0.81689718  0.76082715  1
  H+  H61  1  0.95990727  0.12875841  0.28287487  1
  H+  H62  1  0.48139863  0.67814129  -0.00251987  1
  H+  H63  1  0.27642157  0.51035651  0.22076449  1
  H+  H64  1  0.82288346  0.63714295  0.74155367  1
  H+  H65  1  0.30048374  0.15308858  1.08220401  1
  H+  H66  1  0.83515915  0.81172949  0.75272070  1
  H+  H67  1  0.67705535  0.47341252  0.24159026  1
  H+  H68  1  0.13722408  0.28975683  0.27733688  1
  H+  H69  1  0.43874975  0.59913797  0.13213615  1
  H+  H70  1  0.81815265  0.30963641  0.74409573  1
  H+  H71  1  0.43357983  0.02544738  0.94924970  1
  H+  H72  1  0.17929365  0.36924500  0.47253931  1
  H+  H73  1  0.97672579  0.08852482  0.93399869  1
  H+  H74  1  0.18437341  0.70683205  0.76248510  1
  H+  H75  1  0.81907130  0.19120184  0.72969660  1
  H+  H76  1  0.48746614  0.95928659  0.07021835  1
  H+  H77  1  0.23410724  0.44143452  0.83757446  1
  H+  H78  1  0.46398086  0.56407300  0.22948956  1
  H+  H79  1  0.16954259  0.40849839  0.17410534  1
  H+  H80  1  0.82001367  0.16533916  0.52192410  1
  H+  H81  1  0.08827296  0.50509607  0.22826256  1
  H+  H82  1  0.72709129  0.26379194  -0.08395595  1
  H+  H83  1  0.80570535  0.83245206  0.24821143  1
  H+  H84  1  0.81515774  0.31010761  0.25067310  1
  H+  H85  1  0.89291242  0.22443246  -0.00291009  1
  H+  H86  1  0.51322757  0.41232737  1.07912341  1
  H+  H87  1  0.12767322  0.84225626  0.24766787  1
  H+  H88  1  0.65813211  0.08398686  0.16122161  1
  H+  H89  1  0.48179931  0.03926807  0.35515733  1
  H+  H90  1  0.51380548  0.18196802  0.02217353  1
  H+  H91  1  0.77902632  0.54722209  0.58446858  1
  H+  H92  1  0.83192914  0.70624579  0.98702038  1
  H+  H93  1  0.95892360  0.48038799  0.24074001  1
  H+  H94  1  0.50683083  0.47546847  0.48167589  1
  H+  H95  1  0.30692710  0.21150919  0.08629595  1
  H+  H96  1  0.10380243  0.20968410  0.04520410  1
  H+  H97  1  0.47860800  0.11770383  0.48022252  1
  H+  H98  1  0.47269992  0.85864405  0.72777045  1
  H+  H99  1  0.53839283  0.37513836  0.06730567  1
  H+  H100  1  0.52116547  0.49744730  0.74508895  1
  H+  H101  1  0.14205837  0.70148715  0.99002145  1
  H+  H102  1  0.49595689  0.74142558  0.26520764  1
  H+  H103  1  0.48698598  0.18923833  0.72908524  1
  H+  H104  1  0.11676441  0.68100503  0.27224283  1
  H+  H105  1  0.83874492  0.01059114  0.27406367  1
  H+  H106  1  0.70670695  0.51928021  0.73757750  1
  H+  H107  1  0.76850227  0.39520637  0.28564322  1
  H+  H108  1  0.89403792  0.10923770  0.80799448  1
  H+  H109  1  0.93082736  0.37303610  1.02115749  1
  H+  H110  1  0.84634594  0.22593499  0.13480156  1
  H+  H111  1  0.50158675  0.02580429  0.73379470  1
  H+  H112  1  0.18583706  0.14893198  0.27172446  1
  H+  H113  1  0.86988029  0.77813307  0.89133424  1
  H+  H114  1  0.34474829  0.13358799  0.89523683  1
  H+  H115  1  0.42814268  0.22257221  0.59504905  1
  H+  H116  1  0.87243922  0.09297566  0.41715422  1
  H+  H117  1  0.20553255  0.78308383  0.90612777  1
  H+  H118  1  0.83750595  0.96363384  0.05839104  1
  H+  H119  1  0.48105545  0.22066418  0.17611345  1
  H+  H120  1  0.21639335  0.45683548  0.38904031  1
  H+  H121  1  0.55495762  0.79271455  0.83071562  1
  H+  H122  1  0.16425946  0.12188561  0.92926630  1
  H+  H123  1  0.90351304  0.45936342  0.86075928  1
  H+  H124  1  0.84070713  0.01717968  0.93444879  1
  H+  H125  1  0.78729201  0.23208726  0.60346109  1
  H+  H126  1  0.20478712  0.37799738  0.99305210  1
  H+  H127  1  0.41874301  0.88640660  0.63385475  1
  H+  H128  1  0.48846756  0.10389480  0.86180593  1
  H+  H129  1  0.10281462  0.55408347  0.59718477  1
  H+  H130  1  0.18422843  0.76872551  0.35449056  1
  H+  H131  1  0.11968642  0.24083767  0.58131976  1
  H+  H132  1  0.03506571  0.52130728  0.74470548  1
  H+  H133  1  0.75272942  0.86634117  0.16402098  1
  H+  H134  1  0.10086910  0.22842080  0.18304806  1
  H+  H135  1  0.44536486  0.56164476  0.63917507  1
  H+  H136  1  0.47021358  0.99573451  0.49417255  1
  H+  H137  1  0.87247287  0.76320809  0.34236175  1
  H+  H138  1  0.56470013  0.14773894  0.10475393  1
  H+  H139  1  0.89062029  0.39058679  0.38490321  1
  H+  H140  1  0.54947395  0.78488533  0.41630914  1
  H+  H141  1  0.76367909  0.85959541  0.62718858  1
  H+  H142  1  0.53236739  1.02733614  0.21091694  1
  H+  H143  1  0.03182949  0.54243376  0.10334730  1
  O2-  O144  1  0.10227749  0.21257189  0.25076684  1
  O2-  O145  1  0.12114076  0.24188767  0.70098886  1
  O2-  O146  1  0.03704826  0.53618765  0.21459630  1
  O2-  O147  1  0.11289506  0.56176226  0.71648701  1
  O2-  O148  1  0.09602765  0.89336441  0.22487176  1
  O2-  O149  1  0.08683469  0.87986126  0.72264876  1
  O2-  O150  1  0.46347353  0.22948883  0.24115370  1
  O2-  O151  1  0.44838034  0.23601828  0.71682637  1
  O2-  O152  1  0.42072724  0.59542628  0.20010532  1
  O2-  O153  1  0.44425481  0.56060705  0.70844117  1
  O2-  O154  1  0.57454611  1.03348643  0.14980595  1
  O2-  O155  1  0.42968834  0.89753279  0.70973301  1
  O2-  O156  1  0.79527305  0.19362129  0.19034826  1
  O2-  O157  1  0.77631801  0.23270665  0.71446223  1
  O2-  O158  1  0.73511631  0.59529659  0.16112280  1
  O2-  O159  1  0.78950408  0.55559099  0.72105188  1
  O2-  O160  1  0.76475926  0.87585441  0.23051674  1
  O2-  O161  1  0.76580835  0.86997855  0.70272293  1
  O2-  O162  1  0.23081343  0.11151720  0.28839093  1
  O2-  O163  1  0.29946754  0.17050150  0.87322512  1
  O2-  O164  1  0.19312301  0.45327027  0.23111058  1
  O2-  O165  1  0.22666829  0.44873986  0.76970703  1
  O2-  O166  1  0.16901072  0.76220001  0.28715857  1
  O2-  O167  1  0.22000580  0.78561217  0.78840434  1
  O2-  O168  1  0.45885128  0.02905502  0.28761727  1
  O2-  O169  1  0.54212997  0.10975611  0.75698276  1
  O2-  O170  1  0.66703582  0.41760479  0.28871432  1
  O2-  O171  1  0.56379397  0.46154338  0.77301886  1
  O2-  O172  1  0.54858346  0.80920757  0.30110506  1
  O2-  O173  1  0.55017249  0.78312366  0.76342205  1
  O2-  O174  1  0.87707497  0.09055071  0.29932984  1
  O2-  O175  1  0.88710241  0.11663225  0.74050826  1
  O2-  O176  1  0.83851143  0.38356715  0.28450261  1
  O2-  O177  1  0.89649341  0.45195088  0.79344176  1
  O2-  O178  1  0.87508772  0.76770430  0.27252383  1
  O2-  O179  1  0.87587926  0.77506781  0.78423203  1
  O2-  O180  1  0.20625401  0.10860618  0.47299376  1
  O2-  O181  1  0.09699761  0.09161601  0.97086172  1
  O2-  O182  1  0.21985590  0.45278314  0.45546830  1
  O2-  O183  1  0.26066208  0.42157089  0.94465581  1
  O2-  O184  1  0.20823461  0.78334298  0.47170693  1
  O2-  O185  1  0.19555638  0.78227455  0.97416620  1
  O2-  O186  1  0.51208308  0.07138167  0.45911231  1
  O2-  O187  1  0.44260709  0.09548733  0.91839910  1
  O2-  O188  1  0.53288389  0.42307160  0.45805882  1
  O2-  O189  1  0.60960683  0.56129963  0.94229481  1
  O2-  O190  1  0.54921897  0.77154427  0.48346860  1
  O2-  O191  1  0.55245099  0.81211262  0.95374441  1
  O2-  O192  1  0.87928002  0.09797752  0.48524412  1
  O2-  O193  1  0.90569860  0.09255368  0.91949730  1
  O2-  O194  1  0.92400197  0.38161521  0.44429865  1
  O2-  O195  1  0.92810861  0.45793383  0.99966554  1
  O2-  O196  1  0.87237406  0.76762835  0.45286032  1
  O2-  O197  1  0.87043022  0.78409735  0.96168525  1
  O2-  O198  1  0.10574036  0.27395481  0.07996928  1
  O2-  O199  1  0.11221541  0.23420307  0.51358827  1
  O2-  O200  1  0.03939652  0.55109582  0.03423052  1
  O2-  O201  1  0.10095988  0.55395087  0.52878823  1
  O2-  O202  1  0.08506228  0.89577481  0.03424789  1
  O2-  O203  1  0.09147494  0.88284435  0.53378923  1
  O2-  O204  1  0.55016088  0.20941600  0.08255303  1
  O2-  O205  1  0.41974339  0.21430125  0.52777059  1
  O2-  O206  1  0.45362140  0.59942977  0.02258633  1
  O2-  O207  1  0.44713940  0.55863797  0.52649281  1
  O2-  O208  1  0.44326146  0.92113748  0.01205454  1
  O2-  O209  1  0.40735513  0.87576342  0.54187627  1
  O2-  O210  1  0.92823783  0.28226490  0.04537504  1
  O2-  O211  1  0.79143881  0.22174937  0.53522941  1
  O2-  O212  1  0.78014842  0.58595600  0.07243185  1
  O2-  O213  1  0.76774188  0.54113760  0.51784143  1
  O2-  O214  1  0.77426549  0.89291722  0.03373906  1
  O2-  O215  1  0.76111722  0.85261615  0.53350507  1
