# generated using pymatgen
data_H2O
_symmetry_space_group_name_H-M   'P 1'
_cell_length_a   13.52041470
_cell_length_b   13.51583566
_cell_length_c   14.68021824
_cell_angle_alpha   90.03852398
_cell_angle_beta   89.93477712
_cell_angle_gamma   120.01969267
_symmetry_Int_Tables_number   1
_chemical_formula_structural   H2O
_chemical_formula_sum   'H144 O72'
_cell_volume   2322.78792944
_cell_formula_units_Z   72
loop_
 _symmetry_equiv_pos_site_id
 _symmetry_equiv_pos_as_xyz
  1  'x, y, z'
loop_
 _atom_type_symbol
 _atom_type_oxidation_number
  H+  1.0
  O2-  -2.0
loop_
 _atom_site_type_symbol
 _atom_site_label
 _atom_site_symmetry_multiplicity
 _atom_site_fract_x
 _atom_site_fract_y
 _atom_site_fract_z
 _atom_site_occupancy
  H+  H0  1  0.45636357  0.21883335  0.64500312  1
  H+  H1  1  0.17757385  0.14108778  0.49549096  1
  H+  H2  1  0.69758377  0.17564614  0.73199586  1
  H+  H3  1  0.85221272  0.37648190  0.93802703  1
  H+  H4  1  0.61793937  0.79324339  0.75771368  1
  H+  H5  1  0.49576809  0.65169165  1.01281127  1
  H+  H6  1  0.02111361  0.82207113  0.74215747  1
  H+  H7  1  0.54477075  0.77532256  0.89341819  1
  H+  H8  1  0.98646302  0.88007283  0.46481211  1
  H+  H9  1  0.54328702  0.52087904  0.98513570  1
  H+  H10  1  0.93809347  0.79106671  0.98421021  1
  H+  H11  1  0.85052369  0.71153606  0.26723955  1
  H+  H12  1  0.19074297  0.47232887  0.79119163  1
  H+  H13  1  0.14567706  0.83916695  0.49726062  1
  H+  H14  1  0.50025316  -0.01538250  1.00706822  1
  H+  H15  1  0.44829618  0.55258221  0.58438832  1
  H+  H16  1  0.13854403  0.52929379  0.21225397  1
  H+  H17  1  0.47811321  0.61923619  0.72043194  1
  H+  H18  1  0.71234007  0.51289693  1.01940155  1
  H+  H19  1  0.02973611  0.42710330  0.56252046  1
  H+  H20  1  0.48166965  0.83777977  0.23784303  1
  H+  H21  1  0.69220561  0.19533530  0.00289612  1
  H+  H22  1  0.20674052  0.73209439  0.93439019  1
  H+  H23  1  0.80579189  0.53154615  0.26327052  1
  H+  H24  1  0.94836656  0.48522290  0.48422307  1
  H+  H25  1  0.85324969  1.02452407  0.50252838  1
  H+  H26  1  0.46851807  0.29416315  0.22324681  1
  H+  H27  1  0.83037391  0.52508733  0.00118683  1
  H+  H28  1  0.90350104  0.23419217  0.47688192  1
  H+  H29  1  0.80932675  0.18644850  0.01204764  1
  H+  H30  1  0.26634703  0.23442514  0.78093112  1
  H+  H31  1  0.50392403  0.80077345  0.75707333  1
  H+  H32  1  0.96410645  0.91656085  0.80733581  1
  H+  H33  1  0.61764539  0.80333574  0.25432965  1
  H+  H34  1  0.52003731  0.14802632  0.48138620  1
  H+  H35  1  0.82531706  0.02302670  0.99186187  1
  H+  H36  1  0.11568079  0.80947359  0.01466668  1
  H+  H37  1  0.16838425  0.70004050  0.23738044  1
  H+  H38  1  0.18216816  0.02565382  0.49096997  1
  H+  H39  1  0.82384043  0.58630283  0.74386473  1
  H+  H40  1  0.32114434  0.50326889  0.47230925  1
  H+  H41  1  0.15947100  0.34522498  0.79397619  1
  H+  H42  1  0.37824900  0.52487070  0.22013168  1
  H+  H43  1  0.80756193  0.30646625  0.50092219  1
  H+  H44  1  0.70508253  0.17844592  0.49575905  1
  H+  H45  1  0.19146418  0.67507117  0.78830074  1
  H+  H46  1  0.36307258  0.83941548  0.75734107  1
  H+  H47  1  0.47443340  0.17737583  0.23715396  1
  H+  H48  1  0.47015494  0.57448535  0.10184770  1
  H+  H49  1  0.52275295  0.16102411  -0.01257239  1
  H+  H50  1  0.15646584  0.12024718  1.00691136  1
  H+  H51  1  0.80960213  0.02523173  0.53370169  1
  H+  H52  1  0.81341693  0.84990509  0.22325839  1
  H+  H53  1  0.63433746  0.47165539  0.49841063  1
  H+  H54  1  0.52860309  0.14744456  0.75528005  1
  H+  H55  1  0.15002759  -0.02439754  0.24548006  1
  H+  H56  1  0.36983108  0.84998482  0.22980715  1
  H+  H57  1  0.84601915  0.66141163  0.43986861  1
  H+  H58  1  0.80507046  0.31961324  0.22163709  1
  H+  H59  1  0.69026224  0.53134297  0.24724224  1
  H+  H60  1  0.49133799  0.52693690  0.48765131  1
  H+  H61  1  0.92547332  0.12377433  0.76662757  1
  H+  H62  1  0.67599485  0.79950090  0.50505976  1
  H+  H63  1  0.68585616  0.84907909  -0.00521385  1
  H+  H64  1  0.15217659  0.18843848  0.23035375  1
  H+  H65  1  0.17539053  0.37906395  0.23925482  1
  H+  H66  1  0.48065743  0.84879987  0.50970525  1
  H+  H67  1  0.49911906  0.51410792  0.71256194  1
  H+  H68  1  0.05903457  0.23008296  0.51258982  1
  H+  H69  1  0.53733936  0.77324807  0.38979893  1
  H+  H70  1  0.47878403  0.29553721  0.49821049  1
  H+  H71  1  0.97477394  0.13956406  0.26199852  1
  H+  H72  1  0.53039244  0.37153397  0.75189699  1
  H+  H73  1  0.14616607  0.49247404  0.51217853  1
  H+  H74  1  0.81132764  0.12496755  0.75449429  1
  H+  H75  1  0.20825942  0.76761606  0.33125819  1
  H+  H76  1  0.15071705  0.40834294  0.03013177  1
  H+  H77  1  0.80598755  0.83850230  0.74226101  1
  H+  H78  1  0.21414710  0.10528340  0.75171328  1
  H+  H79  1  0.52134024  1.02965965  0.24965327  1
  H+  H80  1  0.17556671  0.78074654  0.78809074  1
  H+  H81  1  0.51587283  0.83173209  -0.01870512  1
  H+  H82  1  0.18295387  0.30068338  0.55816472  1
  H+  H83  1  0.99615424  0.16084952  0.99948395  1
  H+  H84  1  0.89070830  0.68219591  0.47663209  1
  H+  H85  1  0.36654353  0.85439853  0.51900889  1
  H+  H86  1  0.82804633  0.80796970  -0.02109657  1
  H+  H87  1  0.15672163  0.65882274  0.48762620  1
  H+  H88  1  0.51923987  0.03028946  0.48650203  1
  H+  H89  1  0.77885863  0.57956107  0.56009746  1
  H+  H90  1  0.08811280  0.14870008  0.75963755  1
  H+  H91  1  0.85881067  0.85598601  0.47048939  1
  H+  H92  1  0.64148869  0.51929483  0.40118835  1
  H+  H93  1  0.43941881  0.20335259  1.09409095  1
  H+  H94  1  0.68598688  0.19313903  0.22201036  1
  H+  H95  1  0.15257964  0.90578030  0.72931735  1
  H+  H96  1  0.12164447  0.26037926  -0.02466565  1
  H+  H97  1  0.36162278  0.17819763  0.50394989  1
  H+  H98  1  0.14808973  0.84739053  0.24026899  1
  H+  H99  1  0.50409681  0.67399456  0.25167176  1
  H+  H100  1  0.03354804  0.50471812  0.77438899  1
  H+  H101  1  0.49715638  0.69543347  0.47936949  1
  H+  H102  1  0.49832885  0.48659455  0.23168985  1
  H+  H103  1  0.20802836  0.39174847  0.43588879  1
  H+  H104  1  0.26935214  0.69704078  0.43680300  1
  H+  H105  1  0.39456999  0.18969895  0.74248839  1
  H+  H106  1  0.84374915  0.46376122  0.78391201  1
  H+  H107  1  0.82384979  0.46896772  0.50035676  1
  H+  H108  1  0.57564757  0.12860796  0.89891034  1
  H+  H109  1  0.77555163  0.20974619  0.64208671  1
  H+  H110  1  0.74690442  0.82470774  0.59616804  1
  H+  H111  1  0.76330686  0.88214821  0.08580422  1
  H+  H112  1  0.45786129  0.90145606  0.09274795  1
  H+  H113  1  0.35570064  0.15088576  1.01203809  1
  H+  H114  1  0.89339114  0.79864293  0.86399617  1
  H+  H115  1  0.52098968  1.02571020  0.76657875  1
  H+  H116  1  0.85470040  0.09872837  0.90176675  1
  H+  H117  1  0.76866436  0.23885529  0.11340891  1
  H+  H118  1  0.01820394  0.84802160  0.24151367  1
  H+  H119  1  0.22578499  0.47614522  0.31519003  1
  H+  H120  1  0.95756236  0.49148241  0.24536080  1
  H+  H121  1  0.90473088  0.82465103  0.33365969  1
  H+  H122  1  0.78643125  0.94403178  0.73584955  1
  H+  H123  1  0.95674599  0.20888552  0.39116596  1
  H+  H124  1  0.80374036  0.96155688  0.22628603  1
  H+  H125  1  0.10023668  0.85721753  0.59186846  1
  H+  H126  1  0.10679052  0.54052503  0.68145701  1
  H+  H127  1  0.08184888  0.20494924  0.66611751  1
  H+  H128  1  0.65247587  0.47820588  0.75477946  1
  H+  H129  1  0.20081119  0.44880088  0.92868249  1
  H+  H130  1  0.91507676  0.04529170  0.33885257  1
  H+  H131  1  0.10035119  0.21853693  0.14411191  1
  H+  H132  1  0.88017056  0.44540498  0.33620350  1
  H+  H133  1  0.56120108  0.10989349  0.33760214  1
  H+  H134  1  0.21745186  0.10978210  0.34222958  1
  H+  H135  1  0.14920063  0.56351412  0.00083068  1
  H+  H136  1  0.43620478  0.88264122  0.66370745  1
  H+  H137  1  0.75927078  0.49149134  0.64143157  1
  H+  H138  1  0.52564783  0.42035565  0.31292201  1
  H+  H139  1  0.57994342  0.48331512  0.89365668  1
  H+  H140  1  0.09708634  0.58208867  0.13147867  1
  H+  H141  1  0.21573376  0.10658613  0.92035403  1
  H+  H142  1  0.12490785  0.93137283  0.00574433  1
  H+  H143  1  0.29765218  0.14529523  0.25247647  1
  O2-  O144  1  0.10728161  0.22508550  0.21136644  1
  O2-  O145  1  0.07190850  0.20543991  0.73394565  1
  O2-  O146  1  0.09639674  0.57124550  0.19961485  1
  O2-  O147  1  0.11368205  0.54286698  0.74803011  1
  O2-  O148  1  0.10682965  0.89189587  0.22456185  1
  O2-  O149  1  0.09218941  0.83070862  0.70992493  1
  O2-  O150  1  0.42576464  0.20769114  0.21392751  1
  O2-  O151  1  0.46896324  0.22179998  0.71198493  1
  O2-  O152  1  0.46154023  0.56390272  0.21575502  1
  O2-  O153  1  0.45321399  0.54677285  0.68644207  1
  O2-  O154  1  0.45219293  0.88950445  0.21597253  1
  O2-  O155  1  0.44163567  0.88342666  0.73109531  1
  O2-  O156  1  0.76479058  0.24004137  0.19438674  1
  O2-  O157  1  0.77704842  0.20601839  0.70934235  1
  O2-  O158  1  0.76552914  0.57396118  0.27826594  1
  O2-  O159  1  0.78226060  0.50424450  0.73252318  1
  O2-  O160  1  0.76523695  0.88251649  0.20296273  1
  O2-  O161  1  0.75466655  0.86325636  0.71465451  1
  O2-  O162  1  0.21459167  0.10582979  0.27465808  1
  O2-  O163  1  0.25849948  0.16103158  0.79865056  1
  O2-  O164  1  0.21132101  0.46265779  0.24935888  1
  O2-  O165  1  0.21183945  0.41979744  0.82126913  1
  O2-  O166  1  0.21037064  0.78013176  0.26509076  1
  O2-  O167  1  0.22769843  0.75584663  0.81180794  1
  O2-  O168  1  0.55851443  0.11176344  0.26976002  1
  O2-  O169  1  0.56661917  0.10811962  0.78368696  1
  O2-  O170  1  0.53216118  0.42877714  0.24687499  1
  O2-  O171  1  0.56927092  0.45403688  0.76486363  1
  O2-  O172  1  0.53845813  0.76142579  0.27769626  1
  O2-  O173  1  0.53643480  0.75291659  0.77806515  1
  O2-  O174  1  0.90315603  0.09619768  0.29877739  1
  O2-  O175  1  0.84462989  0.07935355  0.78540636  1
  O2-  O176  1  0.87748871  0.44687484  0.26872793  1
  O2-  O177  1  0.89962641  0.43736821  0.81624873  1
  O2-  O178  1  0.90033749  0.79831073  0.26804314  1
  O2-  O179  1  0.92283672  0.83491236  0.79431140  1
  O2-  O180  1  0.21974534  0.10586530  0.46816391  1
  O2-  O181  1  0.20170908  0.08558195  0.98501653  1
  O2-  O182  1  0.23981743  0.47339407  0.44611852  1
  O2-  O183  1  0.19107917  0.47442977  0.99084616  1
  O2-  O184  1  0.21802603  0.72490124  0.45525905  1
  O2-  O185  1  0.19370948  0.72819253  1.00179148  1
  O2-  O186  1  0.55995212  0.10808262  0.45861023  1
  O2-  O187  1  0.57626765  0.13195355  0.96699695  1
  O2-  O188  1  0.58469076  0.47217808  0.44765852  1
  O2-  O189  1  0.58942317  0.48749953  0.96012428  1
  O2-  O190  1  0.53474836  0.77676814  0.45890005  1
  O2-  O191  1  0.55755720  0.79133783  0.96012160  1
  O2-  O192  1  0.97868974  0.25268918  0.44889273  1
  O2-  O193  1  0.86468516  0.10571142  0.96983995  1
  O2-  O194  1  0.86980422  0.44403488  0.46100814  1
  O2-  O195  1  0.89602799  0.45505918  0.91429099  1
  O2-  O196  1  0.92958470  0.89018604  0.43067851  1
  O2-  O197  1  0.86448559  0.76670126  0.95096546  1
  O2-  O198  1  0.07996156  0.19896833  0.01920624  1
  O2-  O199  1  0.11775459  0.22332097  0.55321589  1
  O2-  O200  1  0.10865888  0.60788957  0.01778336  1
  O2-  O201  1  0.08880443  0.50488749  0.54663830  1
  O2-  O202  1  0.07275750  0.85042678  0.02105743  1
  O2-  O203  1  0.11378080  0.88185753  0.52661546  1
  O2-  O204  1  0.43748055  0.19623047  0.02676229  1
  O2-  O205  1  0.44321958  0.21857816  0.52455445  1
  O2-  O206  1  0.46536997  0.57212173  0.03338767  1
  O2-  O207  1  0.44174020  0.55467164  0.51345609  1
  O2-  O208  1  0.45728823  0.90327873  0.02533911  1
  O2-  O209  1  0.44639843  0.89323499  0.53879377  1
  O2-  O210  1  0.77608466  0.23580152  0.02946785  1
  O2-  O211  1  0.78367112  0.22679400  0.52053647  1
  O2-  O212  1  0.78022859  0.51877018  0.05140269  1
  O2-  O213  1  0.74539707  0.49706388  0.56701328  1
  O2-  O214  1  0.76818263  0.88895941  0.01798418  1
  O2-  O215  1  0.74125330  0.79679489  0.53275120  1
