# generated using pymatgen
data_H2O
_symmetry_space_group_name_H-M   'P 1'
_cell_length_a   13.48554023
_cell_length_b   13.51483882
_cell_length_c   14.69490641
_cell_angle_alpha   90.00171041
_cell_angle_beta   90.00303956
_cell_angle_gamma   120.03696226
_symmetry_Int_Tables_number   1
_chemical_formula_structural   H2O
_chemical_formula_sum   'H144 O72'
_cell_volume   2318.54109509
_cell_formula_units_Z   72
loop_
 _symmetry_equiv_pos_site_id
 _symmetry_equiv_pos_as_xyz
  1  'x, y, z'
loop_
 _atom_type_symbol
 _atom_type_oxidation_number
  H+  1.0
  O2-  -2.0
loop_
 _atom_site_type_symbol
 _atom_site_label
 _atom_site_symmetry_multiplicity
 _atom_site_fract_x
 _atom_site_fract_y
 _atom_site_fract_z
 _atom_site_occupancy
  H+  H0  1  0.80775015  0.50694435  0.25044023  1
  H+  H1  1  0.67006530  0.80063586  0.25438712  1
  H+  H2  1  0.47732082  0.49290952  0.23641582  1
  H+  H3  1  0.14674534  -0.00795680  0.26319713  1
  H+  H4  1  0.14008280  0.83916422  0.50957394  1
  H+  H5  1  0.11335941  0.06858904  0.32311000  1
  H+  H6  1  0.48089028  0.85332217  0.24867022  1
  H+  H7  1  0.62673566  0.47158091  0.26055683  1
  H+  H8  1  0.15332947  0.96745037  0.74284464  1
  H+  H9  1  0.89583227  0.79209799  0.89858755  1
  H+  H10  1  1.03657086  0.19821851  0.71698111  1
  H+  H11  1  0.01996411  0.83097999  0.01511023  1
  H+  H12  1  0.15520157  0.19547981  0.71837028  1
  H+  H13  1  0.14812633  0.52128710  0.00307969  1
  H+  H14  1  0.99521336  0.23079764  0.26200199  1
  H+  H15  1  0.32364088  0.17651932  0.74615842  1
  H+  H16  1  0.84080356  0.48821788  1.00289706  1
  H+  H17  1  0.63369585  0.17884387  0.01335058  1
  H+  H18  1  0.53250189  0.76011102  0.36844721  1
  H+  H19  1  0.81074097  0.85482904  0.51143761  1
  H+  H20  1  0.15506240  0.68795782  0.49405505  1
  H+  H21  1  0.87508816  0.10471448  0.95794106  1
  H+  H22  1  0.11478296  0.23178877  0.21690963  1
  H+  H23  1  0.84958374  0.36452514  0.49473680  1
  H+  H24  1  0.48986929  0.63146294  0.73712716  1
  H+  H25  1  0.77167152  0.92893790  0.25849292  1
  H+  H26  1  0.14576300  0.61119428  0.74093342  1
  H+  H27  1  0.81282752  0.52007531  0.50987622  1
  H+  H28  1  0.50821639  0.36606917  0.49165862  1
  H+  H29  1  0.29964124  0.82499911  0.26049011  1
  H+  H30  1  1.01864944  0.50779240  0.74485641  1
  H+  H31  1  0.37183917  0.50547910  0.74357038  1
  H+  H32  1  0.63179749  0.15450931  0.73202368  1
  H+  H33  1  0.84415286  0.69838291  0.49540267  1
  H+  H34  1  0.81203285  0.30716181  0.72833466  1
  H+  H35  1  0.96661507  0.48962297  0.26127613  1
  H+  H36  1  0.17044043  0.10826563  0.97292680  1
  H+  H37  1  0.84005976  0.78673437  0.99641474  1
  H+  H38  1  0.50855687  0.14927744  0.26004128  1
  H+  H39  1  0.55421208  0.44415510  0.89698860  1
  H+  H40  1  0.87196161  0.45794387  0.86501405  1
  H+  H41  1  0.19551605  0.18128311  0.22251482  1
  H+  H42  1  0.81521348  0.32535067  0.02754686  1
  H+  H43  1  0.42910232  0.81268397  0.74657560  1
  H+  H44  1  0.41859872  0.69726572  0.31170772  1
  H+  H45  1  0.83413517  0.79828133  0.27069548  1
  H+  H46  1  0.69720944  0.52351646  0.50637528  1
  H+  H47  1  0.02035342  0.51616001  0.50885002  1
  H+  H48  1  0.36379964  0.86388366  0.01772460  1
  H+  H49  1  0.66556398  0.77374499  1.02664813  1
  H+  H50  1  0.71538869  0.20298398  0.50967155  1
  H+  H51  1  0.49868883  0.89963123  0.01106344  1
  H+  H52  1  0.50620209  0.35178704  0.25814243  1
  H+  H53  1  0.23626986  0.44849408  0.83882853  1
  H+  H54  1  0.49765298  0.31858389  0.74179622  1
  H+  H55  1  0.69204888  0.50605092  0.01604252  1
  H+  H56  1  0.48385673  0.19427204  0.01660238  1
  H+  H57  1  0.14313756  0.93754166  0.02569762  1
  H+  H58  1  0.18128299  0.01710289  0.50806436  1
  H+  H59  1  0.35529726  0.16913792  1.00479606  1
  H+  H60  1  0.18782330  0.81387038  1.00577233  1
  H+  H61  1  0.81265191  -0.04236912  0.94228876  1
  H+  H62  1  0.15685183  0.53809272  0.24088880  1
  H+  H63  1  0.51463138  0.03476489  0.26956009  1
  H+  H64  1  0.96348944  0.49153125  0.99420028  1
  H+  H65  1  0.80372996  0.62291566  0.25243976  1
  H+  H66  1  0.17669508  0.37430671  -0.02402126  1
  H+  H67  1  0.18064430  0.39666096  0.28070350  1
  H+  H68  1  0.17627840  0.81799545  0.25984860  1
  H+  H69  1  0.19978767  0.37272957  0.74636472  1
  H+  H70  1  0.23490434  0.82707931  0.74863521  1
  H+  H71  1  0.44976863  0.24116242  0.60535334  1
  H+  H72  1  0.31052479  0.49071125  0.26506660  1
  H+  H73  1  0.19995327  0.04169557  0.89744952  1
  H+  H74  1  0.79146965  1.10320857  0.27911370  1
  H+  H75  1  1.01020315  0.82725687  0.24960504  1
  H+  H76  1  0.35303596  0.16565158  0.24047734  1
  H+  H77  1  0.36476072  0.18497508  0.52010577  1
  H+  H78  1  0.20129712  0.70610775  0.99527306  1
  H+  H79  1  0.53994829  0.19376540  0.49469287  1
  H+  H80  1  0.82031028  0.21293238  0.02674871  1
  H+  H81  1  0.47419149  0.49196616  0.00105089  1
  H+  H82  1  0.29838422  0.48432439  -0.01725545  1
  H+  H83  1  0.64258566  0.82152703  0.49273815  1
  H+  H84  1  0.69257711  0.19224688  0.25961796  1
  H+  H85  1  0.52403077  0.69978994  0.49877935  1
  H+  H86  1  1.00050953  0.20224225  0.96771038  1
  H+  H87  1  0.84974224  0.36733963  0.26960504  1
  H+  H88  1  0.85672533  0.16897367  0.73240001  1
  H+  H89  1  0.80709220  0.96792210  0.73044405  1
  H+  H90  1  0.01837757  0.23800256  0.31007619  1
  H+  H91  1  0.48836987  0.65562493  -0.02358212  1
  H+  H92  1  0.16288370  0.18160247  0.50310592  1
  H+  H93  1  0.33103344  0.48392699  0.50560286  1
  H+  H94  1  0.93751636  0.12635150  0.47906002  1
  H+  H95  1  0.80810558  0.97874511  0.50847604  1
  H+  H96  1  0.04034004  0.84620362  0.74691223  1
  H+  H97  1  0.44903280  0.74389922  0.96216378  1
  H+  H98  1  0.81901253  0.69375458  0.76078710  1
  H+  H99  1  0.81461228  0.96624171  -0.00654088  1
  H+  H100  1  0.48787483  0.50956845  0.50852739  1
  H+  H101  1  0.49438268  0.19498030  0.73304992  1
  H+  H102  1  0.70930211  0.47539929  0.76366662  1
  H+  H103  1  0.19717177  0.34829139  0.49236771  1
  H+  H104  1  0.62026021  0.81030668  0.74633866  1
  H+  H105  1  0.84022689  0.81818336  0.74977788  1
  H+  H106  1  0.50509565  0.35698003  0.98328697  1
  H+  H107  1  0.48928372  0.85816397  0.52432240  1
  H+  H108  1  0.47924784  0.61212571  0.23469712  1
  H+  H109  1  0.78621669  0.23171123  0.63600459  1
  H+  H110  1  0.88316774  0.76828329  0.35976326  1
  H+  H111  1  0.81941775  0.17265396  0.51068754  1
  H+  H112  1  0.11187862  0.56137385  0.09445865  1
  H+  H113  1  0.19914257  0.76987219  0.40572981  1
  H+  H114  1  0.11099229  0.88274837  0.60362008  1
  H+  H115  1  0.51419225  0.06201039  1.00847615  1
  H+  H116  1  0.96329692  0.81826093  0.49709147  1
  H+  H117  1  0.50827424  0.04249457  0.72815197  1
  H+  H118  1  0.16997804  0.23213982  0.08391255  1
  H+  H119  1  0.24282218  0.45694096  0.41332397  1
  H+  H120  1  0.14947773  0.65034998  0.23487251  1
  H+  H121  1  0.73491785  0.80084385  0.11840890  1
  H+  H122  1  0.88289289  0.44567111  0.40684170  1
  H+  H123  1  0.76635565  0.88836703  0.64218048  1
  H+  H124  1  0.41855437  0.87097482  0.60275410  1
  H+  H125  1  0.57400443  0.14819275  0.40630168  1
  H+  H126  1  0.24722240  0.27682378  -0.00281097  1
  H+  H127  1  0.42422395  0.21248748  0.14754104  1
  H+  H128  1  0.23136444  0.09125596  0.41780802  1
  H+  H129  1  0.54070910  0.75710247  0.83462827  1
  H+  H130  1  0.08867703  0.86563205  0.15714520  1
  H+  H131  1  0.51650288  0.50103409  0.75470339  1
  H+  H132  1  0.76494432  0.54139648  0.10795620  1
  H+  H133  1  0.89759080  0.54838591  0.78739075  1
  H+  H134  1  0.44925280  0.90129056  0.15924820  1
  H+  H135  1  0.10041192  0.55084881  0.59484326  1
  H+  H136  1  0.24992444  0.18092209  0.82656608  1
  H+  H137  1  0.91233864  0.15035185  0.81973725  1
  H+  H138  1  0.43334022  0.53048827  0.09196000  1
  H+  H139  1  0.54431778  0.44004237  0.39880642  1
  H+  H140  1  0.45018913  0.54584747  0.60355823  1
  H+  H141  1  0.82101231  0.05947273  0.37289485  1
  H+  H142  1  0.77385895  0.23202366  0.17257296  1
  H+  H143  1  0.11885353  0.22983348  0.58389517  1
  O2-  O144  1  0.18772159  0.24371060  0.19247849  1
  O2-  O145  1  0.11891533  0.23894749  0.69571398  1
  O2-  O146  1  0.11120855  0.56836345  0.21263560  1
  O2-  O147  1  0.09309608  0.53611424  0.71496599  1
  O2-  O148  1  0.09188605  0.87220559  0.22608034  1
  O2-  O149  1  0.12186650  0.88622680  0.72818136  1
  O2-  O150  1  0.43033061  0.21182914  0.21603846  1
  O2-  O151  1  0.45243824  0.23897534  0.71800461  1
  O2-  O152  1  0.43526170  0.53256330  0.21212855  1
  O2-  O153  1  0.45592216  0.54848491  0.71795396  1
  O2-  O154  1  0.44461889  0.89729238  0.22722686  1
  O2-  O155  1  0.38902071  0.85561008  0.73078889  1
  O2-  O156  1  0.77488917  0.22938722  0.24024296  1
  O2-  O157  1  0.77945489  0.22836849  0.70687627  1
  O2-  O158  1  0.76200935  0.54256565  0.22886410  1
  O2-  O159  1  0.67909925  0.52746233  0.75319073  1
  O2-  O160  1  0.74842144  0.84874753  0.23275775  1
  O2-  O161  1  0.76564686  0.88660431  0.71210784  1
  O2-  O162  1  0.17963844  0.07312854  0.29208495  1
  O2-  O163  1  0.24061681  0.13986399  0.76975164  1
  O2-  O164  1  0.23814541  0.47396976  0.29887202  1
  O2-  O165  1  0.25382071  0.44823119  0.77348825  1
  O2-  O166  1  0.21801627  0.77794893  0.27960081  1
  O2-  O167  1  0.27144383  0.78095090  0.76288900  1
  O2-  O168  1  0.55272453  0.11666343  0.28814109  1
  O2-  O169  1  0.55031653  0.12061070  0.75150291  1
  O2-  O170  1  0.54343655  0.43234144  0.27999591  1
  O2-  O171  1  0.55888122  0.45657349  0.78319243  1
  O2-  O172  1  0.50119358  0.74158034  0.30198064  1
  O2-  O173  1  0.53879913  0.76246267  0.76713309  1
  O2-  O174  1  0.79872157  0.04002530  0.30511496  1
  O2-  O175  1  0.90205745  0.13207865  0.75428979  1
  O2-  O176  1  0.88813791  0.45051413  0.28732227  1
  O2-  O177  1  0.86624629  0.46669486  0.79675565  1
  O2-  O178  1  0.88026228  0.76260394  0.29093701  1
  O2-  O179  1  0.87698943  0.77381696  0.77189610  1
  O2-  O180  1  0.22596810  0.09964650  0.48383077  1
  O2-  O181  1  0.21263661  0.06685232  0.96097336  1
  O2-  O182  1  0.24515253  0.43825997  0.47906056  1
  O2-  O183  1  0.21906052  0.45476103  0.95702230  1
  O2-  O184  1  0.18883009  0.76990871  0.47203679  1
  O2-  O185  1  0.24241057  0.78984944  0.98343436  1
  O2-  O186  1  0.60012952  0.18224786  0.46710971  1
  O2-  O187  1  0.55459996  0.14289786  0.98848043  1
  O2-  O188  1  0.54685001  0.44646382  0.46647600  1
  O2-  O189  1  0.54840122  0.43921746  0.96505246  1
  O2-  O190  1  0.55963761  0.77579813  0.46956166  1
  O2-  O191  1  0.51560205  0.73505456  0.95193186  1
  O2-  O192  1  0.85438127  0.08778560  0.47372503  1
  O2-  O193  1  0.92544728  0.18654002  0.94544303  1
  O2-  O194  1  0.88054954  0.44584219  0.47448886  1
  O2-  O195  1  0.88148264  0.44803186  0.97510977  1
  O2-  O196  1  0.88406554  0.78017575  0.47179450  1
  O2-  O197  1  0.91368218  0.81623520  0.96265564  1
  O2-  O198  1  0.16647929  0.23206709  0.01458769  1
  O2-  O199  1  0.12804529  0.23059859  0.51566313  1
  O2-  O200  1  0.10877298  0.56175606  0.02648201  1
  O2-  O201  1  0.10248533  0.55818076  0.52761838  1
  O2-  O202  1  0.09656808  0.85834917  0.04824633  1
  O2-  O203  1  0.10720803  0.88848169  0.53659513  1
  O2-  O204  1  0.42855203  0.22456929  0.03362771  1
  O2-  O205  1  0.44589443  0.23881513  0.53718490  1
  O2-  O206  1  0.42778554  0.52758484  0.02423996  1
  O2-  O207  1  0.44471534  0.54744570  0.53527896  1
  O2-  O208  1  0.44601831  0.91665322  0.04348646  1
  O2-  O209  1  0.46787458  0.91138032  0.55096038  1
  O2-  O210  1  0.77621462  0.24518508  0.05385580  1
  O2-  O211  1  0.79506710  0.22977891  0.53473233  1
  O2-  O212  1  0.77052983  0.53983388  0.04061755  1
  O2-  O213  1  0.77698216  0.56605209  0.52859858  1
  O2-  O214  1  0.71842230  0.75781190  0.06032156  1
  O2-  O215  1  0.76639582  0.89027460  0.53432242  1
