# generated using pymatgen
data_H2O
_symmetry_space_group_name_H-M   'P 1'
_cell_length_a   13.51824647
_cell_length_b   13.51739433
_cell_length_c   14.69187112
_cell_angle_alpha   89.98747396
_cell_angle_beta   90.01280222
_cell_angle_gamma   119.95701554
_symmetry_Int_Tables_number   1
_chemical_formula_structural   H2O
_chemical_formula_sum   'H144 O72'
_cell_volume   2325.99629607
_cell_formula_units_Z   72
loop_
 _symmetry_equiv_pos_site_id
 _symmetry_equiv_pos_as_xyz
  1  'x, y, z'
loop_
 _atom_type_symbol
 _atom_type_oxidation_number
  H+  1.0
  O2-  -2.0
loop_
 _atom_site_type_symbol
 _atom_site_label
 _atom_site_symmetry_multiplicity
 _atom_site_fract_x
 _atom_site_fract_y
 _atom_site_fract_z
 _atom_site_occupancy
  H+  H0  1  0.81670654  0.61147888  0.01203808  1
  H+  H1  1  0.58096937  0.07440316  0.30516858  1
  H+  H2  1  0.82454104  0.49687548  1.01668263  1
  H+  H3  1  0.45138998  0.85781543  0.00499902  1
  H+  H4  1  0.45539005  0.67573279  0.91521332  1
  H+  H5  1  -0.02862090  0.82210387  0.75049191  1
  H+  H6  1  0.16595766  0.54116416  0.01830711  1
  H+  H7  1  0.96123440  0.79433122  0.98014239  1
  H+  H8  1  0.49862930  0.51036802  0.24425180  1
  H+  H9  1  0.28972380  0.45962142  0.89323437  1
  H+  H10  1  0.83469365  1.01364686  0.24613554  1
  H+  H11  1  0.17082282  0.69683527  0.26903006  1
  H+  H12  1  0.19378183  0.38172097  0.24231590  1
  H+  H13  1  0.50137265  1.03636053  0.00179297  1
  H+  H14  1  0.45771333  0.83342844  0.25203170  1
  H+  H15  1  0.79552029  0.24580213  0.60913025  1
  H+  H16  1  0.52632043  0.76920713  0.37065020  1
  H+  H17  1  0.28415231  0.81668327  0.26745743  1
  H+  H18  1  0.83766901  0.31548727  0.24061518  1
  H+  H19  1  0.12444705  0.17374557  0.50088678  1
  H+  H20  1  0.99930535  0.82555706  0.51343683  1
  H+  H21  1  0.85146065  0.02991054  0.51518450  1
  H+  H22  1  -0.02027565  0.49087127  0.26649686  1
  H+  H23  1  0.69293732  0.17647552  0.01518169  1
  H+  H24  1  0.28758672  0.39320325  0.05490133  1
  H+  H25  1  0.10936741  0.23442292  0.30272643  1
  H+  H26  1  0.14170711  -0.03654682  0.73718812  1
  H+  H27  1  0.95631741  0.96146469  0.05338190  1
  H+  H28  1  0.14006113  0.96654790  0.00837343  1
  H+  H29  1  0.18628246  0.70070709  0.50177907  1
  H+  H30  1  0.54111362  0.34910642  0.53216576  1
  H+  H31  1  0.67659756  0.86735366  0.73952296  1
  H+  H32  1  0.65042892  0.15879553  0.51075222  1
  H+  H33  1  0.43816683  0.21887782  1.10067455  1
  H+  H34  1  0.09202792  0.34224097  0.70397335  1
  H+  H35  1  0.85390280  0.16031252  0.99096877  1
  H+  H36  1  0.95387492  0.80712068  0.26432751  1
  H+  H37  1  0.52296691  0.49562907  0.48853040  1
  H+  H38  1  0.29113943  0.14412186  0.51756492  1
  H+  H39  1  0.16871813  0.13491543  0.24938531  1
  H+  H40  1  0.43119014  0.56697968  0.75830864  1
  H+  H41  1  0.99832121  0.16030484  0.24395841  1
  H+  H42  1  0.11799334  0.56792183  0.15671625  1
  H+  H43  1  0.80463246  0.63107328  0.73200709  1
  H+  H44  1  0.18826064  0.37044495  0.48380193  1
  H+  H45  1  0.52668626  0.70758416  0.50071861  1
  H+  H46  1  0.15534449  0.51590257  0.50224776  1
  H+  H47  1  0.66780661  0.80437252  0.97466196  1
  H+  H48  1  0.29479955  0.15237024  0.99927856  1
  H+  H49  1  0.49567474  0.84898512  0.88984880  1
  H+  H50  1  0.26947787  0.81227502  0.98857573  1
  H+  H51  1  0.13398150  0.84413902  0.00288546  1
  H+  H52  1  0.80720562  0.83839174  0.24240741  1
  H+  H53  1  0.87805295  1.00338598  0.00931473  1
  H+  H54  1  0.96866164  0.47325307  0.99710343  1
  H+  H55  1  0.48530541  0.49132348  0.73737232  1
  H+  H56  1  0.56662144  0.76288399  0.77424195  1
  H+  H57  1  0.82070922  0.17799303  0.52988460  1
  H+  H58  1  0.35171294  0.18333348  0.53290798  1
  H+  H59  1  0.85534038  0.86743940  0.74281181  1
  H+  H60  1  0.40570883  0.68883729  0.32938401  1
  H+  H61  1  0.85755033  0.48424856  0.26517290  1
  H+  H62  1  0.15955262  0.20084916  0.02330958  1
  H+  H63  1  0.47813926  0.18304134  0.25318460  1
  H+  H64  1  0.03453051  0.51267186  0.51120478  1
  H+  H65  1  0.13540422  0.84056518  0.24092855  1
  H+  H66  1  0.52333454  0.35671400  0.77326159  1
  H+  H67  1  0.11984383  0.23888846  0.59303476  1
  H+  H68  1  0.36932952  0.85424444  0.50940008  1
  H+  H69  1  0.62817584  0.12247172  0.77612878  1
  H+  H70  1  0.64648104  0.50209800  0.48493584  1
  H+  H71  1  0.52827199  0.82692259  0.50198853  1
  H+  H72  1  0.83755971  0.13663383  0.24649461  1
  H+  H73  1  0.85574060  0.36581178  0.49749624  1
  H+  H74  1  0.19216263  0.75553966  0.89623927  1
  H+  H75  1  0.71879031  0.85157616  0.52838362  1
  H+  H76  1  0.43901120  0.96067347  0.74584989  1
  H+  H77  1  0.48568691  0.17024569  0.75870587  1
  H+  H78  1  0.81552801  0.52279266  0.50731926  1
  H+  H79  1  0.48503000  0.29836640  0.00996625  1
  H+  H80  1  0.55372530  0.89787043  -0.09758500  1
  H+  H81  1  0.81698468  0.64729992  0.50920661  1
  H+  H82  1  0.17112096  1.01808923  0.24888900  1
  H+  H83  1  0.37369492  0.52458026  0.50858015  1
  H+  H84  1  0.16553617  0.52977943  0.24160274  1
  H+  H85  1  0.12918180  0.84157899  0.51232825  1
  H+  H86  1  0.51292175  0.35971515  0.26339292  1
  H+  H87  1  0.21411263  0.50610144  0.79191276  1
  H+  H88  1  0.15119239  0.30617748  0.77384895  1
  H+  H89  1  0.85147114  0.35495043  -0.00578771  1
  H+  H90  1  -0.03904619  0.15485320  0.50829530  1
  H+  H91  1  0.50976191  0.15768626  0.99807163  1
  H+  H92  1  0.84998527  0.79846114  0.98152248  1
  H+  H93  1  0.98269954  0.18464274  0.98962087  1
  H+  H94  1  0.16343284  0.37767175  0.92595270  1
  H+  H95  1  0.71334197  0.21155387  0.24897320  1
  H+  H96  1  0.83267495  0.83198345  0.51945128  1
  H+  H97  1  0.48680234  -0.02623214  0.51667785  1
  H+  H98  1  0.19551972  0.15451699  0.75811168  1
  H+  H99  1  -0.02817617  0.17397873  0.75815839  1
  H+  H100  1  0.25758609  0.80130467  0.76589278  1
  H+  H101  1  0.64453083  0.81613463  0.01727210  1
  H+  H102  1  0.84079310  0.68658107  0.26480374  1
  H+  H103  1  0.14249235  0.64546698  0.01193326  1
  H+  H104  1  0.70231654  0.50395614  0.24339488  1
  H+  H105  1  0.54783358  0.18084185  0.51815921  1
  H+  H106  1  0.32058400  0.48875887  0.25063802  1
  H+  H107  1  0.42519668  0.55824756  -0.03987354  1
  H+  H108  1  0.56669406  0.42996608  0.90752655  1
  H+  H109  1  0.21587301  0.77679996  0.41236657  1
  H+  H110  1  0.15878621  0.07798653  0.38989663  1
  H+  H111  1  0.35554049  0.17427681  0.24480690  1
  H+  H112  1  0.11046784  0.99892307  0.47886451  1
  H+  H113  1  0.44936700  0.55331569  0.59886762  1
  H+  H114  1  0.87509879  0.76943939  0.42003576  1
  H+  H115  1  0.09505015  0.88811145  0.64594301  1
  H+  H116  1  0.86357728  0.00742194  0.74242496  1
  H+  H117  1  0.78335987  0.54238472  0.15532883  1
  H+  H118  1  0.62528852  0.34044807  0.60026144  1
  H+  H119  1  0.89673337  0.11610842  0.84808283  1
  H+  H120  1  0.49126403  0.62640284  0.23878625  1
  H+  H121  1  0.80089357  0.89153944  0.14902962  1
  H+  H122  1  0.63815509  0.47953827  0.76057451  1
  H+  H123  1  0.40338385  0.88983699  0.65504584  1
  H+  H124  1  0.76424597  0.55474713  0.64368396  1
  H+  H125  1  0.21626765  0.11772274  0.91094574  1
  H+  H126  1  0.57744578  0.15038040  0.38141564  1
  H+  H127  1  0.11568337  0.23839257  0.11046502  1
  H+  H128  1  0.30839600  0.14795300  0.76857642  1
  H+  H129  1  0.88617040  0.77283731  0.83899279  1
  H+  H130  1  0.89568841  0.44283229  0.40752313  1
  H+  H131  1  0.81859531  0.91016339  0.64076425  1
  H+  H132  1  0.46662212  0.23109168  0.67325956  1
  H+  H133  1  0.77607500  0.21932059  0.10223309  1
  H+  H134  1  0.64353767  0.45848737  -0.00235015  1
  H+  H135  1  0.39518761  0.49118893  0.10868715  1
  H+  H136  1  0.46154197  0.95331058  0.23383871  1
  H+  H137  1  0.19756336  0.66821328  0.78186210  1
  H+  H138  1  0.55595632  0.10604149  0.86660168  1
  H+  H139  1  0.11143837  0.51020585  0.63603435  1
  H+  H140  1  0.55874905  0.44300638  0.35109792  1
  H+  H141  1  0.23168864  0.45050485  0.39498183  1
  H+  H142  1  0.41409246  0.87740710  0.10250385  1
  H+  H143  1  0.09648681  0.87721117  0.14846399  1
  O2-  O144  1  0.09026296  0.21272781  0.23897864  1
  O2-  O145  1  0.10044617  0.27457690  0.72045478  1
  O2-  O146  1  0.11975805  0.56641692  0.22495514  1
  O2-  O147  1  0.10370609  0.47391379  0.69881787  1
  O2-  O148  1  0.09639552  0.88114900  0.21633053  1
  O2-  O149  1  0.09223767  0.88566990  0.71423685  1
  O2-  O150  1  0.43748906  0.21881904  0.22481545  1
  O2-  O151  1  0.44551783  0.21169182  0.73829349  1
  O2-  O152  1  0.45447369  0.54643047  0.21825070  1
  O2-  O153  1  0.43960576  0.52327268  0.70915246  1
  O2-  O154  1  0.42194429  0.87292437  0.21729109  1
  O2-  O155  1  0.37267875  0.90290916  0.71182562  1
  O2-  O156  1  0.78671009  0.23520064  0.21798679  1
  O2-  O157  1  0.85757775  0.37090338  0.70401279  1
  O2-  O158  1  0.78385529  0.54475805  0.22404816  1
  O2-  O159  1  0.76145056  0.55090225  0.71156922  1
  O2-  O160  1  0.77362187  0.88127358  0.21249797  1
  O2-  O161  1  0.82877007  0.92228973  0.71406424  1
  O2-  O162  1  0.21307329  0.09932497  0.27134282  1
  O2-  O163  1  0.22686567  0.11321896  0.79017685  1
  O2-  O164  1  0.23837706  0.45784207  0.27018400  1
  O2-  O165  1  0.21503481  0.55325705  0.73946749  1
  O2-  O166  1  0.20552238  0.77740919  0.29224906  1
  O2-  O167  1  0.19369279  0.73660140  0.79989589  1
  O2-  O168  1  0.57807254  0.14456460  0.31172947  1
  O2-  O169  1  0.55168216  0.09891908  0.79817156  1
  O2-  O170  1  0.55946959  0.44131137  0.28255995  1
  O2-  O171  1  0.56002024  0.43849601  0.79050194  1
  O2-  O172  1  0.48263897  0.74538126  0.31000961  1
  O2-  O173  1  0.59451483  0.83832981  0.74823938  1
  O2-  O174  1  0.87965737  0.09718633  0.26379301  1
  O2-  O175  1  0.89564639  0.11213719  0.78028931  1
  O2-  O176  1  0.89953829  0.44524495  0.28859368  1
  O2-  O177  1  0.87510151  0.35929976  0.78503131  1
  O2-  O178  1  0.87440854  0.76640517  0.28772447  1
  O2-  O179  1  0.88716688  0.78470655  0.77193258  1
  O2-  O180  1  0.11899361  0.06901198  0.44815929  1
  O2-  O181  1  0.21283242  0.11598447  0.97883805  1
  O2-  O182  1  0.23049940  0.45215610  0.46230877  1
  O2-  O183  1  0.21134910  0.40708487  0.87184916  1
  O2-  O184  1  0.22480416  0.78114575  0.47969658  1
  O2-  O185  1  0.18936777  0.76606309  0.96781362  1
  O2-  O186  1  0.56961442  0.12818825  0.48811088  1
  O2-  O187  1  0.55060363  0.11515869  0.97879611  1
  O2-  O188  1  0.56270284  0.45486418  0.46509763  1
  O2-  O189  1  0.56352618  0.41879547  0.97475837  1
  O2-  O190  1  0.56764474  0.78727188  0.47569783  1
  O2-  O191  1  0.43602396  0.59787155  0.90051350  1
  O2-  O192  1  0.87702157  0.11099454  0.50051021  1
  O2-  O193  1  0.90510973  0.13228332  0.96607671  1
  O2-  O194  1  0.89635160  0.44639976  0.47539703  1
  O2-  O195  1  0.88915490  0.43624483  0.97542589  1
  O2-  O196  1  0.87531756  0.76606476  0.48705200  1
  O2-  O197  1  0.88098640  0.75120305  0.95742521  1
  O2-  O198  1  0.13233060  0.25361853  0.04502032  1
  O2-  O199  1  0.11341729  0.23777663  0.52637873  1
  O2-  O200  1  0.11510479  0.56688169  0.04143399  1
  O2-  O201  1  0.11575707  0.55213197  0.53363383  1
  O2-  O202  1  0.09594445  0.88561774  0.02942855  1
  O2-  O203  1  0.08483896  0.87754667  0.53249520  1
  O2-  O204  1  0.43483388  0.21518862  0.03317376  1
  O2-  O205  1  0.54905003  0.29390190  0.57454324  1
  O2-  O206  1  0.35563839  0.46917469  0.04931672  1
  O2-  O207  1  0.45395743  0.56442043  0.53073133  1
  O2-  O208  1  0.41062993  0.89075863  0.03596809  1
  O2-  O209  1  0.44969620  0.89165648  0.53249714  1
  O2-  O210  1  0.77446369  0.21231886  0.03434138  1
  O2-  O211  1  0.78365267  0.22733537  0.54416066  1
  O2-  O212  1  0.78201696  0.53557292  0.04188459  1
  O2-  O213  1  0.76996738  0.55804338  0.52650874  1
  O2-  O214  1  0.87709992  0.93522442  0.03740861  1
  O2-  O215  1  0.79941889  0.88673999  0.54777314  1
