# generated using pymatgen
data_H2O
_symmetry_space_group_name_H-M   'P 1'
_cell_length_a   13.52890989
_cell_length_b   13.52174905
_cell_length_c   14.69606849
_cell_angle_alpha   89.99983800
_cell_angle_beta   90.11892503
_cell_angle_gamma   120.06236224
_symmetry_Int_Tables_number   1
_chemical_formula_structural   H2O
_chemical_formula_sum   'H144 O72'
_cell_volume   2326.76741010
_cell_formula_units_Z   72
loop_
 _symmetry_equiv_pos_site_id
 _symmetry_equiv_pos_as_xyz
  1  'x, y, z'
loop_
 _atom_type_symbol
 _atom_type_oxidation_number
  H+  1.0
  O2-  -2.0
loop_
 _atom_site_type_symbol
 _atom_site_label
 _atom_site_symmetry_multiplicity
 _atom_site_fract_x
 _atom_site_fract_y
 _atom_site_fract_z
 _atom_site_occupancy
  H+  H0  1  0.68304241  0.82931785  0.24247559  1
  H+  H1  1  0.10246192  0.87328547  0.66381411  1
  H+  H2  1  0.69549609  0.19281240  0.23913313  1
  H+  H3  1  0.84704062  0.13629107  0.26012065  1
  H+  H4  1  -0.03953145  0.13001111  0.26107788  1
  H+  H5  1  0.15234302  0.50964806  1.01006993  1
  H+  H6  1  0.17405761  0.51823862  0.51574467  1
  H+  H7  1  0.84884842  0.71283537  0.91576217  1
  H+  H8  1  0.57983909  0.11966089  0.33849509  1
  H+  H9  1  0.81201363  0.81244323  0.76283623  1
  H+  H10  1  0.95362789  0.81376945  0.25869480  1
  H+  H11  1  0.13550685  0.28765846  0.24901656  1
  H+  H12  1  0.59159153  0.47453786  0.51607336  1
  H+  H13  1  0.85897232  0.17296643  0.00323789  1
  H+  H14  1  0.82933539  0.70282868  0.49391581  1
  H+  H15  1  0.27449031  0.47248842  0.25944746  1
  H+  H16  1  0.88578304  0.09113599  0.75613942  1
  H+  H17  1  0.02636819  0.84013428  0.51956283  1
  H+  H18  1  0.22311485  0.78184081  0.86310779  1
  H+  H19  1  0.85779884  0.49117526  0.25869780  1
  H+  H20  1  0.14419610  0.83732318  0.52128977  1
  H+  H21  1  0.31265550  0.82566376  0.76868462  1
  H+  H22  1  0.51105499  0.48686029  0.74062377  1
  H+  H23  1  0.80787182  0.51087966  0.73671189  1
  H+  H24  1  0.82979704  0.33440577  0.01796456  1
  H+  H25  1  0.81503733  0.91736259  0.80362666  1
  H+  H26  1  0.64837402  0.16237405  0.47986997  1
  H+  H27  1  0.84992959  0.03105919  0.49970602  1
  H+  H28  1  0.84309936  0.67618779  0.76548780  1
  H+  H29  1  0.50680274  0.80713133  0.00703504  1
  H+  H30  1  0.36988343  0.53006259  0.51657636  1
  H+  H31  1  0.83773726  0.37288802  0.75921093  1
  H+  H32  1  0.17898108  0.01514247  0.50522407  1
  H+  H33  1  0.47472336  0.94628845  0.03571309  1
  H+  H34  1  0.25661734  0.20857520  0.95902945  1
  H+  H35  1  0.50468811  0.78681535  0.27385580  1
  H+  H36  1  0.01657674  0.17588473  0.01685762  1
  H+  H37  1  0.36550649  0.52403065  0.74599567  1
  H+  H38  1  0.53198635  0.15935123  0.25760976  1
  H+  H39  1  0.30630840  0.47421913  0.99705501  1
  H+  H40  1  0.50339711  0.63072164  0.00027887  1
  H+  H41  1  0.49614662  0.30762638  0.28611194  1
  H+  H42  1  0.05398779  0.22828583  0.71825725  1
  H+  H43  1  0.19961893  0.36178034  0.49259006  1
  H+  H44  1  0.15424594  0.64033158  0.24094268  1
  H+  H45  1  0.17301768  0.14817286  0.74816654  1
  H+  H46  1  0.17502005  0.14184917  0.27304750  1
  H+  H47  1  0.01182409  0.49318274  0.48420906  1
  H+  H48  1  0.29589032  0.81297042  0.26915526  1
  H+  H49  1  0.20436000  0.37148006  0.76047000  1
  H+  H50  1  0.03559408  0.17739691  0.50184009  1
  H+  H51  1  0.79611236  0.19382871  0.73554393  1
  H+  H52  1  0.18524404  0.35748913  0.99958835  1
  H+  H53  1  0.14185974  0.96091762  0.74672340  1
  H+  H54  1  0.75688158  0.01897326  0.77396821  1
  H+  H55  1  0.83099592  0.80791623  0.25065735  1
  H+  H56  1  0.96265184  0.79408012  0.77813679  1
  H+  H57  1  0.03503356  0.52283459  0.23466375  1
  H+  H58  1  0.75579288  0.51120242  0.51356337  1
  H+  H59  1  0.52752002  0.15789023  0.47658772  1
  H+  H60  1  0.15083200  0.16917591  0.50616656  1
  H+  H61  1  0.51492617  0.82835106  0.49505650  1
  H+  H62  1  0.55290141  0.49252034  0.27567195  1
  H+  H63  1  0.14150936  0.96111363  0.24868979  1
  H+  H64  1  0.03380970  0.80950683  0.02018097  1
  H+  H65  1  0.48002076  0.32555364  0.49895731  1
  H+  H66  1  0.12417519  -0.05846166  1.00116463  1
  H+  H67  1  0.14295166  0.50094990  0.74412464  1
  H+  H68  1  0.48994240  0.66734454  0.52022747  1
  H+  H69  1  0.17800821  0.81644196  0.26530568  1
  H+  H70  1  0.18436986  0.81028464  -0.00339436  1
  H+  H71  1  0.71909906  0.20468819  1.02315639  1
  H+  H72  1  0.35273371  0.83192372  1.01935252  1
  H+  H73  1  0.68626093  0.50941159  0.73470050  1
  H+  H74  1  0.81862828  0.64261940  0.24412662  1
  H+  H75  1  0.16451237  0.48096610  0.26433816  1
  H+  H76  1  0.38824964  0.17477339  -0.02581823  1
  H+  H77  1  0.48973948  0.94197046  0.24143414  1
  H+  H78  1  0.52698153  0.63805721  0.24416514  1
  H+  H79  1  0.18030769  0.68840513  -0.00845229  1
  H+  H80  1  0.19235195  0.70086127  0.49964657  1
  H+  H81  1  0.79759114  -0.05390351  0.22712854  1
  H+  H82  1  0.43192307  0.51444060  0.21266578  1
  H+  H83  1  0.54297022  0.36712655  0.95104893  1
  H+  H84  1  0.63330594  0.82241074  0.50582464  1
  H+  H85  1  0.48459293  0.64423810  0.74967339  1
  H+  H86  1  0.90444509  0.50744249  0.48198918  1
  H+  H87  1  0.87623533  0.77927387  0.40425793  1
  H+  H88  1  0.12532909  0.23300891  0.63208036  1
  H+  H89  1  0.47047944  0.18644765  0.71330779  1
  H+  H90  1  0.35290997  0.17209776  0.50113964  1
  H+  H91  1  0.66028514  0.47943277  0.28910672  1
  H+  H92  1  0.18296228  0.82809221  0.76956030  1
  H+  H93  1  0.29103617  0.14982393  0.74137331  1
  H+  H94  1  0.97859918  0.49462285  0.98508518  1
  H+  H95  1  0.47132490  0.30702490  0.72036781  1
  H+  H96  1  0.62475068  0.15962344  0.71819910  1
  H+  H97  1  0.75730839  0.54703318  0.16426948  1
  H+  H98  1  0.49306396  -0.02676769  0.49074164  1
  H+  H99  1  0.82712766  0.32092891  0.24495357  1
  H+  H100  1  0.83915508  0.30866131  0.49929000  1
  H+  H101  1  0.53873419  0.48195890  0.96293236  1
  H+  H102  1  0.46886258  0.94970490  0.72043087  1
  H+  H103  1  0.29424540  0.14419776  0.28468804  1
  H+  H104  1  0.21698082  0.77680205  0.41038957  1
  H+  H105  1  0.02643087  0.50472407  0.73819622  1
  H+  H106  1  0.53761503  0.13241111  0.98382650  1
  H+  H107  1  0.63224136  0.80556641  0.77803364  1
  H+  H108  1  0.48992618  0.55302140  0.08253577  1
  H+  H109  1  0.89909288  0.67987174  0.08428465  1
  H+  H110  1  0.21006661  0.08796277  0.41156868  1
  H+  H111  1  0.44264551  0.57780492  0.61749605  1
  H+  H112  1  0.55132051  0.77440350  0.86417323  1
  H+  H113  1  0.43541550  0.24070378  0.19892223  1
  H+  H114  1  0.23402434  0.12024117  0.88186957  1
  H+  H115  1  0.90884101  0.45376576  0.34412305  1
  H+  H116  1  0.47994121  0.23320498  0.05216856  1
  H+  H117  1  0.54600400  0.43497490  0.41405361  1
  H+  H118  1  0.11648894  0.14804102  0.02487102  1
  H+  H119  1  0.23235064  0.44444492  0.40711480  1
  H+  H120  1  0.79091251  0.24753741  0.14610869  1
  H+  H121  1  0.75087214  0.55981535  0.61043759  1
  H+  H122  1  0.82760561  0.18503452  0.50468976  1
  H+  H123  1  0.11964563  0.54706602  0.60299121  1
  H+  H124  1  0.10768432  0.88568313  0.15792173  1
  H+  H125  1  0.23126137  0.44014846  0.85549381  1
  H+  H126  1  0.59610883  0.06577102  0.93912917  1
  H+  H127  1  0.37317287  0.85699778  0.50179339  1
  H+  H128  1  0.87034951  0.10744866  0.91891984  1
  H+  H129  1  0.53652393  0.10985967  0.79816520  1
  H+  H130  1  0.10286741  0.20896337  0.16015738  1
  H+  H131  1  0.88257079  0.52673273  0.98680545  1
  H+  H132  1  0.81823091  0.85476104  0.51881534  1
  H+  H133  1  0.43203610  0.85136008  0.16282990  1
  H+  H134  1  0.11357887  0.55336211  0.09696365  1
  H+  H135  1  0.55267981  0.75862254  0.36436937  1
  H+  H136  1  0.43353715  0.22167453  0.59084378  1
  H+  H137  1  0.78181700  0.23992209  0.63870059  1
  H+  H138  1  0.55404813  0.44132068  0.82485458  1
  H+  H139  1  0.78623555  0.89163676  0.61229421  1
  H+  H140  1  0.47359799  0.83907213  0.75627052  1
  H+  H141  1  0.88293659  0.45461255  0.84784577  1
  H+  H142  1  0.68238114  0.84512954  0.07027068  1
  H+  H143  1  0.88437728  0.09697408  0.40397178  1
  O2-  O144  1  0.10263888  0.20723726  0.22831828  1
  O2-  O145  1  0.12851794  0.23957661  0.70136655  1
  O2-  O146  1  0.11669365  0.56000140  0.21595264  1
  O2-  O147  1  0.10289384  0.53414034  0.71089930  1
  O2-  O148  1  0.10056282  0.88096443  0.22529199  1
  O2-  O149  1  0.10667319  0.87777457  0.73212163  1
  O2-  O150  1  0.44824721  0.22717116  0.26190074  1
  O2-  O151  1  0.42668017  0.22545387  0.69656033  1
  O2-  O152  1  0.51417610  0.56601188  0.21119947  1
  O2-  O153  1  0.44456415  0.56736249  0.71847494  1
  O2-  O154  1  0.43941918  0.85954299  0.23090101  1
  O2-  O155  1  0.42299645  0.86695407  0.73213985  1
  O2-  O156  1  0.78360172  0.23914052  0.21756924  1
  O2-  O157  1  0.76517496  0.23824448  0.70551629  1
  O2-  O158  1  0.78358357  0.55737524  0.22737960  1
  O2-  O159  1  0.76822473  0.55255519  0.71358745  1
  O2-  O160  1  0.75541444  0.86525352  0.20697746  1
  O2-  O161  1  0.77862735  0.86440019  0.75281561  1
  O2-  O162  1  0.21141243  0.09843500  0.29755635  1
  O2-  O163  1  0.21349089  0.10814017  0.77032954  1
  O2-  O164  1  0.19986920  0.43529768  0.28851392  1
  O2-  O165  1  0.23637533  0.44864489  0.78793036  1
  O2-  O166  1  0.21465714  0.77307990  0.28911585  1
  O2-  O167  1  0.22712026  0.79010697  0.79386432  1
  O2-  O168  1  0.58048122  0.12428574  0.26971044  1
  O2-  O169  1  0.54013803  0.11196161  0.73194329  1
  O2-  O170  1  0.57938887  0.44533295  0.31036105  1
  O2-  O171  1  0.54674610  0.43964964  0.75532247  1
  O2-  O172  1  0.55024844  0.75202557  0.29651252  1
  O2-  O173  1  0.55095736  0.77446028  0.79597300  1
  O2-  O174  1  0.87948787  0.09048357  0.28315274  1
  O2-  O175  1  0.82431966  0.09192110  0.79031252  1
  O2-  O176  1  0.89596393  0.44663501  0.27626087  1
  O2-  O177  1  0.88073163  0.45376886  0.77995883  1
  O2-  O178  1  0.87226316  0.77012498  0.27897442  1
  O2-  O179  1  0.88203481  0.75120356  0.79913872  1
  O2-  O180  1  0.21852059  0.09501070  0.47962213  1
  O2-  O181  1  0.24955270  0.13369422  0.94966796  1
  O2-  O182  1  0.24224564  0.44415224  0.47421179  1
  O2-  O183  1  0.22569109  0.43693527  0.97581441  1
  O2-  O184  1  0.22265807  0.78096096  0.47813328  1
  O2-  O185  1  0.22363753  0.77048282  0.97058382  1
  O2-  O186  1  0.57045562  0.12254497  0.45172367  1
  O2-  O187  1  0.58293566  0.09348476  0.99661804  1
  O2-  O188  1  0.52069532  0.42191349  0.48027255  1
  O2-  O189  1  0.57664670  0.44620860  0.92958228  1
  O2-  O190  1  0.55374224  0.77958341  0.48156334  1
  O2-  O191  1  0.55540356  0.77613090  0.98182907  1
  O2-  O192  1  0.89177515  0.10877077  0.47136096  1
  O2-  O193  1  0.89005417  0.12407687  0.98350222  1
  O2-  O194  1  0.93044997  0.45752889  0.45721793  1
  O2-  O195  1  0.89641524  0.46441696  0.96800609  1
  O2-  O196  1  0.87950632  0.78208158  0.47205850  1
  O2-  O197  1  0.82132069  0.69027183  0.97986019  1
  O2-  O198  1  0.09811616  0.20709611  0.04132378  1
  O2-  O199  1  0.11705929  0.21794132  0.52329768  1
  O2-  O200  1  0.11257279  0.55166219  0.02884796  1
  O2-  O201  1  0.13022781  0.55608034  0.53391419  1
  O2-  O202  1  0.11216167  0.87450637  0.03555960  1
  O2-  O203  1  0.10443284  0.87765897  0.54624034  1
  O2-  O204  1  0.47228388  0.21095407  -0.01170522  1
  O2-  O205  1  0.43638186  0.22161891  0.52072914  1
  O2-  O206  1  0.46686964  0.54876652  0.01836523  1
  O2-  O207  1  0.44665390  0.58235414  0.54636572  1
  O2-  O208  1  0.43002632  0.86356305  0.04898127  1
  O2-  O209  1  0.45616434  0.89515648  0.51620116  1
  O2-  O210  1  0.79823414  0.25621668  0.04634653  1
  O2-  O211  1  0.78996059  0.23012009  0.52293425  1
  O2-  O212  1  0.91625101  0.67844398  0.01943860  1
  O2-  O213  1  0.73158431  0.56047771  0.54240657  1
  O2-  O214  1  0.67267930  0.86554658  0.00740644  1
  O2-  O215  1  0.77903575  0.89445908  0.54577588  1
