# generated using pymatgen
data_H2O
_symmetry_space_group_name_H-M   'P 1'
_cell_length_a   13.50707539
_cell_length_b   13.50226235
_cell_length_c   14.70411420
_cell_angle_alpha   90.01931476
_cell_angle_beta   89.94190779
_cell_angle_gamma   120.01077103
_symmetry_Int_Tables_number   1
_chemical_formula_structural   H2O
_chemical_formula_sum   'H144 O72'
_cell_volume   2322.14848399
_cell_formula_units_Z   72
loop_
 _symmetry_equiv_pos_site_id
 _symmetry_equiv_pos_as_xyz
  1  'x, y, z'
loop_
 _atom_type_symbol
 _atom_type_oxidation_number
  H+  1.0
  O2-  -2.0
loop_
 _atom_site_type_symbol
 _atom_site_label
 _atom_site_symmetry_multiplicity
 _atom_site_fract_x
 _atom_site_fract_y
 _atom_site_fract_z
 _atom_site_occupancy
  H+  H0  1  0.48063670  0.49333803  0.49873773  1
  H+  H1  1  0.80850020  0.28464534  0.50753756  1
  H+  H2  1  0.69435607  0.16893046  0.53497674  1
  H+  H3  1  0.55840903  0.11781226  0.13128129  1
  H+  H4  1  0.81406415  0.30279487  0.00144089  1
  H+  H5  1  0.20949244  0.69158747  0.24591751  1
  H+  H6  1  0.11020432  0.74014024  0.42073666  1
  H+  H7  1  0.20731621  0.16532264  0.74526134  1
  H+  H8  1  0.45641496  0.56675609  0.09035914  1
  H+  H9  1  0.18151594  0.05207335  0.51108461  1
  H+  H10  1  0.63805241  0.48385908  0.25057930  1
  H+  H11  1  0.19046776  0.16145582  0.28549711  1
  H+  H12  1  0.97263671  0.47920761  0.98481717  1
  H+  H13  1  0.73881526  0.56617850  -0.00699254  1
  H+  H14  1  0.80549431  -0.03655316  0.74609985  1
  H+  H15  1  0.18568851  0.51588063  0.74736008  1
  H+  H16  1  0.48107231  0.51654359  0.72088352  1
  H+  H17  1  0.70302989  0.84807347  -0.00750658  1
  H+  H18  1  0.71338660  0.17829588  0.21858488  1
  H+  H19  1  -0.02726429  0.82322383  0.75660331  1
  H+  H20  1  0.17963502  0.17064165  0.50675642  1
  H+  H21  1  0.81932512  0.51176973  0.22166118  1
  H+  H22  1  0.51144311  0.37423606  0.74920838  1
  H+  H23  1  0.15707942  0.86961346  0.52011670  1
  H+  H24  1  0.82971650  0.31115460  0.73886046  1
  H+  H25  1  0.84556003  0.81142060  0.51492989  1
  H+  H26  1  0.84882426  0.49244642  0.51408964  1
  H+  H27  1  0.15205803  0.65552078  0.74379852  1
  H+  H28  1  0.81496191  0.84037542  0.22927581  1
  H+  H29  1  0.83829566  0.13969184  0.76059525  1
  H+  H30  1  0.58156615  0.43184285  0.98225580  1
  H+  H31  1  0.20197569  0.48812243  0.48198382  1
  H+  H32  1  0.83333144  0.17685787  0.23271404  1
  H+  H33  1  0.82355892  -0.03462577  0.51226500  1
  H+  H34  1  0.36931065  0.19186589  0.74410888  1
  H+  H35  1  0.70492739  0.52011611  0.51319212  1
  H+  H36  1  0.48735453  0.84974978  0.50161641  1
  H+  H37  1  -0.03105990  0.82203677  0.51890077  1
  H+  H38  1  0.90196907  0.79472711  0.89483310  1
  H+  H39  1  0.36674075  0.84988074  0.50342749  1
  H+  H40  1  0.18262012  0.69218190  0.98173901  1
  H+  H41  1  0.44179994  0.27269929  0.00551375  1
  H+  H42  1  0.16187815  0.16056424  0.98338826  1
  H+  H43  1  0.12904148  0.56957691  0.60661166  1
  H+  H44  1  0.54737495  0.09919994  0.64055267  1
  H+  H45  1  0.29881946  0.81097355  0.76025722  1
  H+  H46  1  0.49544939  -0.03652698  0.21090197  1
  H+  H47  1  0.83910898  1.02777964  -0.00807975  1
  H+  H48  1  0.36913504  0.51851807  0.00746667  1
  H+  H49  1  0.85742522  0.67479718  1.00256694  1
  H+  H50  1  0.84397796  0.70154440  0.25146653  1
  H+  H51  1  0.49523389  0.52562098  0.23358803  1
  H+  H52  1  0.03311095  0.53201591  0.73935082  1
  H+  H53  1  0.64384094  0.81677465  0.25347483  1
  H+  H54  1  0.49834617  0.64667324  0.23474630  1
  H+  H55  1  0.47482676  0.95090302  -0.00533492  1
  H+  H56  1  0.84942756  0.48976783  0.75856375  1
  H+  H57  1  -0.01634268  0.14858175  0.25213850  1
  H+  H58  1  0.13980450  -0.02880974  0.25826418  1
  H+  H59  1  0.18324640  0.33100627  0.23841569  1
  H+  H60  1  0.69703902  0.52151943  0.74346563  1
  H+  H61  1  0.32533290  0.50035843  0.25409474  1
  H+  H62  1  0.04582614  0.85722958  0.02363896  1
  H+  H63  1  1.00192600  0.18247589  1.00755695  1
  H+  H64  1  0.51675485  0.36791959  0.25501774  1
  H+  H65  1  0.15304341  0.84097904  0.02634068  1
  H+  H66  1  0.36496619  0.18465025  0.25254173  1
  H+  H67  1  0.52449564  0.36514256  0.48532905  1
  H+  H68  1  0.52865143  0.17991095  0.76463667  1
  H+  H69  1  0.46130107  0.16595672  0.01099279  1
  H+  H70  1  0.35040629  0.48714198  0.49503113  1
  H+  H71  1  0.85981872  0.35530458  0.22963056  1
  H+  H72  1  0.85397942  0.70293690  0.75884376  1
  H+  H73  1  0.48953613  0.47358872  0.98542878  1
  H+  H74  1  0.64442292  0.81506581  0.78364220  1
  H+  H75  1  0.64547521  0.17478246  0.76608248  1
  H+  H76  1  0.15792565  0.68305528  0.48895200  1
  H+  H77  1  -0.04123150  0.82346444  0.25938944  1
  H+  H78  1  0.38263291  0.84049907  0.22836713  1
  H+  H79  1  0.36726835  0.19190711  0.51791592  1
  H+  H80  1  0.85603617  0.13836031  0.47766044  1
  H+  H81  1  0.30206318  0.81022244  0.98345600  1
  H+  H82  1  0.15352661  0.50612346  -0.00986387  1
  H+  H83  1  0.26721287  0.13899639  0.99051435  1
  H+  H84  1  0.17035922  0.35066119  0.99403038  1
  H+  H85  1  0.63700486  0.83313802  0.48795954  1
  H+  H86  1  0.50630088  0.01964046  0.55411185  1
  H+  H87  1  0.15652173  -0.02314762  0.74472408  1
  H+  H88  1  0.47971734  0.17952537  0.53708220  1
  H+  H89  1  0.52645393  0.81750481  0.24850467  1
  H+  H90  1  0.17425551  0.35329100  0.48229414  1
  H+  H91  1  0.04820283  0.51320572  0.22013803  1
  H+  H92  1  0.62772321  0.15102062  0.98862585  1
  H+  H93  1  0.47308122  0.82293072  0.74936637  1
  H+  H94  1  0.51969595  0.15605885  0.21731605  1
  H+  H95  1  0.83410484  0.14537479  0.98535205  1
  H+  H96  1  0.17014409  0.26236772  0.63190256  1
  H+  H97  1  0.19699452  0.33601558  0.72274367  1
  H+  H98  1  0.36619001  0.52674706  0.71700157  1
  H+  H99  1  1.04274837  0.50795441  0.52697490  1
  H+  H100  1  0.86201742  0.83361546  0.98499763  1
  H+  H101  1  0.77735551  0.55675451  0.65610599  1
  H+  H102  1  0.24015744  0.45358625  0.34280491  1
  H+  H103  1  0.20324971  0.24720709  0.17466739  1
  H+  H104  1  0.98051035  0.15199119  0.47538780  1
  H+  H105  1  0.52276434  0.71469921  -0.06551847  1
  H+  H106  1  0.05831686  0.26453690  0.56424891  1
  H+  H107  1  0.82421932  0.64155582  0.52582727  1
  H+  H108  1  0.44647756  0.23826178  0.65385886  1
  H+  H109  1  0.15570592  0.85671795  0.74509898  1
  H+  H110  1  0.90358575  0.10689859  0.34029966  1
  H+  H111  1  0.56287291  0.79459402  0.39613649  1
  H+  H112  1  0.23095392  0.12549087  0.37400315  1
  H+  H113  1  0.82026101  0.96245117  0.22763371  1
  H+  H114  1  0.78577060  0.56545746  0.14016028  1
  H+  H115  1  0.53756254  0.45070300  0.83670575  1
  H+  H116  1  0.22145286  0.12025549  0.84214388  1
  H+  H117  1  0.87406596  0.09646835  0.84762618  1
  H+  H118  1  0.44363307  0.87058457  0.08029460  1
  H+  H119  1  0.78748377  0.22423142  0.65458205  1
  H+  H120  1  0.43477454  0.53433952  0.59758377  1
  H+  H121  1  0.86317233  0.49503496  0.98633726  1
  H+  H122  1  0.92924094  0.50113547  0.43477669  1
  H+  H123  1  0.12117405  0.90588560  0.61260503  1
  H+  H124  1  0.55333632  0.05663096  0.37489091  1
  H+  H125  1  0.07979530  0.22908373  0.09914259  1
  H+  H126  1  0.42540359  0.21778691  0.15377547  1
  H+  H127  1  0.12199711  0.54438968  0.08359877  1
  H+  H128  1  0.78506730  0.22327253  0.08967055  1
  H+  H129  1  0.43345454  0.85256629  0.65531828  1
  H+  H130  1  0.51628999  0.08326931  0.38001553  1
  H+  H131  1  0.24410668  0.39406191  0.90649263  1
  H+  H132  1  0.81250300  0.84771781  0.74274288  1
  H+  H133  1  0.89160487  0.43070359  0.31605065  1
  H+  H134  1  0.56352850  0.44594691  0.39584923  1
  H+  H135  1  0.16723680  0.51340037  0.22699230  1
  H+  H136  1  0.54801763  0.11508992  0.90202250  1
  H+  H137  1  0.24813474  0.76471802  0.33719677  1
  H+  H138  1  0.77155021  0.89095620  0.60394972  1
  H+  H139  1  0.10758380  0.88886870  0.17232941  1
  H+  H140  1  0.76660550  0.88099779  0.09192763  1
  H+  H141  1  0.21871506  0.77942551  0.85020201  1
  H+  H142  1  0.89388350  0.45042968  0.84471807  1
  H+  H143  1  0.25213291  0.50959518  0.83276035  1
  O2-  O144  1  0.14540115  0.24845419  0.21383460  1
  O2-  O145  1  0.19746513  0.26991092  0.69548613  1
  O2-  O146  1  0.12835689  0.55214883  0.19807566  1
  O2-  O147  1  0.11434617  0.57429499  0.71737765  1
  O2-  O148  1  0.09418928  0.89098171  0.23908344  1
  O2-  O149  1  0.11371228  0.89550886  0.72215538  1
  O2-  O150  1  0.44088179  0.22518227  0.22083894  1
  O2-  O151  1  0.45047733  0.24048922  0.72172748  1
  O2-  O152  1  0.45557261  0.56570685  0.20928698  1
  O2-  O153  1  0.44142866  0.55177875  0.68754454  1
  O2-  O154  1  0.46127259  0.88078369  0.19881624  1
  O2-  O155  1  0.42550239  0.85138115  0.72217293  1
  O2-  O156  1  0.79724947  0.22020555  0.20643128  1
  O2-  O157  1  0.78432350  0.22869899  0.72181593  1
  O2-  O158  1  0.77519083  0.55001256  0.20664124  1
  O2-  O159  1  0.77899216  0.55876051  0.72445373  1
  O2-  O160  1  0.77422172  0.88318825  0.20476021  1
  O2-  O161  1  0.76351243  0.88024295  0.72431054  1
  O2-  O162  1  0.23272840  0.12351364  0.30568649  1
  O2-  O163  1  0.23224275  0.11444885  0.77490171  1
  O2-  O164  1  0.24246046  0.45607742  0.27410458  1
  O2-  O165  1  0.23510957  0.48340975  0.76991191  1
  O2-  O166  1  0.25932354  0.76910864  0.27112831  1
  O2-  O167  1  0.21700391  0.78030835  0.78142951  1
  O2-  O168  1  0.56529594  0.11957281  0.19748032  1
  O2-  O169  1  0.56325164  0.13312971  0.78354404  1
  O2-  O170  1  0.55940507  0.44874489  0.27729031  1
  O2-  O171  1  0.55090449  0.45694427  0.77013201  1
  O2-  O172  1  0.56294486  0.77576064  0.27674059  1
  O2-  O173  1  0.56373797  0.77078501  0.81086903  1
  O2-  O174  1  0.90335807  0.11084918  0.27151656  1
  O2-  O175  1  0.87088625  0.09167188  0.78031623  1
  O2-  O176  1  0.89819829  0.43812179  0.25018630  1
  O2-  O177  1  0.89549627  0.45321547  0.77683434  1
  O2-  O178  1  0.87335927  0.78110530  0.27095338  1
  O2-  O179  1  0.89238059  0.78393964  0.78030091  1
  O2-  O180  1  0.22400283  0.13311888  0.48863810  1
  O2-  O181  1  0.20314595  0.12791556  0.95160414  1
  O2-  O182  1  0.23229866  0.44105370  0.45576093  1
  O2-  O183  1  0.22983119  0.42412837  0.96239719  1
  O2-  O184  1  0.17790205  0.75668694  0.45631665  1
  O2-  O185  1  0.21929988  0.77318860  0.96243036  1
  O2-  O186  1  0.54859163  0.10262388  0.57351701  1
  O2-  O187  1  0.54559773  0.11102868  0.97042433  1
  O2-  O188  1  0.56280513  0.44651934  0.46402987  1
  O2-  O189  1  0.50905603  0.41640518  0.95626464  1
  O2-  O190  1  0.55847215  0.80170366  0.46307696  1
  O2-  O191  1  0.58300721  0.78798651  0.90928381  1
  O2-  O192  1  0.89854806  0.10166207  0.45362403  1
  O2-  O193  1  0.87941493  0.10819537  0.96787554  1
  O2-  O194  1  0.89369307  0.45536006  0.48897860  1
  O2-  O195  1  0.89089568  0.44354635  0.96445048  1
  O2-  O196  1  0.88745742  0.76894175  0.50483770  1
  O2-  O197  1  0.90600462  0.79685051  0.96321736  1
  O2-  O198  1  0.08339965  0.22943556  0.03228443  1
  O2-  O199  1  0.10400822  0.24903022  0.52135363  1
  O2-  O200  1  0.11214926  0.54256092  0.01565356  1
  O2-  O201  1  0.12550482  0.55849839  0.53839742  1
  O2-  O202  1  0.11666677  0.87955708  0.05774472  1
  O2-  O203  1  0.12095541  0.91221648  0.54382747  1
  O2-  O204  1  0.41612468  0.19940607  0.03772188  1
  O2-  O205  1  0.44959421  0.23358178  0.53637757  1
  O2-  O206  1  0.45186754  0.56067692  0.02231589  1
  O2-  O207  1  0.43221701  0.52604386  0.52274417  1
  O2-  O208  1  0.43430719  0.86985425  0.01314180  1
  O2-  O209  1  0.44030833  0.88106352  0.53415629  1
  O2-  O210  1  0.77191728  0.22146156  0.02275561  1
  O2-  O211  1  0.77957894  0.20702699  0.53173257  1
  O2-  O212  1  0.81175869  0.59003329  0.02247209  1
  O2-  O213  1  0.78162671  0.55536828  0.54221131  1
  O2-  O214  1  0.77755162  0.88959317  0.02367117  1
  O2-  O215  1  0.77486628  0.88663830  0.53622270  1
