# generated using pymatgen
data_H2O
_symmetry_space_group_name_H-M   'P 1'
_cell_length_a   13.54018701
_cell_length_b   13.53242608
_cell_length_c   14.70881989
_cell_angle_alpha   89.97281339
_cell_angle_beta   89.99893517
_cell_angle_gamma   119.97998900
_symmetry_Int_Tables_number   1
_chemical_formula_structural   H2O
_chemical_formula_sum   'H144 O72'
_cell_volume   2334.51278833
_cell_formula_units_Z   72
loop_
 _symmetry_equiv_pos_site_id
 _symmetry_equiv_pos_as_xyz
  1  'x, y, z'
loop_
 _atom_type_symbol
 _atom_type_oxidation_number
  H+  1.0
  O2-  -2.0
loop_
 _atom_site_type_symbol
 _atom_site_label
 _atom_site_symmetry_multiplicity
 _atom_site_fract_x
 _atom_site_fract_y
 _atom_site_fract_z
 _atom_site_occupancy
  H+  H0  1  0.79989540  0.96495926  0.49883794  1
  H+  H1  1  0.48101152  0.13173900  0.73247843  1
  H+  H2  1  0.85671168  0.80368595  0.99469923  1
  H+  H3  1  0.52570944  0.36801778  0.26091971  1
  H+  H4  1  0.64286486  0.49972075  0.49573311  1
  H+  H5  1  0.23470879  0.48944100  0.75031196  1
  H+  H6  1  0.24061577  0.75770300  0.96960586  1
  H+  H7  1  0.17941378  0.69416989  0.25487145  1
  H+  H8  1  0.12718000  0.59971093  0.01938241  1
  H+  H9  1  0.50190664  0.67939036  0.49844806  1
  H+  H10  1  0.80754748  0.51850820  0.55216287  1
  H+  H11  1  0.14773781  0.92100130  0.14263750  1
  H+  H12  1  0.26359284  0.11280766  0.52667285  1
  H+  H13  1  0.16423152  0.87211278  1.00240758  1
  H+  H14  1  0.32974111  0.86277100  0.51285087  1
  H+  H15  1  0.68350025  0.20196475  0.52247558  1
  H+  H16  1  0.81918081  0.94385739  0.00786061  1
  H+  H17  1  0.08286699  0.49989410  0.73542304  1
  H+  H18  1  0.36202532  0.51377917  0.50475977  1
  H+  H19  1  -0.01788856  0.15334695  0.01550312  1
  H+  H20  1  0.16031628  0.87957587  0.72205872  1
  H+  H21  1  0.81373396  0.48705087  0.23387064  1
  H+  H22  1  0.37697949  0.51498724  0.01465683  1
  H+  H23  1  0.52478590  0.18319130  -0.02865306  1
  H+  H24  1  0.36216731  0.84513363  0.24841122  1
  H+  H25  1  0.20330780  0.16894013  0.75813953  1
  H+  H26  1  0.69269204  0.15865931  0.74218320  1
  H+  H27  1  0.36611052  0.82742549  0.74026425  1
  H+  H28  1  0.85977509  0.47457804  0.43839911  1
  H+  H29  1  0.53464591  0.37725505  0.49240349  1
  H+  H30  1  0.18883067  0.47395086  0.98459745  1
  H+  H31  1  0.52557545  0.75564487  0.39050314  1
  H+  H32  1  0.16360993  0.18410327  -0.00339345  1
  H+  H33  1  0.18831197  0.48285308  0.47768557  1
  H+  H34  1  0.16548447  0.30468596  0.99838594  1
  H+  H35  1  0.11492718  0.13808206  0.52863838  1
  H+  H36  1  0.75383586  0.51982268  0.76216300  1
  H+  H37  1  0.50367247  0.18186545  0.49955769  1
  H+  H38  1  0.72681566  0.87262990  0.79798775  1
  H+  H39  1  0.49404876  0.51365513  1.02255649  1
  H+  H40  1  0.90509567  0.80396689  0.30957781  1
  H+  H41  1  0.81412101  0.17634880  0.00950500  1
  H+  H42  1  0.63803125  0.13745452  0.26153553  1
  H+  H43  1  0.79011987  0.84730318  0.20073472  1
  H+  H44  1  0.16466830  0.69259068  0.48239088  1
  H+  H45  1  0.23357360  0.37506439  0.76292859  1
  H+  H46  1  0.19059284  0.81943778  0.25070251  1
  H+  H47  1  0.84258573  0.35854408  0.99521019  1
  H+  H48  1  0.83690212  0.35918237  0.48859011  1
  H+  H49  1  0.10060732  0.12865716  0.21184892  1
  H+  H50  1  0.79188310  0.28536771  0.75883889  1
  H+  H51  1  0.49944981  0.99961424  0.75769536  1
  H+  H52  1  0.36121555  0.16136635  0.72921659  1
  H+  H53  1  0.93427228  0.13436524  0.48768238  1
  H+  H54  1  0.80895296  0.65462921  0.75313302  1
  H+  H55  1  0.15413816  0.50717473  0.24223532  1
  H+  H56  1  0.38722626  0.18743271  0.25040238  1
  H+  H57  1  0.48664715  0.51392244  0.24495728  1
  H+  H58  1  0.88679467  0.47331280  0.76374533  1
  H+  H59  1  0.18687433  0.03684228  0.98407679  1
  H+  H60  1  1.00373374  0.83674964  0.49760886  1
  H+  H61  1  0.86283107  0.83342629  0.77519007  1
  H+  H62  1  0.19509021  -0.00369551  0.23442148  1
  H+  H63  1  0.47656182  0.81349785  0.74192070  1
  H+  H64  1  0.79184405  0.94954881  0.24513635  1
  H+  H65  1  0.83595487  0.81427265  0.48220812  1
  H+  H66  1  0.11411094  0.22106193  0.66625488  1
  H+  H67  1  0.56085916  0.10581189  0.40255494  1
  H+  H68  1  0.52537481  0.14645029  0.26474517  1
  H+  H69  1  0.40577555  0.21143533  0.47888178  1
  H+  H70  1  -0.03543632  0.15213712  0.25320081  1
  H+  H71  1  0.05609126  0.20593456  0.76182021  1
  H+  H72  1  0.02847011  0.50375185  0.49200574  1
  H+  H73  1  0.19231563  0.61749061  0.71777233  1
  H+  H74  1  0.49998367  0.88586852  0.01980195  1
  H+  H75  1  0.48968717  0.80043366  0.27602791  1
  H+  H76  1  0.83810498  0.69842014  0.48920358  1
  H+  H77  1  0.48729224  0.30114174  0.02218471  1
  H+  H78  1  0.70285498  0.82739121  -0.00820861  1
  H+  H79  1  0.41468062  0.55306150  0.75254657  1
  H+  H80  1  0.12349690  0.83344281  0.49845158  1
  H+  H81  1  0.36992508  0.18126509  0.01161722  1
  H+  H82  1  0.48591963  0.67515328  0.27582446  1
  H+  H83  1  0.62218246  0.80501918  0.48896526  1
  H+  H84  1  0.86009101  0.16268417  0.77497937  1
  H+  H85  1  0.69977768  0.18478982  -0.01005390  1
  H+  H86  1  0.15430355  1.00114221  0.49221526  1
  H+  H87  1  0.51527511  0.36162778  0.76652236  1
  H+  H88  1  0.15135178  0.73639647  0.77572000  1
  H+  H89  1  -0.02866940  0.46056012  0.24655140  1
  H+  H90  1  0.03699518  0.85372508  0.01018586  1
  H+  H91  1  0.50131457  1.03269909  0.49505373  1
  H+  H92  1  0.48204364  0.51841305  0.50876380  1
  H+  H93  1  0.84165725  0.14170217  0.25061148  1
  H+  H94  1  0.01367122  0.48430243  0.00972317  1
  H+  H95  1  0.88234583  0.09036161  1.08489027  1
  H+  H96  1  0.87041582  0.09710821  0.39321821  1
  H+  H97  1  0.34593842  0.87716603  0.98801312  1
  H+  H98  1  0.44941012  0.55648924  0.15620180  1
  H+  H99  1  0.30282702  0.47298500  0.25278278  1
  H+  H100  1  0.52530668  0.68957554  0.98344267  1
  H+  H101  1  0.54083329  0.10510919  0.83567216  1
  H+  H102  1  0.18420025  0.35454870  0.25132680  1
  H+  H103  1  0.59986428  0.74899615  0.71221064  1
  H+  H104  1  0.18616714  0.04349189  0.74614700  1
  H+  H105  1  0.23459212  0.19479600  0.28889088  1
  H+  H106  1  0.82752623  0.62736383  0.01639120  1
  H+  H107  1  0.64375711  0.47914872  0.00671657  1
  H+  H108  1  0.09918233  0.89588307  0.63488030  1
  H+  H109  1  0.76947381  0.24281878  0.60725755  1
  H+  H110  1  0.85019045  0.43091422  0.86529326  1
  H+  H111  1  0.24513176  0.82385613  0.84207225  1
  H+  H112  1  0.62288346  0.26039450  0.90405003  1
  H+  H113  1  0.89157599  0.40641121  0.33254960  1
  H+  H114  1  0.76917976  0.89239719  0.59153507  1
  H+  H115  1  0.11221374  0.54192573  0.57819835  1
  H+  H116  1  0.90281880  0.12828363  0.86388644  1
  H+  H117  1  0.00582433  0.07226108  0.58739217  1
  H+  H118  1  0.83097728  0.98531333  0.76400084  1
  H+  H119  1  0.70502099  0.50431827  0.23813323  1
  H+  H120  1  0.97724865  0.83012224  0.75892771  1
  H+  H121  1  0.11958017  0.21583568  0.13384221  1
  H+  H122  1  0.76004281  0.20081342  0.14182257  1
  H+  H123  1  0.55473784  0.43449535  0.92274129  1
  H+  H124  1  0.78469557  0.54408119  0.10566903  1
  H+  H125  1  0.44566853  0.19777055  0.63718169  1
  H+  H126  1  0.53388317  0.48629079  0.77790860  1
  H+  H127  1  0.44710048  0.90120998  0.11135818  1
  H+  H128  1  0.55867977  0.74058765  0.88481000  1
  H+  H129  1  0.00515232  0.85893342  0.23901039  1
  H+  H130  1  0.22809675  0.43651061  0.39636628  1
  H+  H131  1  0.20477393  0.77353811  0.39484001  1
  H+  H132  1  0.10899345  0.53709959  0.15293212  1
  H+  H133  1  0.81355221  0.28181762  0.22796070  1
  H+  H134  1  0.84782276  0.48216109  1.00106751  1
  H+  H135  1  0.76142936  0.57353536  0.62203976  1
  H+  H136  1  0.45562776  0.21775448  0.15600101  1
  H+  H137  1  0.24863917  0.45031317  0.89846552  1
  H+  H138  1  0.23605948  0.11580410  0.89468060  1
  H+  H139  1  0.23726983  0.11817816  0.36868784  1
  H+  H140  1  0.42394319  0.87969761  0.58572597  1
  H+  H141  1  0.90487024  0.77045969  0.90943268  1
  H+  H142  1  0.56481234  0.45035537  0.34806492  1
  H+  H143  1  0.48421624  0.96128216  0.25198218  1
  O2-  O144  1  0.11032980  0.20442122  0.20209124  1
  O2-  O145  1  0.13224068  0.23833796  0.73234635  1
  O2-  O146  1  0.11201150  0.54608664  0.21993628  1
  O2-  O147  1  0.15099718  0.53818471  0.69754014  1
  O2-  O148  1  0.15692714  0.91814858  0.20991602  1
  O2-  O149  1  0.11088743  0.91013523  0.70251824  1
  O2-  O150  1  0.46482937  0.22423247  0.22355433  1
  O2-  O151  1  0.44198228  0.18670062  0.70533999  1
  O2-  O152  1  0.44112289  0.54968232  0.22411684  1
  O2-  O153  1  0.49807326  0.59423910  0.73705002  1
  O2-  O154  1  0.44291958  0.88207916  0.22637563  1
  O2-  O155  1  0.44853499  0.86659320  0.72720365  1
  O2-  O156  1  0.76591517  0.19940012  0.20913367  1
  O2-  O157  1  0.77507123  0.21031276  0.73275913  1
  O2-  O158  1  0.78179350  0.53395712  0.21098918  1
  O2-  O159  1  0.75010712  0.57968784  0.72742647  1
  O2-  O160  1  0.74071721  0.87994300  0.21139879  1
  O2-  O161  1  0.78442593  0.90205983  0.75000042  1
  O2-  O162  1  0.25317249  0.13512097  0.30235673  1
  O2-  O163  1  0.23933180  0.12098752  0.77215279  1
  O2-  O164  1  0.22089452  0.43355564  0.27359341  1
  O2-  O165  1  0.27489806  0.45635906  0.78350597  1
  O2-  O166  1  0.22097856  0.77317432  0.27974292  1
  O2-  O167  1  0.22686056  0.80446550  0.77542949  1
  O2-  O168  1  0.55969849  0.10135787  0.28906680  1
  O2-  O169  1  0.53147227  0.08444119  0.76846818  1
  O2-  O170  1  0.56200454  0.44929407  0.28024152  1
  O2-  O171  1  0.52441230  0.41872129  0.81117013  1
  O2-  O172  1  0.50926022  0.74798029  0.30942697  1
  O2-  O173  1  0.53698545  0.71560930  0.75653968  1
  O2-  O174  1  0.88683789  0.10900187  0.27806684  1
  O2-  O175  1  0.90726199  0.12893121  0.79751439  1
  O2-  O176  1  0.88949006  0.41254181  0.26523553  1
  O2-  O177  1  0.82201073  0.41867947  0.79988654  1
  O2-  O178  1  0.92435913  0.83590944  0.24837002  1
  O2-  O179  1  0.90177231  0.78938947  0.78961823  1
  O2-  O180  1  0.20264286  0.08858175  0.48180978  1
  O2-  O181  1  0.23378083  0.11811915  0.96215589  1
  O2-  O182  1  0.22940044  0.44151904  0.46356011  1
  O2-  O183  1  0.23702371  0.44125711  0.96592177  1
  O2-  O184  1  0.19772599  0.77394590  0.46274621  1
  O2-  O185  1  0.26874913  0.83710920  0.95325994  1
  O2-  O186  1  0.55636699  0.11119257  0.47060741  1
  O2-  O187  1  0.58289375  0.18222819  0.92739126  1
  O2-  O188  1  0.56620005  0.45481717  0.46695753  1
  O2-  O189  1  0.56036213  0.43721587  0.99056933  1
  O2-  O190  1  0.53979921  0.76205107  0.47166682  1
  O2-  O191  1  0.56499581  0.76311993  0.94911131  1
  O2-  O192  1  0.85812894  0.09080845  0.46049223  1
  O2-  O193  1  0.89608632  0.10930292  1.02010889  1
  O2-  O194  1  0.89392684  0.42691065  0.44852744  1
  O2-  O195  1  0.88529886  0.43924226  0.97260113  1
  O2-  O196  1  0.87769488  0.77518994  0.46109521  1
  O2-  O197  1  0.90480395  0.76765260  0.97697309  1
  O2-  O198  1  0.12327260  0.22382354  0.02155513  1
  O2-  O199  1  0.05915100  0.14895733  0.56542807  1
  O2-  O200  1  0.09549872  0.51896024  0.03216102  1
  O2-  O201  1  0.10914374  0.55305854  0.51235825  1
  O2-  O202  1  0.12013569  0.90606804  0.02747961  1
  O2-  O203  1  0.08569751  0.87653929  0.52215676  1
  O2-  O204  1  0.44917266  0.21673302  0.03635643  1
  O2-  O205  1  0.46323551  0.22478463  0.52470044  1
  O2-  O206  1  0.45550659  0.55764619  0.04003561  1
  O2-  O207  1  0.44149129  0.55762448  0.53054530  1
  O2-  O208  1  0.45553565  0.91885094  0.04425253  1
  O2-  O209  1  0.39905125  0.92071046  0.54569191  1
  O2-  O210  1  0.77313293  0.21857839  0.02339266  1
  O2-  O211  1  0.74960042  0.26902130  0.55135042  1
  O2-  O212  1  0.78475725  0.54537673  0.03562523  1
  O2-  O213  1  0.77117742  0.56504900  0.55369752  1
  O2-  O214  1  0.78326248  0.86088802  0.01264793  1
  O2-  O215  1  0.76442981  0.88386163  0.52538127  1
