# generated using pymatgen
data_H2O
_symmetry_space_group_name_H-M   'P 1'
_cell_length_a   13.51915236
_cell_length_b   13.52267291
_cell_length_c   14.70397452
_cell_angle_alpha   89.97517909
_cell_angle_beta   90.04644487
_cell_angle_gamma   119.94388682
_symmetry_Int_Tables_number   1
_chemical_formula_structural   H2O
_chemical_formula_sum   'H144 O72'
_cell_volume   2329.28442623
_cell_formula_units_Z   72
loop_
 _symmetry_equiv_pos_site_id
 _symmetry_equiv_pos_as_xyz
  1  'x, y, z'
loop_
 _atom_type_symbol
 _atom_type_oxidation_number
  H+  1.0
  O2-  -2.0
loop_
 _atom_site_type_symbol
 _atom_site_label
 _atom_site_symmetry_multiplicity
 _atom_site_fract_x
 _atom_site_fract_y
 _atom_site_fract_z
 _atom_site_occupancy
  H+  H0  1  0.18720742  0.81550404  0.98078388  1
  H+  H1  1  0.05014155  0.19715775  0.50437095  1
  H+  H2  1  0.29177412  0.47790851  0.73835903  1
  H+  H3  1  0.21151579  0.68373361  0.24540445  1
  H+  H4  1  0.97036152  0.82922695  0.98241197  1
  H+  H5  1  0.14495185  0.51195437  0.72907573  1
  H+  H6  1  0.52176628  0.51105393  0.75491913  1
  H+  H7  1  0.54056670  0.68858826  0.50514685  1
  H+  H8  1  0.15336221  0.85459354  0.50000911  1
  H+  H9  1  0.67404216  0.20956476  0.48402155  1
  H+  H10  1  0.64564197  0.15826682  0.97971700  1
  H+  H11  1  0.64384856  0.15357330  0.25473409  1
  H+  H12  1  0.29856267  0.81049530  0.75509903  1
  H+  H13  1  0.82937597  0.86921133  1.00271861  1
  H+  H14  1  0.55561200  0.76319185  0.41297688  1
  H+  H15  1  0.16620519  0.33072226  0.97173935  1
  H+  H16  1  0.15965197  0.51135968  -0.02185131  1
  H+  H17  1  0.15384593  0.75418918  0.38201947  1
  H+  H18  1  0.54100247  0.20588447  0.48262973  1
  H+  H19  1  0.83330995  0.31798181  0.51727162  1
  H+  H20  1  0.38160927  0.52539418  0.57211019  1
  H+  H21  1  0.50548074  0.68994851  0.27810501  1
  H+  H22  1  0.86258170  0.06310808  0.24795242  1
  H+  H23  1  0.48151543  0.33896139  -0.00110126  1
  H+  H24  1  0.17887790  0.69254446  0.75240000  1
  H+  H25  1  0.83340740  0.83082750  0.51115683  1
  H+  H26  1  0.70952944  0.52743234  0.50435993  1
  H+  H27  1  0.34754322  0.16745233  0.74786503  1
  H+  H28  1  0.45985463  0.78329777  0.52447879  1
  H+  H29  1  0.80575811  0.91539219  0.14563478  1
  H+  H30  1  0.18270219  1.03189487  0.76618099  1
  H+  H31  1  0.75406150  0.50135487  0.12386804  1
  H+  H32  1  0.20641411  1.05083932  0.48702223  1
  H+  H33  1  0.96503020  0.81630480  0.75552879  1
  H+  H34  1  0.06024481  0.53453633  0.19087582  1
  H+  H35  1  0.04341150  0.51816218  0.50680280  1
  H+  H36  1  0.49439339  0.50979351  0.25848325  1
  H+  H37  1  0.81599368  -0.03195424  0.73855973  1
  H+  H38  1  0.53929053  0.38268882  0.49560862  1
  H+  H39  1  0.93052130  0.45249771  0.28204931  1
  H+  H40  1  0.44636193  -0.01426400  0.45817494  1
  H+  H41  1  0.83977046  0.88162005  0.24091231  1
  H+  H42  1  0.37458097  0.19183728  0.50338614  1
  H+  H43  1  0.49714409  0.18332666  0.23557517  1
  H+  H44  1  0.51602187  0.81424954  0.27165783  1
  H+  H45  1  -0.01016313  0.86204796  0.27758276  1
  H+  H46  1  0.78556058  0.45814861  0.99712922  1
  H+  H47  1  0.29128098  0.72114582  0.33034772  1
  H+  H48  1  0.48279043  0.84010567  0.74547381  1
  H+  H49  1  0.37787768  0.18178082  0.23803343  1
  H+  H50  1  0.52030788  0.35500705  0.25999604  1
  H+  H51  1  0.63851591  0.81330231  0.75341169  1
  H+  H52  1  0.52432143  1.03621950  0.27098168  1
  H+  H53  1  0.52350044  0.82514575  -0.01695761  1
  H+  H54  1  0.15001683  0.16978622  0.74209588  1
  H+  H55  1  0.14964161  -0.02723335  0.98593075  1
  H+  H56  1  0.66357662  0.45799941  1.00762240  1
  H+  H57  1  0.86191469  0.16061281  0.49237794  1
  H+  H58  1  0.48699513  0.17977834  0.00340153  1
  H+  H59  1  0.24247682  0.12472328  0.34187888  1
  H+  H60  1  0.29399741  0.42384391  0.94609843  1
  H+  H61  1  0.82372213  0.46847149  0.25984125  1
  H+  H62  1  0.96148353  0.14068564  0.75581913  1
  H+  H63  1  0.14607919  0.84324861  0.74457035  1
  H+  H64  1  0.27283966  0.13640013  0.98117231  1
  H+  H65  1  0.86218295  0.50064940  0.50349481  1
  H+  H66  1  0.51267860  0.13812293  0.74658805  1
  H+  H67  1  0.70821985  0.86303096  1.00725276  1
  H+  H68  1  0.21881376  0.50523626  0.51511407  1
  H+  H69  1  0.46901804  0.99908813  0.50613563  1
  H+  H70  1  0.37577050  0.85594940  0.00108684  1
  H+  H71  1  0.82233413  0.18310765  0.73564980  1
  H+  H72  1  0.55222334  0.11413319  0.89676852  1
  H+  H73  1  1.02099741  0.17608568  0.99460834  1
  H+  H74  1  0.58653996  0.16127555  0.38411781  1
  H+  H75  1  0.85351819  0.36634310  0.74866184  1
  H+  H76  1  0.02902329  0.51684873  0.73425089  1
  H+  H77  1  0.48478208  0.64260086  0.71859873  1
  H+  H78  1  0.49243752  0.97697012  -0.00032918  1
  H+  H79  1  0.15254582  1.00380537  0.22910712  1
  H+  H80  1  0.35998368  0.81034196  0.50936798  1
  H+  H81  1  0.86194098  0.04389528  0.48578893  1
  H+  H82  1  0.46903677  0.50851575  0.02511706  1
  H+  H83  1  0.16140709  0.63226165  -0.01726444  1
  H+  H84  1  0.47031171  0.28088940  0.74300729  1
  H+  H85  1  0.80262444  0.60552915  0.19470601  1
  H+  H86  1  0.38114021  0.85706228  0.23231362  1
  H+  H87  1  0.52142413  0.43018749  0.91559609  1
  H+  H88  1  0.46070572  0.55735365  0.17160925  1
  H+  H89  1  0.85003711  0.69596172  0.75282482  1
  H+  H90  1  0.70102075  0.85134782  0.51113171  1
  H+  H91  1  0.63806544  0.47088022  0.25334296  1
  H+  H92  1  0.21494190  0.43156901  0.82816622  1
  H+  H93  1  0.78280178  0.90096015  0.60008413  1
  H+  H94  1  0.79151017  0.29241887  0.23126461  1
  H+  H95  1  0.76650705  0.21687137  0.07073372  1
  H+  H96  1  0.44409394  0.21189693  0.09453883  1
  H+  H97  1  0.21573303  0.16896159  0.24606732  1
  H+  H98  1  0.12210697  0.68459800  0.47360231  1
  H+  H99  1  0.70657797  0.51522814  0.73485004  1
  H+  H100  1  0.17709446  0.30237835  0.22441629  1
  H+  H101  1  0.83887599  0.69839055  0.50813805  1
  H+  H102  1  0.19130426  0.47314493  0.23938098  1
  H+  H103  1  0.82336643  0.51000118  0.73466019  1
  H+  H104  1  0.19699730  0.16546694  0.48476289  1
  H+  H105  1  0.36671738  0.53404470  0.04456864  1
  H+  H106  1  0.82510042  0.32625525  -0.02590643  1
  H+  H107  1  0.88830178  0.73715859  0.29592556  1
  H+  H108  1  0.44291652  0.21544010  0.59852169  1
  H+  H109  1  0.13641488  0.16257065  0.98781488  1
  H+  H110  1  0.88300991  0.78706042  0.90075008  1
  H+  H111  1  0.25818081  0.94348911  0.55926949  1
  H+  H112  1  0.56073947  0.77020183  0.84388506  1
  H+  H113  1  0.94608465  0.45550077  0.97360161  1
  H+  H114  1  0.13794859  0.22342385  0.13433322  1
  H+  H115  1  0.30562304  0.47574666  0.26509623  1
  H+  H116  1  0.80816407  0.18364256  0.23094210  1
  H+  H117  1  0.14589341  0.28583003  0.73172523  1
  H+  H118  1  0.12152001  0.57224068  0.59262381  1
  H+  H119  1  0.57803990  0.44698716  0.40068405  1
  H+  H120  1  0.90349224  0.80149378  0.42790634  1
  H+  H121  1  0.89028476  0.13625039  0.33790255  1
  H+  H122  1  0.11549276  0.89657664  0.07674146  1
  H+  H123  1  0.11929079  0.89428046  0.65735883  1
  H+  H124  1  0.78127642  0.22811547  0.60007629  1
  H+  H125  1  0.14372480  0.56291742  0.11036425  1
  H+  H126  1  0.22651127  0.77593389  0.89271776  1
  H+  H127  1  0.42840169  0.85228822  0.65488008  1
  H+  H128  1  0.52100792  1.02490619  0.74832006  1
  H+  H129  1  0.87810965  0.44500887  0.41466675  1
  H+  H130  1  0.21615850  0.38620398  0.51771525  1
  H+  H131  1  0.46196199  0.90425207  0.14545032  1
  H+  H132  1  0.62171463  0.57426252  0.82322038  1
  H+  H133  1  0.83352947  0.15709817  -0.02547038  1
  H+  H134  1  0.52339275  0.70771569  0.99260658  1
  H+  H135  1  0.21246761  0.10691834  0.86238058  1
  H+  H136  1  0.11990830  0.21738427  0.59622681  1
  H+  H137  1  0.78598695  0.56639330  0.59759780  1
  H+  H138  1  0.04753403  0.97917596  0.16924241  1
  H+  H139  1  0.88325763  0.43697652  0.84120029  1
  H+  H140  1  0.88002049  0.11075786  0.84445914  1
  H+  H141  1  0.70417925  0.18428358  0.73550111  1
  H+  H142  1  0.84242651  0.04077306  0.97947415  1
  H+  H143  1  0.81814261  0.84932235  0.73146094  1
  O2-  O144  1  0.15652566  0.22534285  0.19963143  1
  O2-  O145  1  0.10591690  0.20425313  0.71336418  1
  O2-  O146  1  0.14115323  0.56483639  0.17992235  1
  O2-  O147  1  0.10936159  0.55818530  0.71048879  1
  O2-  O148  1  0.08269978  0.93906605  0.19806260  1
  O2-  O149  1  0.10660075  0.88538997  0.72384923  1
  O2-  O150  1  0.45802865  0.22416852  0.21238958  1
  O2-  O151  1  0.42775466  0.20402074  0.71799369  1
  O2-  O152  1  0.45487554  0.55222722  0.23877750  1
  O2-  O153  1  0.44288885  0.56005483  0.69762493  1
  O2-  O154  1  0.46184969  0.90475345  0.21355187  1
  O2-  O155  1  0.44155205  0.87787776  0.72022418  1
  O2-  O156  1  0.75780473  0.21486289  0.20571733  1
  O2-  O157  1  0.78442298  0.22608602  0.71205842  1
  O2-  O158  1  0.76606518  0.52275220  0.19586773  1
  O2-  O159  1  0.78496718  0.55290964  0.71038091  1
  O2-  O160  1  0.81293253  0.92928040  0.21246422  1
  O2-  O161  1  0.77665690  0.88954573  0.71031748  1
  O2-  O162  1  0.24822491  0.12111441  0.27448990  1
  O2-  O163  1  0.22362430  0.11241254  0.78718463  1
  O2-  O164  1  0.22139504  0.43059082  0.27227626  1
  O2-  O165  1  0.21211304  0.43527283  0.76050259  1
  O2-  O166  1  0.25222763  0.74781052  0.28984492  1
  O2-  O167  1  0.21763754  0.77273499  0.77666018  1
  O2-  O168  1  0.56686661  0.11841969  0.28958717  1
  O2-  O169  1  0.56116460  0.10662538  0.76759767  1
  O2-  O170  1  0.56299782  0.43495214  0.28510833  1
  O2-  O171  1  0.57459574  0.49913339  0.79578177  1
  O2-  O172  1  0.53464018  0.76498537  0.30881556  1
  O2-  O173  1  0.55795064  0.76755549  0.77569577  1
  O2-  O174  1  0.88489809  0.14100210  0.27144956  1
  O2-  O175  1  0.88001989  0.10500373  0.77490594  1
  O2-  O176  1  0.85143059  0.42491098  0.29860462  1
  O2-  O177  1  0.89101663  0.44638821  0.77218324  1
  O2-  O178  1  0.92006118  0.81531726  0.31701734  1
  O2-  O179  1  0.88231479  0.77656184  0.77284863  1
  O2-  O180  1  0.24123281  0.12906482  0.46064948  1
  O2-  O181  1  0.19570739  0.09724093  0.95487834  1
  O2-  O182  1  0.26766557  0.47007525  0.51611583  1
  O2-  O183  1  0.21761146  0.41409448  0.94605377  1
  O2-  O184  1  0.11249533  0.74360048  0.43964974  1
  O2-  O185  1  0.22831299  0.77442828  0.96091064  1
  O2-  O186  1  0.60672784  0.20516255  0.44653306  1
  O2-  O187  1  0.55652871  0.11484337  0.96385335  1
  O2-  O188  1  0.58700857  0.45834109  0.46798520  1
  O2-  O189  1  0.51563364  0.42395000  0.98229804  1
  O2-  O190  1  0.56860323  0.76639049  0.48188709  1
  O2-  O191  1  0.56230548  0.78253074  0.96143684  1
  O2-  O192  1  0.90448942  0.12496754  0.46679109  1
  O2-  O193  1  0.88049505  0.11940918  0.95272687  1
  O2-  O194  1  0.89555670  0.45370298  0.48089680  1
  O2-  O195  1  0.86808743  0.41600646  0.94924601  1
  O2-  O196  1  0.87959141  0.78642020  0.49382451  1
  O2-  O197  1  0.88802644  0.79706316  0.96739818  1
  O2-  O198  1  0.10352552  0.21312061  0.01218676  1
  O2-  O199  1  0.12926565  0.23091948  0.52891007  1
  O2-  O200  1  0.12135105  0.55055476  0.00449909  1
  O2-  O201  1  0.12412195  0.57046142  0.52469634  1
  O2-  O202  1  0.11722871  0.88940977  0.01029410  1
  O2-  O203  1  0.18116989  0.92445388  0.54154856  1
  O2-  O204  1  0.44019905  0.21364554  0.02685670  1
  O2-  O205  1  0.45325842  0.22578620  0.53119051  1
  O2-  O206  1  0.44904958  0.56594868  0.05025386  1
  O2-  O207  1  0.46342320  0.56684112  0.59876870  1
  O2-  O208  1  0.45597516  0.89627750  0.02381319  1
  O2-  O209  1  0.39472003  0.78533494  0.55490332  1
  O2-  O210  1  0.76624595  0.21569690  0.00379900  1
  O2-  O211  1  0.78427770  0.23424205  0.53123965  1
  O2-  O212  1  0.74275912  0.49091821  0.02986382  1
  O2-  O213  1  0.79166563  0.57548295  0.52952002  1
  O2-  O214  1  0.78851792  0.90914980  0.02771754  1
  O2-  O215  1  0.78394725  0.89616788  0.53110299  1
