# generated using pymatgen
data_H2O
_symmetry_space_group_name_H-M   'P 1'
_cell_length_a   13.51352473
_cell_length_b   13.50830371
_cell_length_c   14.68259276
_cell_angle_alpha   89.97646371
_cell_angle_beta   89.97588623
_cell_angle_gamma   119.98456613
_symmetry_Int_Tables_number   1
_chemical_formula_structural   H2O
_chemical_formula_sum   'H144 O72'
_cell_volume   2321.50815354
_cell_formula_units_Z   72
loop_
 _symmetry_equiv_pos_site_id
 _symmetry_equiv_pos_as_xyz
  1  'x, y, z'
loop_
 _atom_type_symbol
 _atom_type_oxidation_number
  H+  1.0
  O2-  -2.0
loop_
 _atom_site_type_symbol
 _atom_site_label
 _atom_site_symmetry_multiplicity
 _atom_site_fract_x
 _atom_site_fract_y
 _atom_site_fract_z
 _atom_site_occupancy
  H+  H0  1  0.85687114  0.06825759  0.97656802  1
  H+  H1  1  0.81156950  0.49433047  0.51523405  1
  H+  H2  1  0.97806780  0.18809864  0.75429420  1
  H+  H3  1  0.48312227  0.54806616  0.78752399  1
  H+  H4  1  0.45653119  0.64880891  1.00179045  1
  H+  H5  1  0.49059384  0.18915435  0.25068924  1
  H+  H6  1  0.28977583  0.80258202  0.98006768  1
  H+  H7  1  0.15281192  0.18589013  0.01100168  1
  H+  H8  1  0.14228859  -0.03258952  0.74349339  1
  H+  H9  1  0.29863027  0.48895044  0.76383768  1
  H+  H10  1  0.62906583  0.80214213  0.96924691  1
  H+  H11  1  0.29852890  0.48664587  0.52656607  1
  H+  H12  1  0.70008529  0.51768922  0.27454002  1
  H+  H13  1  0.81511703  0.95396938  0.24254119  1
  H+  H14  1  0.52488648  0.81948131  0.50660057  1
  H+  H15  1  0.52310865  0.33633997  0.75986218  1
  H+  H16  1  0.72414006  0.71126856  0.07359406  1
  H+  H17  1  0.96795867  0.48099215  0.25914024  1
  H+  H18  1  0.04619865  0.17413435  0.25060264  1
  H+  H19  1  0.68690753  0.18803137  1.01417014  1
  H+  H20  1  0.16582646  0.64873314  0.73061332  1
  H+  H21  1  0.04436291  0.38716906  0.40904818  1
  H+  H22  1  0.37164801  0.18377721  0.24573621  1
  H+  H23  1  0.70724060  0.84102810  0.50609465  1
  H+  H24  1  0.82203515  0.29596092  0.51203641  1
  H+  H25  1  0.62878489  0.81343525  0.27783382  1
  H+  H26  1  0.46725945  0.63630621  0.24939038  1
  H+  H27  1  0.43357711  0.20566540  0.66240222  1
  H+  H28  1  0.56293061  0.46277640  0.72942383  1
  H+  H29  1  0.19580251  0.42681718  0.17766602  1
  H+  H30  1  0.14611158  0.52679215  0.50439893  1
  H+  H31  1  0.19259575  0.04631955  1.00156377  1
  H+  H32  1  0.85601850  0.69136945  0.27981506  1
  H+  H33  1  0.31696000  0.49683186  0.23534604  1
  H+  H34  1  0.15966795  0.30992259  0.73555968  1
  H+  H35  1  0.14768468  0.17712377  0.50216133  1
  H+  H36  1  0.86184343  0.82920682  0.48787449  1
  H+  H37  1  0.36164738  0.17488377  0.51793907  1
  H+  H38  1  0.81532947  0.38832164  1.00484300  1
  H+  H39  1  0.47624417  0.16694598  0.75114048  1
  H+  H40  1  0.53155705  0.65002634  0.54650805  1
  H+  H41  1  0.72050764  0.47243251  0.75691497  1
  H+  H42  1  0.56343883  0.43927876  0.37117122  1
  H+  H43  1  0.87435320  0.71946981  0.99820821  1
  H+  H44  1  0.63221844  0.15570911  0.27419312  1
  H+  H45  1  0.69908468  0.19780224  0.74014020  1
  H+  H46  1  0.21969872  0.78613476  0.40374253  1
  H+  H47  1  0.19199954  0.02106703  0.25505270  1
  H+  H48  1  0.50906262  0.03243012  0.99193208  1
  H+  H49  1  0.15370719  0.85095788  0.51374828  1
  H+  H50  1  0.63927606  0.15245397  0.50373355  1
  H+  H51  1  0.18280022  1.03062126  0.49463741  1
  H+  H52  1  0.82335959  0.96284004  0.50564286  1
  H+  H53  1  0.63805499  0.46873479  0.51079658  1
  H+  H54  1  0.85751839  0.81168330  0.27490261  1
  H+  H55  1  0.36928942  0.85320140  0.50977424  1
  H+  H56  1  0.89783462  0.76368333  0.84770917  1
  H+  H57  1  -0.02696604  0.48795302  0.49501859  1
  H+  H58  1  0.86525389  0.67453439  0.76532434  1
  H+  H59  1  0.81317672  0.82050713  0.02934470  1
  H+  H60  1  0.29984149  0.82406119  0.26882508  1
  H+  H61  1  -0.00730472  0.83397434  0.49602119  1
  H+  H62  1  0.12513492  0.28274933  0.49004594  1
  H+  H63  1  0.36723566  0.85844155  0.74298564  1
  H+  H64  1  0.79641171  0.54830768  1.03810314  1
  H+  H65  1  0.15325163  0.47379177  -0.01553361  1
  H+  H66  1  0.16590337  0.28976939  0.24135976  1
  H+  H67  1  0.51758201  0.39252504  -0.00482211  1
  H+  H68  1  0.82599917  0.38816906  0.73739832  1
  H+  H69  1  0.79736306  0.17380138  0.23650159  1
  H+  H70  1  0.03707994  0.84701743  0.22075167  1
  H+  H71  1  0.78025084  0.52419922  0.61027556  1
  H+  H72  1  0.76358775  0.84931867  0.17171423  1
  H+  H73  1  0.84668601  0.36178578  0.25935853  1
  H+  H74  1  0.37592271  0.19683910  0.01669405  1
  H+  H75  1  0.18149392  0.82077238  0.25248480  1
  H+  H76  1  0.81031779  0.81875434  0.73560789  1
  H+  H77  1  0.15232290  0.92054750  -0.05883356  1
  H+  H78  1  0.17591510  0.81417124  0.98920183  1
  H+  H79  1  0.48925653  0.86286510  0.73430166  1
  H+  H80  1  0.51659250  0.82517831  0.27989384  1
  H+  H81  1  0.93210877  0.50097300  0.99635068  1
  H+  H82  1  0.81480895  0.20881741  1.01437595  1
  H+  H83  1  0.48795369  0.84619317  -0.02559127  1
  H+  H84  1  0.84316458  0.14264742  0.50151693  1
  H+  H85  1  0.51096024  0.15348683  0.99657377  1
  H+  H86  1  0.52005939  0.03229861  0.50089434  1
  H+  H87  1  0.48811901  0.98600341  0.27373755  1
  H+  H88  1  0.51912965  0.03541276  0.76267700  1
  H+  H89  1  0.48104268  0.17538072  0.52246772  1
  H+  H90  1  0.13252204  0.62753572  0.00232394  1
  H+  H91  1  0.82751598  0.21822132  0.74076647  1
  H+  H92  1  0.94348804  0.23006177  0.30188964  1
  H+  H93  1  0.16781708  0.36246431  0.98945604  1
  H+  H94  1  0.18551064  0.82413120  0.75841562  1
  H+  H95  1  0.17888389  0.15095053  0.76475246  1
  H+  H96  1  0.64655224  0.82474569  0.73911686  1
  H+  H97  1  0.18387972  0.70688491  0.49261621  1
  H+  H98  1  1.02926583  0.84161037  0.73950949  1
  H+  H99  1  0.15344995  0.52827932  0.23667381  1
  H+  H100  1  0.33366125  0.53848374  1.01358538  1
  H+  H101  1  0.52997010  0.37103654  0.27665739  1
  H+  H102  1  0.51829249  0.71640736  0.74846049  1
  H+  H103  1  0.51288858  0.35671064  0.51158991  1
  H+  H104  1  0.31653950  0.45242259  0.49766893  1
  H+  H105  1  0.97788181  0.17606601  0.99692758  1
  H+  H106  1  0.78891962  0.59252980  0.13602872  1
  H+  H107  1  0.19118985  0.13773453  0.26181265  1
  H+  H108  1  0.76019636  0.22216139  0.15030033  1
  H+  H109  1  0.22639695  0.10362581  0.40282315  1
  H+  H110  1  0.16004775  0.52703953  0.72979817  1
  H+  H111  1  0.09295141  0.55318568  0.09260675  1
  H+  H112  1  0.89443916  0.12365866  0.36589781  1
  H+  H113  1  0.52812730  0.52828389  0.54639507  1
  H+  H114  1  0.11758990  0.22645119  0.64879499  1
  H+  H115  1  0.78595018  0.86911381  0.64610559  1
  H+  H116  1  0.44322304  0.89406010  0.60143351  1
  H+  H117  1  0.29310383  0.14320772  0.76911079  1
  H+  H118  1  0.55995966  0.12186180  0.36946407  1
  H+  H119  1  0.45566356  0.23130953  0.10459357  1
  H+  H120  1  0.45421842  0.92046657  0.18136900  1
  H+  H121  1  -0.00557929  0.83380988  -0.01877565  1
  H+  H122  1  0.90797925  0.16892570  0.84551510  1
  H+  H123  1  0.77806642  0.22427575  0.60420936  1
  H+  H124  1  0.82090774  0.51889626  0.26549141  1
  H+  H125  1  0.89416333  0.43990683  0.40400918  1
  H+  H126  1  0.20804747  0.44147680  0.84497192  1
  H+  H127  1  0.12039561  0.57030267  0.60020965  1
  H+  H128  1  0.11125602  0.88995580  0.60411557  1
  H+  H129  1  0.11198612  0.21672416  0.10283968  1
  H+  H130  1  0.42755841  0.58161867  0.14915160  1
  H+  H131  1  0.22520348  0.12227845  0.91171972  1
  H+  H132  1  0.14761144  0.64322542  0.24257989  1
  H+  H133  1  0.11820251  0.89034563  0.13176470  1
  H+  H134  1  0.47301917  0.56838371  0.67839093  1
  H+  H135  1  0.96231786  0.14050797  0.49862417  1
  H+  H136  1  0.55467999  0.77257636  0.41776280  1
  H+  H137  1  0.91247046  0.78838432  0.39547189  1
  H+  H138  1  0.21746069  0.77727960  0.84775988  1
  H+  H139  1  0.55729708  0.11408789  0.85320009  1
  H+  H140  1  0.56359370  0.45275039  0.90348378  1
  H+  H141  1  0.42797785  0.83077824  0.06629209  1
  H+  H142  1  0.57002614  0.79435333  0.86988187  1
  H+  H143  1  0.15641090  0.41345215  0.35519326  1
  O2-  O144  1  0.12331655  0.20738568  0.22309804  1
  O2-  O145  1  0.11941468  0.22741640  0.71630887  1
  O2-  O146  1  0.10613551  0.56245268  0.21960481  1
  O2-  O147  1  0.12850192  0.57219597  0.70137479  1
  O2-  O148  1  0.11755387  0.88798537  0.19925859  1
  O2-  O149  1  0.10977684  0.88946998  0.71599910  1
  O2-  O150  1  0.45206472  0.22873842  0.22381564  1
  O2-  O151  1  0.43345301  0.20661507  0.73081337  1
  O2-  O152  1  0.42650678  0.56270557  0.21603279  1
  O2-  O153  1  0.44299204  0.56918162  0.74348055  1
  O2-  O154  1  0.44799220  0.90521884  0.24659656  1
  O2-  O155  1  0.44624686  0.90266574  0.71649806  1
  O2-  O156  1  0.76166376  0.21938108  0.21981739  1
  O2-  O157  1  0.77665936  0.24685915  0.71372259  1
  O2-  O158  1  0.78415584  0.56528367  0.25291410  1
  O2-  O159  1  0.79872950  0.51959617  0.72903339  1
  O2-  O160  1  0.77230849  0.87070088  0.23856040  1
  O2-  O161  1  0.77368161  0.86164602  0.71265956  1
  O2-  O162  1  0.23085007  0.09735965  0.28540878  1
  O2-  O163  1  0.21235357  0.10580250  0.79141341  1
  O2-  O164  1  0.22061644  0.43810384  0.24124836  1
  O2-  O165  1  0.21510225  0.44376273  0.77700688  1
  O2-  O166  1  0.21695447  0.78032976  0.28409124  1
  O2-  O167  1  0.22895379  0.78679531  0.78005487  1
  O2-  O168  1  0.55353373  0.11632159  0.30079661  1
  O2-  O169  1  0.55905473  0.11647599  0.78514215  1
  O2-  O170  1  0.57502259  0.44790071  0.30402578  1
  O2-  O171  1  0.58012558  0.41977252  0.77369071  1
  O2-  O172  1  0.54847612  0.77655063  0.29995986  1
  O2-  O173  1  0.56582255  0.79967528  0.76192344  1
  O2-  O174  1  0.90895664  0.14706469  0.29869161  1
  O2-  O175  1  0.90108897  0.16560074  0.77868686  1
  O2-  O176  1  0.89060563  0.43876193  0.28792542  1
  O2-  O177  1  0.86661628  0.46944742  0.76052529  1
  O2-  O178  1  0.90478034  0.77769947  0.29427930  1
  O2-  O179  1  0.89535071  0.75625699  0.77937925  1
  O2-  O180  1  0.22318881  0.11052059  0.47057721  1
  O2-  O181  1  0.22954984  0.12830294  0.97973889  1
  O2-  O182  1  0.11865855  0.39253522  0.41564746  1
  O2-  O183  1  0.20076827  0.44035756  0.96279469  1
  O2-  O184  1  0.22469870  0.78892847  0.47163305  1
  O2-  O185  1  0.20773098  0.76356710  0.96407199  1
  O2-  O186  1  0.55823216  0.11454889  0.48122633  1
  O2-  O187  1  0.55159825  0.11295243  0.97184566  1
  O2-  O188  1  0.55622531  0.43709160  0.48958957  1
  O2-  O189  1  0.53116039  0.46070908  0.96080670  1
  O2-  O190  1  0.56626839  0.77983972  0.48515729  1
  O2-  O191  1  0.55808402  0.78601927  0.93860235  1
  O2-  O192  1  0.88190288  0.10204935  0.47417526  1
  O2-  O193  1  0.89928029  0.15126350  0.97182225  1
  O2-  O194  1  0.89440447  0.43329945  0.47181385  1
  O2-  O195  1  0.84925797  0.46929202  0.98760078  1
  O2-  O196  1  0.91156074  0.79465006  0.46661335  1
  O2-  O197  1  0.91020891  0.79212813  0.96234582  1
  O2-  O198  1  0.10921036  0.22314244  0.03558975  1
  O2-  O199  1  0.10179804  0.21186576  0.52502629  1
  O2-  O200  1  0.08785962  0.54681009  0.02548975  1
  O2-  O201  1  0.11237910  0.57059343  0.52924398  1
  O2-  O202  1  0.13016944  0.89920839  0.00461478  1
  O2-  O203  1  0.11119430  0.89059967  0.53497723  1
  O2-  O204  1  0.45676974  0.22997608  0.03655233  1
  O2-  O205  1  0.43856567  0.21254864  0.54722007  1
  O2-  O206  1  0.39715728  0.60305871  0.04681797  1
  O2-  O207  1  0.52400688  0.58689011  0.58565127  1
  O2-  O208  1  0.44135188  0.87364069  0.00982093  1
  O2-  O209  1  0.44931079  0.89207717  0.53322663  1
  O2-  O210  1  0.76463597  0.23496855  0.04198702  1
  O2-  O211  1  0.77932613  0.21567745  0.53565105  1
  O2-  O212  1  0.78510190  0.60728448  0.07019306  1
  O2-  O213  1  0.76936639  0.52841492  0.54404135  1
  O2-  O214  1  0.74188087  0.79157216  0.06644745  1
  O2-  O215  1  0.79101180  0.88024448  0.52195595  1
