# generated using pymatgen
data_H2O
_symmetry_space_group_name_H-M   'P 1'
_cell_length_a   13.52527463
_cell_length_b   13.52032275
_cell_length_c   14.68092566
_cell_angle_alpha   89.95683312
_cell_angle_beta   90.09024816
_cell_angle_gamma   119.98904243
_symmetry_Int_Tables_number   1
_chemical_formula_structural   H2O
_chemical_formula_sum   'H144 O72'
_cell_volume   2325.22308243
_cell_formula_units_Z   72
loop_
 _symmetry_equiv_pos_site_id
 _symmetry_equiv_pos_as_xyz
  1  'x, y, z'
loop_
 _atom_type_symbol
 _atom_type_oxidation_number
  H+  1.0
  O2-  -2.0
loop_
 _atom_site_type_symbol
 _atom_site_label
 _atom_site_symmetry_multiplicity
 _atom_site_fract_x
 _atom_site_fract_y
 _atom_site_fract_z
 _atom_site_occupancy
  H+  H0  1  0.93448471  0.48881494  0.28200771  1
  H+  H1  1  0.72634563  0.83409398  0.02030479  1
  H+  H2  1  0.86234545  0.09648264  0.39492975  1
  H+  H3  1  0.74105973  0.91840698  0.75151363  1
  H+  H4  1  0.82625674  0.32634627  0.54015077  1
  H+  H5  1  0.50721775  0.03053261  0.75870263  1
  H+  H6  1  0.53030769  0.70989880  0.75395699  1
  H+  H7  1  0.14916446  0.57325935  0.07099260  1
  H+  H8  1  0.49041395  1.03657405  -0.00652865  1
  H+  H9  1  0.52047423  0.82280471  0.25493831  1
  H+  H10  1  0.18167380  0.47643319  0.48902204  1
  H+  H11  1  0.96036966  0.44782836  0.81101582  1
  H+  H12  1  0.95243475  0.79165190  0.50228214  1
  H+  H13  1  0.15040095  0.47122608  0.21116429  1
  H+  H14  1  0.10679278  0.57758565  0.21474636  1
  H+  H15  1  0.66336607  0.82132282  0.47939197  1
  H+  H16  1  0.81259676  0.62929470  0.01610319  1
  H+  H17  1  0.79803577  0.50501220  0.25185181  1
  H+  H18  1  0.59812582  0.88363706  0.97410395  1
  H+  H19  1  0.80179130  0.49376261  0.75318109  1
  H+  H20  1  0.17301835  0.76781895  0.26685400  1
  H+  H21  1  0.51035497  0.15026025  0.75471164  1
  H+  H22  1  0.20023758  1.03052449  0.72904319  1
  H+  H23  1  0.76036285  0.53189264  0.66384025  1
  H+  H24  1  0.89947763  0.88606390  0.79327888  1
  H+  H25  1  0.03340773  0.62157846  0.16502265  1
  H+  H26  1  0.86209272  0.81916020  0.25736906  1
  H+  H27  1  0.19259743  0.14349666  0.74545592  1
  H+  H28  1  0.17337423  0.70541468  0.96541458  1
  H+  H29  1  0.36779260  0.18033755  0.72450695  1
  H+  H30  1  0.18641889  0.30913520  0.23750541  1
  H+  H31  1  0.20151429  0.16624262  0.25355606  1
  H+  H32  1  0.96486360  0.48435908  0.49928394  1
  H+  H33  1  0.05356210  0.89404667  0.69759613  1
  H+  H34  1  0.62230221  0.47721347  0.49575153  1
  H+  H35  1  0.16860177  0.34901110  0.74062171  1
  H+  H36  1  0.80490065  0.50657341  1.02171906  1
  H+  H37  1  0.41736783  0.52878225  0.08304499  1
  H+  H38  1  0.49311118  0.31735699  0.24586793  1
  H+  H39  1  0.17032136  0.82508521  0.97114825  1
  H+  H40  1  0.86337794  0.81495814  1.00910420  1
  H+  H41  1  0.53040713  0.16946219  0.51453523  1
  H+  H42  1  0.70276679  0.18376521  0.24960242  1
  H+  H43  1  0.83969079  0.34317661  1.00582646  1
  H+  H44  1  0.26435197  0.78893416  0.52241335  1
  H+  H45  1  0.53646398  0.11400927  0.90346860  1
  H+  H46  1  0.52057550  0.65992399  0.21973461  1
  H+  H47  1  0.02195745  0.13331837  0.73195796  1
  H+  H48  1  0.44370569  0.46924384  0.00176272  1
  H+  H49  1  0.96147653  0.13508243  0.97541768  1
  H+  H50  1  0.46889859  0.49831761  0.51840960  1
  H+  H51  1  0.86495212  0.70443913  0.25553354  1
  H+  H52  1  0.32406907  0.15494852  0.49098346  1
  H+  H53  1  0.20138972  0.51255723  0.18293505  1
  H+  H54  1  0.93627502  0.78973988  0.77855358  1
  H+  H55  1  -0.04944519  0.14282758  0.47577066  1
  H+  H56  1  0.84369603  0.80594234  0.51348714  1
  H+  H57  1  0.55380566  0.83177220  0.48069066  1
  H+  H58  1  0.82519561  -0.02644646  0.50656600  1
  H+  H59  1  0.52657885  0.15379931  0.25327968  1
  H+  H60  1  0.63178292  0.47414255  0.76821007  1
  H+  H61  1  0.45239638  0.86488521  0.01062886  1
  H+  H62  1  0.68903615  0.17672252  0.75459033  1
  H+  H63  1  0.14534245  0.51367636  -0.02083058  1
  H+  H64  1  0.03466744  0.86808242  0.21326569  1
  H+  H65  1  0.83238482  0.35614328  0.27956672  1
  H+  H66  1  0.15399796  -0.01455407  0.21648255  1
  H+  H67  1  0.36345540  0.85869196  0.25092515  1
  H+  H68  1  0.34615816  0.48303126  0.28411339  1
  H+  H69  1  0.52217237  0.54078096  0.22179701  1
  H+  H70  1  0.37576886  0.19507183  0.24241888  1
  H+  H71  1  0.49185083  0.51917399  0.75502051  1
  H+  H72  1  0.50563281  0.35737620  0.48224283  1
  H+  H73  1  0.82615735  0.19500319  0.25241216  1
  H+  H74  1  0.12478392  0.29484334  -0.00900279  1
  H+  H75  1  0.69772251  0.17021791  -0.00513192  1
  H+  H76  1  0.48091463  0.85088603  0.73024344  1
  H+  H77  1  0.17693742  0.47172810  0.73689911  1
  H+  H78  1  0.37483036  0.52054030  0.74800842  1
  H+  H79  1  0.86950973  1.01750781  0.25117638  1
  H+  H80  1  0.59982345  0.66619376  1.07727424  1
  H+  H81  1  0.88891588  0.06554618  0.88680814  1
  H+  H82  1  0.42361993  0.88641993  0.48572546  1
  H+  H83  1  0.06191778  0.19745897  0.22527938  1
  H+  H84  1  0.81259626  0.16475083  0.98074138  1
  H+  H85  1  0.69700866  0.20135905  0.54331046  1
  H+  H86  1  0.80126065  0.50721624  0.52533010  1
  H+  H87  1  0.80627573  0.29236084  0.77136854  1
  H+  H88  1  0.63668822  0.49019719  0.26527867  1
  H+  H89  1  0.14079737  0.62708115  0.49623855  1
  H+  H90  1  0.50253447  0.31807533  0.01678266  1
  H+  H91  1  0.17941340  0.83063453  0.73361873  1
  H+  H92  1  0.45912251  0.20785079  0.42783708  1
  H+  H93  1  0.33212584  0.85659985  1.00121732  1
  H+  H94  1  0.79856371  0.62408753  0.53059041  1
  H+  H95  1  0.54992096  0.42987735  0.90213952  1
  H+  H96  1  0.15768647  0.80876736  0.49542295  1
  H+  H97  1  0.20506813  0.09698920  0.54900539  1
  H+  H98  1  0.51005286  0.36059029  0.76087771  1
  H+  H99  1  0.55081592  0.05843644  0.51873629  1
  H+  H100  1  0.49627969  0.18796381  0.01881326  1
  H+  H101  1  0.16119327  0.65757992  0.72744505  1
  H+  H102  1  0.54794816  0.83540542  -0.05079194  1
  H+  H103  1  0.70560656  0.85759252  0.24005201  1
  H+  H104  1  0.14501989  0.94277114  0.48920680  1
  H+  H105  1  0.97287330  0.07681185  0.31822686  1
  H+  H106  1  0.95604687  0.46874388  1.01043710  1
  H+  H107  1  0.03978215  0.55052717  0.70928047  1
  H+  H108  1  0.11009675  0.22379113  0.08064759  1
  H+  H109  1  0.13974309  0.29351809  0.49593874  1
  H+  H110  1  0.23192713  0.80219656  0.36277608  1
  H+  H111  1  0.87150438  0.43065119  0.88625769  1
  H+  H112  1  0.29742464  0.47018287  0.50934565  1
  H+  H113  1  0.46077160  0.89652905  0.59208198  1
  H+  H114  1  0.80114502  0.91844274  0.60459344  1
  H+  H115  1  0.11972868  0.88719198  0.59841646  1
  H+  H116  1  0.36066553  0.85063020  0.72608433  1
  H+  H117  1  0.57260030  0.78807718  0.34125766  1
  H+  H118  1  0.46511688  0.23914222  0.11932949  1
  H+  H119  1  0.57176791  0.79878368  0.83427088  1
  H+  H120  1  0.82946183  0.96669835  0.00786013  1
  H+  H121  1  0.25822627  0.43050387  0.36817446  1
  H+  H122  1  0.44036742  0.54242077  0.61070834  1
  H+  H123  1  0.78515487  0.24153151  0.63829552  1
  H+  H124  1  0.55102230  0.45242524  0.35161245  1
  H+  H125  1  0.21509581  0.79199978  0.82775422  1
  H+  H126  1  0.86964502  0.43569907  0.41999114  1
  H+  H127  1  0.21831781  0.06213956  0.89565048  1
  H+  H128  1  0.54154949  0.65187657  0.98556082  1
  H+  H129  1  0.22853780  0.11733923  0.34419196  1
  H+  H130  1  0.12121396  0.90871876  0.07512113  1
  H+  H131  1  0.76770836  0.54843185  0.15802216  1
  H+  H132  1  0.52065165  1.03314001  0.25199057  1
  H+  H133  1  0.27285165  0.46484608  0.97196264  1
  H+  H134  1  0.08726989  0.19397081  0.63980413  1
  H+  H135  1  0.20171738  0.43359931  0.87777790  1
  H+  H136  1  0.79037299  0.89272292  0.15294263  1
  H+  H137  1  1.03543086  0.85445686  0.99116958  1
  H+  H138  1  0.62853607  0.48140216  -0.00676161  1
  H+  H139  1  0.88183552  0.77516667  0.91305979  1
  H+  H140  1  0.13946609  0.17640433  0.48500315  1
  H+  H141  1  0.11848752  0.55594046  0.58672300  1
  H+  H142  1  0.42488354  0.88755330  0.15412166  1
  H+  H143  1  0.45479422  0.22735000  0.64017355  1
  O2-  O144  1  0.14189422  0.23517419  0.20341998  1
  O2-  O145  1  0.09541366  0.19767122  0.70700196  1
  O2-  O146  1  0.05716607  0.60991374  0.22497424  1
  O2-  O147  1  0.12059000  0.57392093  0.70714745  1
  O2-  O148  1  0.10816176  0.91621394  0.17985823  1
  O2-  O149  1  0.12845366  0.90485176  0.68290183  1
  O2-  O150  1  0.45699846  0.23740647  0.21990954  1
  O2-  O151  1  0.45197135  0.22470090  0.70688975  1
  O2-  O152  1  0.49781769  0.58744640  0.18521037  1
  O2-  O153  1  0.45687327  0.56515097  0.73275749  1
  O2-  O154  1  0.43980617  0.88651620  0.22005350  1
  O2-  O155  1  0.44191816  0.89113508  0.70492884  1
  O2-  O156  1  0.78671781  0.23619055  0.23649552  1
  O2-  O157  1  0.77125859  0.21944324  0.73723614  1
  O2-  O158  1  0.76823523  0.55347896  0.22594516  1
  O2-  O159  1  0.75849505  0.52986269  0.73219784  1
  O2-  O160  1  0.78787502  0.89336691  0.22154382  1
  O2-  O161  1  0.80632462  0.98027875  0.71904084  1
  O2-  O162  1  0.23993810  0.12412258  0.27809619  1
  O2-  O163  1  0.23910116  0.10770953  0.76065048  1
  O2-  O164  1  0.27498092  0.41720651  0.30422986  1
  O2-  O165  1  0.21257538  0.42961820  0.76259502  1
  O2-  O166  1  0.24233969  0.82509242  0.29779288  1
  O2-  O167  1  0.21822478  0.78883306  0.75955450  1
  O2-  O168  1  0.56698551  0.11361590  0.27278555  1
  O2-  O169  1  0.54454980  0.10828210  0.78599583  1
  O2-  O170  1  0.55359914  0.45119046  0.28292184  1
  O2-  O171  1  0.54914439  0.43708670  0.79067663  1
  O2-  O172  1  0.56705182  0.78715914  0.27197513  1
  O2-  O173  1  0.56672444  0.79374550  0.76793646  1
  O2-  O174  1  0.92805240  0.09608565  0.27744697  1
  O2-  O175  1  0.90485232  0.01028618  0.77978786  1
  O2-  O176  1  0.85824288  0.43558308  0.30672164  1
  O2-  O177  1  0.88186259  0.43116855  0.81737628  1
  O2-  O178  1  0.91255599  0.78691436  0.26840431  1
  O2-  O179  1  0.87927562  0.80409154  0.80569279  1
  O2-  O180  1  0.23072988  0.10852112  0.48586255  1
  O2-  O181  1  0.24337325  0.07705065  0.96047570  1
  O2-  O182  1  0.22027556  0.43183230  0.47613969  1
  O2-  O183  1  0.19494933  0.43843983  0.94531853  1
  O2-  O184  1  0.20456819  0.76362732  0.47662138  1
  O2-  O185  1  0.21367121  0.78596881  0.94500335  1
  O2-  O186  1  0.58862655  0.14260846  0.51344634  1
  O2-  O187  1  0.54047131  0.11682498  0.97172531  1
  O2-  O188  1  0.54497225  0.44176364  0.46662211  1
  O2-  O189  1  0.54813438  0.43106360  0.97123362  1
  O2-  O190  1  0.58755315  0.79101215  0.44992492  1
  O2-  O191  1  0.61671751  0.69589192  1.01447829  1
  O2-  O192  1  0.86748801  0.09750136  0.46161900  1
  O2-  O193  1  0.88108983  0.08603526  0.95081637  1
  O2-  O194  1  0.88031616  0.44300528  0.48808892  1
  O2-  O195  1  0.87366900  0.42937177  0.99553920  1
  O2-  O196  1  0.86835303  0.75039509  0.49656356  1
  O2-  O197  1  0.89271395  0.76746310  0.98020920  1
  O2-  O198  1  0.08898063  0.21637593  0.01551288  1
  O2-  O199  1  0.09358515  0.20903992  0.50917994  1
  O2-  O200  1  0.11386253  0.56008010  0.01101489  1
  O2-  O201  1  0.10624907  0.54607586  0.51987608  1
  O2-  O202  1  0.11923898  0.89304524  0.00674631  1
  O2-  O203  1  0.10609281  0.86783263  0.51983588  1
  O2-  O204  1  0.46726334  0.23839768  0.04791612  1
  O2-  O205  1  0.44457190  0.21605373  0.49177971  1
  O2-  O206  1  0.39789253  0.50564515  0.01828439  1
  O2-  O207  1  0.42140419  0.52827546  0.54533150  1
  O2-  O208  1  0.40936653  0.90029422  0.03292518  1
  O2-  O209  1  0.48819461  0.91178214  0.52694550  1
  O2-  O210  1  0.78040186  0.21031780  0.00716788  1
  O2-  O211  1  0.78522227  0.24592925  0.56708235  1
  O2-  O212  1  0.76474896  0.54860945  0.03909826  1
  O2-  O213  1  0.75475859  0.53969278  0.54899431  1
  O2-  O214  1  0.80284349  0.89288606  0.04250998  1
  O2-  O215  1  0.79519960  0.89807836  0.53950349  1
