# generated using pymatgen
data_H2O
_symmetry_space_group_name_H-M   'P 1'
_cell_length_a   13.51480633
_cell_length_b   13.53192753
_cell_length_c   14.70647303
_cell_angle_alpha   90.09224760
_cell_angle_beta   89.93346328
_cell_angle_gamma   120.03157237
_symmetry_Int_Tables_number   1
_chemical_formula_structural   H2O
_chemical_formula_sum   'H144 O72'
_cell_volume   2328.46544064
_cell_formula_units_Z   72
loop_
 _symmetry_equiv_pos_site_id
 _symmetry_equiv_pos_as_xyz
  1  'x, y, z'
loop_
 _atom_type_symbol
 _atom_type_oxidation_number
  H+  1.0
  O2-  -2.0
loop_
 _atom_site_type_symbol
 _atom_site_label
 _atom_site_symmetry_multiplicity
 _atom_site_fract_x
 _atom_site_fract_y
 _atom_site_fract_z
 _atom_site_occupancy
  H+  H0  1  0.62591534  0.48405867  0.98066579  1
  H+  H1  1  0.81379967  0.86816941  -0.00401323  1
  H+  H2  1  0.30272351  0.49209197  0.98827287  1
  H+  H3  1  0.36355558  0.20510215  0.73825700  1
  H+  H4  1  0.30546296  0.15218144  -0.01379784  1
  H+  H5  1  0.16085154  0.84465844  0.72918753  1
  H+  H6  1  0.63637895  0.48746059  0.25513126  1
  H+  H7  1  0.85321765  0.35883573  0.52835851  1
  H+  H8  1  0.48978059  0.51784772  0.51359715  1
  H+  H9  1  0.82097710  0.64367766  0.74332610  1
  H+  H10  1  0.19337025  0.71481690  0.27709131  1
  H+  H11  1  0.15906067  0.97237861  0.24578621  1
  H+  H12  1  0.82481390  0.54135546  0.22425730  1
  H+  H13  1  0.32064353  0.99409527  0.56826908  1
  H+  H14  1  0.63046897  0.14082546  0.25962788  1
  H+  H15  1  0.18930382  0.14991003  0.25104286  1
  H+  H16  1  0.15301916  0.30320581  1.00835207  1
  H+  H17  1  1.05035563  0.82375072  0.67089773  1
  H+  H18  1  0.48266995  0.67299762  0.48571301  1
  H+  H19  1  0.30946555  0.48634947  0.49398080  1
  H+  H20  1  1.00015418  0.17072208  0.47814147  1
  H+  H21  1  0.81388568  0.95802887  0.23824106  1
  H+  H22  1  0.18595232  0.48080871  0.75603963  1
  H+  H23  1  0.13178072  0.30550586  0.75757215  1
  H+  H24  1  0.18627837  0.15299448  0.99066927  1
  H+  H25  1  0.47809930  0.54042453  0.73866465  1
  H+  H26  1  0.19384873  0.47548642  0.26928937  1
  H+  H27  1  0.63062499  0.80328144  0.25692919  1
  H+  H28  1  0.88258589  0.42167367  0.18673933  1
  H+  H29  1  0.80837853  0.50111197  0.99289152  1
  H+  H30  1  0.31026160  0.15319151  0.24830080  1
  H+  H31  1  0.82995768  0.17749827  0.49777943  1
  H+  H32  1  0.03788869  0.85412095  0.24798254  1
  H+  H33  1  0.86301835  0.77015783  1.06186115  1
  H+  H34  1  0.51626182  0.03683241  0.49147540  1
  H+  H35  1  0.30980112  0.62128286  0.68414513  1
  H+  H36  1  -0.04468288  0.47346515  -0.03938915  1
  H+  H37  1  0.80583184  0.80724116  0.48631505  1
  H+  H38  1  0.22170368  0.05829356  0.48388638  1
  H+  H39  1  0.18294435  0.83098734  0.27669873  1
  H+  H40  1  0.41044096  0.79490300  0.47962522  1
  H+  H41  1  0.13967816  0.64258328  -0.02046803  1
  H+  H42  1  0.89235419  0.04635144  0.47772693  1
  H+  H43  1  0.19054031  0.58696994  0.63693675  1
  H+  H44  1  -0.06981089  0.45482068  0.73330454  1
  H+  H45  1  0.81966904  0.62400397  -0.00468976  1
  H+  H46  1  0.51290938  0.80389006  0.26579849  1
  H+  H47  1  0.70767421  0.17386670  0.50087624  1
  H+  H48  1  0.63706946  0.81376489  0.51647541  1
  H+  H49  1  0.40220666  0.91440048  0.74514011  1
  H+  H50  1  0.48724672  0.52440068  0.00106164  1
  H+  H51  1  0.96827819  0.83053624  0.79149219  1
  H+  H52  1  0.62647316  0.82495119  0.78464679  1
  H+  H53  1  0.17719843  0.03728621  0.75784847  1
  H+  H54  1  0.84288918  0.14438004  0.75355999  1
  H+  H55  1  0.51103160  0.02884850  0.27091888  1
  H+  H56  1  0.18257416  0.48916322  -0.01100941  1
  H+  H57  1  0.18945701  0.48524382  0.48908063  1
  H+  H58  1  0.47922888  0.62113253  0.23599444  1
  H+  H59  1  0.19595508  0.93031670  0.60766135  1
  H+  H60  1  0.48737515  0.97777605  -0.03814409  1
  H+  H61  1  0.24217950  0.79219569  0.39885163  1
  H+  H62  1  0.23362546  0.84442001  0.50481316  1
  H+  H63  1  0.68927711  0.52670981  0.50750931  1
  H+  H64  1  0.80904970  0.66531906  0.50255013  1
  H+  H65  1  0.36333267  0.85028279  0.26800066  1
  H+  H66  1  0.61433191  0.10318390  0.73387377  1
  H+  H67  1  0.53183580  0.37762722  0.49038315  1
  H+  H68  1  0.16051047  0.30947157  0.50147917  1
  H+  H69  1  0.85086840  0.70737737  0.25499258  1
  H+  H70  1  0.14415498  0.18091405  0.75364681  1
  H+  H71  1  0.29427359  0.82014766  0.96285809  1
  H+  H72  1  0.48716151  0.66243057  0.74086505  1
  H+  H73  1  0.81633813  0.18260765  0.00147561  1
  H+  H74  1  0.23631968  0.73282157  0.73935449  1
  H+  H75  1  0.38401547  0.20825659  0.50011966  1
  H+  H76  1  0.50659345  0.82017289  -0.00545947  1
  H+  H77  1  -0.02778698  0.15823251  -0.01261869  1
  H+  H78  1  0.15101648  0.29128650  0.24139811  1
  H+  H79  1  0.01521284  0.17160423  0.74834232  1
  H+  H80  1  0.52161124  0.84305999  0.77757731  1
  H+  H81  1  0.81278547  -0.01408635  0.99812108  1
  H+  H82  1  0.98253301  0.83183803  1.01232080  1
  H+  H83  1  0.81437216  0.25753932  0.23618431  1
  H+  H84  1  0.80824589  0.51950393  0.72922238  1
  H+  H85  1  0.85100006  0.82378498  0.25492393  1
  H+  H86  1  0.16190235  0.19244360  0.49773097  1
  H+  H87  1  1.03473687  0.51153156  0.53422867  1
  H+  H88  1  0.84411476  0.02674381  0.76121072  1
  H+  H89  1  0.45155151  0.56620099  0.60166940  1
  H+  H90  1  0.14941449  0.62785737  0.50565220  1
  H+  H91  1  0.62554441  0.49934242  0.75673755  1
  H+  H92  1  0.03365503  0.17092826  0.23566123  1
  H+  H93  1  0.84618732  0.12436549  0.25096901  1
  H+  H94  1  0.48433484  0.30209311  -0.00441563  1
  H+  H95  1  0.17897372  0.82378743  0.97834506  1
  H+  H96  1  0.50849570  0.69073111  1.01413043  1
  H+  H97  1  0.51511291  0.47917310  0.25778623  1
  H+  H98  1  0.15849456  0.97673108  0.01411516  1
  H+  H99  1  0.49040211  0.30294370  0.23355862  1
  H+  H100  1  0.07333079  0.54251079  0.22202219  1
  H+  H101  1  0.51945589  0.15314559  0.96219694  1
  H+  H102  1  0.50601325  0.38196401  0.75542691  1
  H+  H103  1  0.77072343  0.88873848  0.14546165  1
  H+  H104  1  0.55436529  0.10627517  0.87260451  1
  H+  H105  1  0.63648355  0.82813924  1.00801029  1
  H+  H106  1  0.80703034  0.84445649  0.75659307  1
  H+  H107  1  0.73737852  0.93500357  0.53901501  1
  H+  H108  1  0.07187445  0.56850960  0.06380395  1
  H+  H109  1  0.55799696  0.11453576  0.40349111  1
  H+  H110  1  0.42979413  0.91667727  0.05045648  1
  H+  H111  1  0.43569066  0.87154991  0.17979154  1
  H+  H112  1  0.19241141  0.59402074  0.16788565  1
  H+  H113  1  0.88046267  0.77752161  0.87160165  1
  H+  H114  1  0.74952599  0.86537834  0.66891466  1
  H+  H115  1  0.49893728  0.20196099  0.51032748  1
  H+  H116  1  0.12503380  0.89574688  0.10340865  1
  H+  H117  1  0.44387352  0.55235923  0.09554159  1
  H+  H118  1  0.44611923  0.24670007  0.65241594  1
  H+  H119  1  0.11244167  0.22085660  0.09518152  1
  H+  H120  1  0.23158122  0.43271355  0.35514426  1
  H+  H121  1  0.90002794  0.44351907  0.29249530  1
  H+  H122  1  0.19131541  0.42934662  0.85440766  1
  H+  H123  1  0.86314576  0.77763453  0.39978243  1
  H+  H124  1  0.45457650  0.22272190  0.08312873  1
  H+  H125  1  0.77190437  0.19627629  0.63980844  1
  H+  H126  1  0.76740371  0.19859620  0.13917579  1
  H+  H127  1  0.56890004  0.45614776  0.39988374  1
  H+  H128  1  0.24064874  0.12550914  0.39037831  1
  H+  H129  1  0.89866694  0.10314164  0.34230679  1
  H+  H130  1  0.36337402  0.49974656  0.23760155  1
  H+  H131  1  0.22950586  0.79287741  0.83137725  1
  H+  H132  1  0.86453508  0.42624826  0.82800404  1
  H+  H133  1  0.77504376  0.57915445  0.60170228  1
  H+  H134  1  0.89275341  0.11955927  0.89702869  1
  H+  H135  1  0.52863498  0.75306794  0.39641983  1
  H+  H136  1  0.21614389  0.10890116  0.85072280  1
  H+  H137  1  0.77144711  0.56111307  0.13641442  1
  H+  H138  1  0.69543023  0.17821157  -0.00440535  1
  H+  H139  1  0.83853672  0.35326041  0.97410410  1
  H+  H140  1  0.54567803  0.45216338  0.89293081  1
  H+  H141  1  0.85317931  0.47589668  0.51494993  1
  H+  H142  1  0.78834711  0.27198183  0.72731539  1
  H+  H143  1  0.48884649  0.18463628  0.23467274  1
  O2-  O144  1  0.11398469  0.21385074  0.21273590  1
  O2-  O145  1  0.10028004  0.21953395  0.73189323  1
  O2-  O146  1  0.15816202  0.58561311  0.22802607  1
  O2-  O147  1  0.23313921  0.60954958  0.69614167  1
  O2-  O148  1  0.11919713  0.88915227  0.22718317  1
  O2-  O149  1  0.11589786  0.88215815  0.70468822  1
  O2-  O150  1  0.45052601  0.22414657  0.20748570  1
  O2-  O151  1  0.44390607  0.25226986  0.71938919  1
  O2-  O152  1  0.44186616  0.54194387  0.21036160  1
  O2-  O153  1  0.44829738  0.58658233  0.70931834  1
  O2-  O154  1  0.44374601  0.88253821  0.24533221  1
  O2-  O155  1  0.48446268  0.94735331  0.72977301  1
  O2-  O156  1  0.76476004  0.18431005  0.20709414  1
  O2-  O157  1  0.76213272  0.19241913  0.70778715  1
  O2-  O158  1  0.77547072  0.57126656  0.20404777  1
  O2-  O159  1  0.77825910  0.57059746  0.70969362  1
  O2-  O160  1  0.76985919  0.87849419  0.21219627  1
  O2-  O161  1  0.76720195  0.88438894  0.73414170  1
  O2-  O162  1  0.23103179  0.11113570  0.27433823  1
  O2-  O163  1  0.21127722  0.11487610  0.78290250  1
  O2-  O164  1  0.22816003  0.42882448  0.28628026  1
  O2-  O165  1  0.15508397  0.40983007  0.79313422  1
  O2-  O166  1  0.22651896  0.79334487  0.30329993  1
  O2-  O167  1  0.24462877  0.80537822  0.76468754  1
  O2-  O168  1  0.55347821  0.11134351  0.28706751  1
  O2-  O169  1  0.53514388  0.06717038  0.75991894  1
  O2-  O170  1  0.55894282  0.44345273  0.28261537  1
  O2-  O171  1  0.54684646  0.46307044  0.78078728  1
  O2-  O172  1  0.55024230  0.75840181  0.27972463  1
  O2-  O173  1  0.54476711  0.78942388  0.80145597  1
  O2-  O174  1  0.89269882  0.09185791  0.27430014  1
  O2-  O175  1  0.88688906  0.10896717  0.78028683  1
  O2-  O176  1  0.92327043  0.48051298  0.23295821  1
  O2-  O177  1  0.85435059  0.42423465  0.76031520  1
  O2-  O178  1  0.89143381  0.78557310  0.28181880  1
  O2-  O179  1  0.88644455  0.78214353  0.80481597  1
  O2-  O180  1  0.24703404  0.13446749  0.45829818  1
  O2-  O181  1  0.22277901  0.10889121  0.96791687  1
  O2-  O182  1  0.23121462  0.44693099  0.46596462  1
  O2-  O183  1  0.22098622  0.44660268  0.96992300  1
  O2-  O184  1  0.25281920  0.78603159  0.47208665  1
  O2-  O185  1  0.21106803  0.77948800  0.94813917  1
  O2-  O186  1  0.56145724  0.11651943  0.47180811  1
  O2-  O187  1  0.56006868  0.11251724  0.94076895  1
  O2-  O188  1  0.57204771  0.45969286  0.46824829  1
  O2-  O189  1  0.54468332  0.44814621  0.96185447  1
  O2-  O190  1  0.51130675  0.75342838  0.46248203  1
  O2-  O191  1  0.54941647  0.78112125  1.01629093  1
  O2-  O192  1  0.91447828  0.12218204  0.45504690  1
  O2-  O193  1  0.89083530  0.11987684  0.96527493  1
  O2-  O194  1  0.89530330  0.44224565  0.54230005  1
  O2-  O195  1  0.87239345  0.43077610  0.94543539  1
  O2-  O196  1  0.85136988  0.77137160  0.46736494  1
  O2-  O197  1  0.89632242  0.78835285  1.00082266  1
  O2-  O198  1  0.11147594  0.22130100  0.02696069  1
  O2-  O199  1  0.11555976  0.22678364  0.51751160  1
  O2-  O200  1  0.09666527  0.56143939  0.00313021  1
  O2-  O201  1  0.12133546  0.55330984  0.53461473  1
  O2-  O202  1  0.11821116  0.89479980  0.03575612  1
  O2-  O203  1  0.24071919  0.94739331  0.54955839  1
  O2-  O204  1  0.45020223  0.22077109  0.01540955  1
  O2-  O205  1  0.46188711  0.24650072  0.52868017  1
  O2-  O206  1  0.44886909  0.56608799  0.02771369  1
  O2-  O207  1  0.44404417  0.55314827  0.53326545  1
  O2-  O208  1  0.44070897  0.89733709  -0.01126013  1
  O2-  O209  1  0.38183035  0.85107647  0.49012244  1
  O2-  O210  1  0.77216553  0.21888038  0.02568217  1
  O2-  O211  1  0.78671364  0.21158005  0.52608627  1
  O2-  O212  1  0.77383674  0.54570003  0.01900520  1
  O2-  O213  1  0.77270219  0.57838114  0.53186091  1
  O2-  O214  1  0.76954830  0.90312131  0.01862490  1
  O2-  O215  1  0.71694278  0.85506320  0.54361618  1
