# generated using pymatgen
data_H2O
_symmetry_space_group_name_H-M   'P 1'
_cell_length_a   13.53293293
_cell_length_b   13.52262278
_cell_length_c   14.70868886
_cell_angle_alpha   90.03564084
_cell_angle_beta   90.02832655
_cell_angle_gamma   119.99625864
_symmetry_Int_Tables_number   1
_chemical_formula_structural   H2O
_chemical_formula_sum   'H144 O72'
_cell_volume   2331.16790797
_cell_formula_units_Z   72
loop_
 _symmetry_equiv_pos_site_id
 _symmetry_equiv_pos_as_xyz
  1  'x, y, z'
loop_
 _atom_type_symbol
 _atom_type_oxidation_number
  H+  1.0
  O2-  -2.0
loop_
 _atom_site_type_symbol
 _atom_site_label
 _atom_site_symmetry_multiplicity
 _atom_site_fract_x
 _atom_site_fract_y
 _atom_site_fract_z
 _atom_site_occupancy
  H+  H0  1  0.08587215  0.21361019  0.65157141  1
  H+  H1  1  0.17295485  0.03564347  0.98143738  1
  H+  H2  1  0.69276015  0.17674714  0.73811205  1
  H+  H3  1  0.24186715  0.73778033  0.51426967  1
  H+  H4  1  0.29140466  0.15452328  0.98285212  1
  H+  H5  1  0.29769120  0.46652193  0.77089915  1
  H+  H6  1  0.41684345  0.18242051  0.51060060  1
  H+  H7  1  0.52395933  0.48997754  0.77340275  1
  H+  H8  1  0.84033122  0.01342221  0.47880566  1
  H+  H9  1  -0.01611349  0.85321232  0.25951389  1
  H+  H10  1  0.22699855  0.48668353  0.47429363  1
  H+  H11  1  0.50564632  0.49060213  -0.00502866  1
  H+  H12  1  0.35918783  0.18952823  0.74533909  1
  H+  H13  1  0.50037043  0.85023468  0.52365516  1
  H+  H14  1  0.19130779  0.36481415  -0.00057565  1
  H+  H15  1  0.51791010  0.36820989  0.77312818  1
  H+  H16  1  0.89312855  0.47694782  0.95859251  1
  H+  H17  1  0.68756554  0.53772934  0.51694288  1
  H+  H18  1  0.72669924  0.19506067  0.51912423  1
  H+  H19  1  0.81945840  0.84748902  0.49570448  1
  H+  H20  1  0.49000104  0.51216418  0.52279275  1
  H+  H21  1  0.16358247  0.66067727  0.01555384  1
  H+  H22  1  0.03364165  -0.14875506  0.49481794  1
  H+  H23  1  0.51387713  0.70047721  0.50829131  1
  H+  H24  1  0.12102274  0.65105780  0.47787529  1
  H+  H25  1  0.28565038  0.15288840  0.25427991  1
  H+  H26  1  0.12389894  0.17151172  0.50538333  1
  H+  H27  1  0.14645306  0.85492209  0.75226892  1
  H+  H28  1  0.30285140  0.83017334  1.00406206  1
  H+  H29  1  0.40058014  0.88138387  0.51213880  1
  H+  H30  1  0.85461673  0.37871729  0.26676968  1
  H+  H31  1  0.15581713  0.63352571  0.23913091  1
  H+  H32  1  0.63236434  0.81550558  0.49511414  1
  H+  H33  1  0.80189869  0.16831384  0.25412779  1
  H+  H34  1  0.95483746  0.13674537  0.25816009  1
  H+  H35  1  0.02467164  0.51921416  0.71408146  1
  H+  H36  1  0.83127454  0.01378130  0.75278586  1
  H+  H37  1  0.83106948  0.17544636  0.51711271  1
  H+  H38  1  0.81623894  -0.00407535  0.25541141  1
  H+  H39  1  0.06418716  0.47695955  0.48702316  1
  H+  H40  1  0.12546653  0.28352816  0.23680540  1
  H+  H41  1  0.84710897  0.70615751  0.48740205  1
  H+  H42  1  0.46718387  0.20101161  0.21311823  1
  H+  H43  1  0.61350654  0.83316385  0.78748714  1
  H+  H44  1  0.25974690  0.14874532  0.50536414  1
  H+  H45  1  0.70222520  0.51364703  0.74796863  1
  H+  H46  1  0.46924271  0.51826533  0.24672684  1
  H+  H47  1  0.46991915  0.84938997  0.75941859  1
  H+  H48  1  0.51205255  0.70430511  0.99906423  1
  H+  H49  1  0.16371243  0.47036391  0.24445486  1
  H+  H50  1  0.60272313  0.45578628  0.25360981  1
  H+  H51  1  0.78875808  0.89018523  0.58656330  1
  H+  H52  1  0.17605393  0.35353697  0.76814980  1
  H+  H53  1  0.83074195  0.17461152  -0.00001449  1
  H+  H54  1  0.55587182  0.11686169  0.90789691  1
  H+  H55  1  0.50949692  0.82137023  0.00086438  1
  H+  H56  1  0.49747245  0.08391567  0.29515152  1
  H+  H57  1  0.86994481  0.73743206  0.25048763  1
  H+  H58  1  0.85936201  0.49574828  0.26306460  1
  H+  H59  1  0.83646971  0.67939357  -0.02003618  1
  H+  H60  1  0.84592375  0.35155556  0.74271118  1
  H+  H61  1  0.16753191  0.96683335  0.24933356  1
  H+  H62  1  0.18274865  0.82661700  0.00037503  1
  H+  H63  1  0.49921166  0.93083597  0.25648477  1
  H+  H64  1  0.46142032  0.63142995  0.24872470  1
  H+  H65  1  0.72910602  0.59987826  0.27242250  1
  H+  H66  1  0.52811143  0.36898127  0.49451068  1
  H+  H67  1  0.63376162  0.16095845  0.99664977  1
  H+  H68  1  0.86811184  0.97076877  0.03631347  1
  H+  H69  1  0.29437984  0.81952543  0.76318397  1
  H+  H70  1  0.82773262  0.13167705  0.75668214  1
  H+  H71  1  0.02804299  0.51925207  0.22522428  1
  H+  H72  1  0.60303062  0.84630173  0.25593629  1
  H+  H73  1  0.14866887  0.84613918  0.49298662  1
  H+  H74  1  0.37329027  0.50442245  0.54658004  1
  H+  H75  1  0.86530090  0.85478320  1.02504748  1
  H+  H76  1  0.83118716  0.83625898  0.73107535  1
  H+  H77  1  0.11846256  0.28805013  0.50318356  1
  H+  H78  1  0.88125903  0.75713566  0.88725007  1
  H+  H79  1  0.17247777  0.15522438  0.75214171  1
  H+  H80  1  0.88850762  0.35914310  0.97760656  1
  H+  H81  1  0.12724269  0.16571479  0.24064033  1
  H+  H82  1  0.53587223  0.77816300  0.87397727  1
  H+  H83  1  0.47520205  0.31036556  0.00010947  1
  H+  H84  1  0.50792027  0.03381039  0.77136602  1
  H+  H85  1  0.85628564  0.69499267  0.75128577  1
  H+  H86  1  0.79191300  0.47552447  0.46593540  1
  H+  H87  1  0.54670154  0.04110178  0.52050394  1
  H+  H88  1  0.81152784  0.86460214  0.23620421  1
  H+  H89  1  0.77137915  0.49958111  0.05072304  1
  H+  H90  1  0.36385851  0.51528379  0.00920230  1
  H+  H91  1  1.05889439  0.52164628  1.00431744  1
  H+  H92  1  0.20386599  0.80936393  0.26892599  1
  H+  H93  1  0.66677319  0.51490490  0.02439127  1
  H+  H94  1  -0.02482345  0.81969609  0.75957126  1
  H+  H95  1  0.70684074  0.80611255  0.70329477  1
  H+  H96  1  0.51041417  0.15370332  0.77212356  1
  H+  H97  1  0.47831098  0.19168358  1.00296761  1
  H+  H98  1  1.01002446  0.16944483  0.74143280  1
  H+  H99  1  0.13324898  0.17622626  0.00545730  1
  H+  H100  1  0.62906962  0.11945759  0.28362385  1
  H+  H101  1  0.48123222  0.97552959  0.02427904  1
  H+  H102  1  0.13551445  0.64096292  0.71143446  1
  H+  H103  1  0.48234608  0.63626426  0.76415645  1
  H+  H104  1  0.95461465  0.13821901  0.98018297  1
  H+  H105  1  0.27987341  0.46867624  0.25381189  1
  H+  H106  1  0.02147770  0.83687225  -0.00166427  1
  H+  H107  1  0.47739827  0.35665185  0.25137639  1
  H+  H108  1  0.44753785  0.88750455  0.10897937  1
  H+  H109  1  0.74308159  0.20116643  0.17539479  1
  H+  H110  1  0.45279596  0.22972333  0.66535770  1
  H+  H111  1  0.21303862  0.11213900  0.34797053  1
  H+  H112  1  0.44268398  0.56122451  0.09868371  1
  H+  H113  1  0.89034559  0.78617079  0.39645474  1
  H+  H114  1  0.77223599  0.56854608  0.60245292  1
  H+  H115  1  0.12042669  0.56976323  0.11082203  1
  H+  H116  1  0.38715169  0.81294730  0.24804089  1
  H+  H117  1  0.95852883  0.13625091  0.48128450  1
  H+  H118  1  0.14424113  -0.02713747  0.75017440  1
  H+  H119  1  0.90845872  0.43227663  0.82629441  1
  H+  H120  1  0.23158756  0.43616557  0.90787438  1
  H+  H121  1  0.57558686  0.10303284  0.42555225  1
  H+  H122  1  0.86734810  0.42248477  0.45792354  1
  H+  H123  1  0.54302236  0.44114267  0.40398373  1
  H+  H124  1  0.75890087  0.57987967  0.16937197  1
  H+  H125  1  0.78007073  0.21037136  0.65041252  1
  H+  H126  1  0.21597894  0.12339988  0.84247977  1
  H+  H127  1  0.08501193  0.20427872  0.09508643  1
  H+  H128  1  0.87868368  0.09676903  0.35562866  1
  H+  H129  1  0.41936188  0.23072878  0.12666062  1
  H+  H130  1  0.44478343  0.89271918  0.66577070  1
  H+  H131  1  0.16502378  0.01854928  0.48269963  1
  H+  H132  1  0.12942858  0.88352753  0.16432832  1
  H+  H133  1  0.81741358  0.50828174  0.73623554  1
  H+  H134  1  0.53625129  0.20148081  0.52774634  1
  H+  H135  1  0.03336278  0.92625395  0.06456452  1
  H+  H136  1  0.05289511  0.53831766  0.57564717  1
  H+  H137  1  0.55449318  0.45222093  0.90777304  1
  H+  H138  1  0.22640672  0.75121666  0.35427365  1
  H+  H139  1  0.17566514  0.42116653  0.38208413  1
  H+  H140  1  0.86594223  0.25717873  0.08393470  1
  H+  H141  1  0.21359330  0.77258189  0.84907852  1
  H+  H142  1  0.86694309  0.08819000  0.89590696  1
  H+  H143  1  0.46033368  0.56372262  0.67303726  1
  O2-  O144  1  0.08226946  0.20127838  0.21832327  1
  O2-  O145  1  0.09028915  0.21156917  0.71886309  1
  O2-  O146  1  0.11218412  0.55675960  0.20751059  1
  O2-  O147  1  0.09592666  0.56688411  0.67945818  1
  O2-  O148  1  0.13261982  0.88461473  0.23129675  1
  O2-  O149  1  0.10036081  0.89045191  0.73464755  1
  O2-  O150  1  0.41713260  0.23063157  0.19668710  1
  O2-  O151  1  0.44367130  0.22783740  0.73216636  1
  O2-  O152  1  0.42478802  0.55399769  0.22409734  1
  O2-  O153  1  0.45452894  0.55774400  0.74026827  1
  O2-  O154  1  0.46586293  0.85688732  0.22328673  1
  O2-  O155  1  0.43599495  0.89412312  0.73290385  1
  O2-  O156  1  0.75313548  0.20313917  0.24132763  1
  O2-  O157  1  0.77394657  0.21063550  0.71997006  1
  O2-  O158  1  0.78107014  0.58666913  0.23530015  1
  O2-  O159  1  0.77934002  0.55284901  0.71919153  1
  O2-  O160  1  0.76266355  0.90182069  0.22667441  1
  O2-  O161  1  0.78437140  0.87079188  0.70415630  1
  O2-  O162  1  0.20788619  0.10590019  0.28014095  1
  O2-  O163  1  0.22024599  0.12257143  0.77479705  1
  O2-  O164  1  0.19741141  0.42542378  0.27060639  1
  O2-  O165  1  0.22041724  0.42943865  0.79713827  1
  O2-  O166  1  0.23623338  0.76008113  0.28674553  1
  O2-  O167  1  0.21252700  0.77627681  0.78226257  1
  O2-  O168  1  0.55344479  0.06223984  0.31259829  1
  O2-  O169  1  0.55226522  0.11456393  0.79371537  1
  O2-  O170  1  0.52765231  0.43410287  0.27897709  1
  O2-  O171  1  0.56385923  0.44859814  0.79561296  1
  O2-  O172  1  0.66370869  0.83679098  0.28654792  1
  O2-  O173  1  0.53428622  0.77874175  0.80262255  1
  O2-  O174  1  0.87344033  0.09733165  0.28336190  1
  O2-  O175  1  0.86767819  0.09067515  0.78053648  1
  O2-  O176  1  0.89348046  0.45321205  0.23638550  1
  O2-  O177  1  0.88764029  0.43395368  0.76248282  1
  O2-  O178  1  0.90130390  0.81635075  0.27402046  1
  O2-  O179  1  0.88915345  0.77433415  0.77569178  1
  O2-  O180  1  0.19536813  0.10432209  0.46509300  1
  O2-  O181  1  0.21103760  0.11623021  0.96063832  1
  O2-  O182  1  0.16114011  0.41897561  0.44967958  1
  O2-  O183  1  0.23933439  0.44307068  0.97619786  1
  O2-  O184  1  0.18862006  0.73289313  0.46744409  1
  O2-  O185  1  0.22149302  0.78525200  0.98088630  1
  O2-  O186  1  0.58304152  0.11878074  0.49206297  1
  O2-  O187  1  0.55389951  0.12024510  0.97672807  1
  O2-  O188  1  0.54880432  0.44631724  0.47112512  1
  O2-  O189  1  0.54705051  0.44815286  0.97629747  1
  O2-  O190  1  0.54846174  0.77911052  0.48457489  1
  O2-  O191  1  0.54972946  0.78376969  0.97472993  1
  O2-  O192  1  0.87969866  0.09439306  0.45361006  1
  O2-  O193  1  0.87143037  0.09472373  0.96407439  1
  O2-  O194  1  0.79959927  0.41827471  0.42985347  1
  O2-  O195  1  0.93748690  0.43866201  0.95159213  1
  O2-  O196  1  0.89198655  0.78682474  0.46385075  1
  O2-  O197  1  0.88807806  0.75610794  0.95543998  1
  O2-  O198  1  0.08859758  0.21186663  0.02788154  1
  O2-  O199  1  0.08322353  0.21016692  0.53010456  1
  O2-  O200  1  0.12966543  0.57809276  0.03884658  1
  O2-  O201  1  0.03490410  0.52657488  0.50794040  1
  O2-  O202  1  0.08269589  0.89832559  0.03755725  1
  O2-  O203  1  0.11735067  0.89650629  0.50650923  1
  O2-  O204  1  0.43255644  0.22807875  0.02112239  1
  O2-  O205  1  0.48668615  0.23642595  0.54202599  1
  O2-  O206  1  0.44729535  0.56176960  0.03168807  1
  O2-  O207  1  0.45521427  0.55455710  0.55318862  1
  O2-  O208  1  0.43605741  0.89394784  0.04254414  1
  O2-  O209  1  0.46802413  0.90056687  0.54849296  1
  O2-  O210  1  0.81497572  0.23453762  0.03142313  1
  O2-  O211  1  0.80347039  0.22315840  0.54606280  1
  O2-  O212  1  0.74575226  0.55510435  0.05479292  1
  O2-  O213  1  0.76886284  0.57913327  0.53542796  1
  O2-  O214  1  0.88752876  0.91868321  0.06825145  1
  O2-  O215  1  0.77795542  0.88715109  0.51940062  1
