# generated using pymatgen
data_H2O
_symmetry_space_group_name_H-M   'P 1'
_cell_length_a   13.50840440
_cell_length_b   13.50279226
_cell_length_c   14.69508189
_cell_angle_alpha   90.03688003
_cell_angle_beta   89.95645270
_cell_angle_gamma   120.01833720
_symmetry_Int_Tables_number   1
_chemical_formula_structural   H2O
_chemical_formula_sum   'H144 O72'
_cell_volume   2320.86489144
_cell_formula_units_Z   72
loop_
 _symmetry_equiv_pos_site_id
 _symmetry_equiv_pos_as_xyz
  1  'x, y, z'
loop_
 _atom_type_symbol
 _atom_type_oxidation_number
  H+  1.0
  O2-  -2.0
loop_
 _atom_site_type_symbol
 _atom_site_label
 _atom_site_symmetry_multiplicity
 _atom_site_fract_x
 _atom_site_fract_y
 _atom_site_fract_z
 _atom_site_occupancy
  H+  H0  1  0.15989006  0.37112535  0.97543760  1
  H+  H1  1  0.86791711  0.92804600  0.74806592  1
  H+  H2  1  0.42714078  0.53718458  0.35787195  1
  H+  H3  1  0.70239937  0.51193490  0.99935308  1
  H+  H4  1  0.17812892  0.03319744  0.76142097  1
  H+  H5  1  0.36195098  0.19010364  0.74420048  1
  H+  H6  1  0.09463985  0.22308026  0.11165719  1
  H+  H7  1  0.34766318  0.50773318  0.72583686  1
  H+  H8  1  0.13213779  0.17349987  0.24674395  1
  H+  H9  1  0.48430158  0.29488926  0.00621833  1
  H+  H10  1  0.85761709  0.13725254  0.35816229  1
  H+  H11  1  0.78755937  0.22494428  0.63489562  1
  H+  H12  1  0.35001425  0.51185175  -0.05518467  1
  H+  H13  1  0.57150249  0.12794272  0.36857776  1
  H+  H14  1  0.14972240  0.84240833  0.02449706  1
  H+  H15  1  0.28864954  0.80924208  0.77603180  1
  H+  H16  1  0.15037895  0.64230166  1.01219965  1
  H+  H17  1  0.13872752  0.62879321  0.24469523  1
  H+  H18  1  0.28975168  0.45363955  0.48211276  1
  H+  H19  1  0.30524581  0.82742505  -0.00727626  1
  H+  H20  1  0.17025602  0.13583225  -0.00883899  1
  H+  H21  1  0.47811103  0.84615364  0.48887826  1
  H+  H22  1  0.48497010  0.84783450  0.24864304  1
  H+  H23  1  0.96105065  0.48368790  0.25894510  1
  H+  H24  1  0.67478570  0.18715719  0.21961278  1
  H+  H25  1  0.02574647  0.51924732  0.50657017  1
  H+  H26  1  0.71351344  0.16882893  0.48081361  1
  H+  H27  1  0.69902217  0.52737494  0.73787610  1
  H+  H28  1  0.54182281  1.05423692  -0.03141219  1
  H+  H29  1  0.53555794  0.71813668  0.28909844  1
  H+  H30  1  0.52444372  1.05937127  0.76331519  1
  H+  H31  1  0.46497411  0.62330726  0.72237612  1
  H+  H32  1  0.01935874  0.17869284  0.73916240  1
  H+  H33  1  0.43995145  0.54744148  0.02129384  1
  H+  H34  1  0.63097296  0.82955915  0.50414485  1
  H+  H35  1  0.85598229  0.37184653  0.97948438  1
  H+  H36  1  0.51619013  0.36272047  0.74387094  1
  H+  H37  1  0.24898569  0.45654971  0.24369642  1
  H+  H38  1  0.17286412  0.81412463  0.76649358  1
  H+  H39  1  0.51588022  0.48124216  0.74658171  1
  H+  H40  1  0.19927108  1.04248860  0.48612933  1
  H+  H41  1  0.29515024  0.15911893  0.25136785  1
  H+  H42  1  0.16614879  0.36824324  0.74278052  1
  H+  H43  1  1.02999412  0.52477901  1.00339077  1
  H+  H44  1  0.16876475  0.49330283  0.97567500  1
  H+  H45  1  0.82220890  -0.03021107  0.26802403  1
  H+  H46  1  0.51108708  0.70539242  0.96006995  1
  H+  H47  1  0.80223062  0.85774807  0.50836810  1
  H+  H48  1  0.20735446  0.28058287  0.05685777  1
  H+  H49  1  0.14047167  0.98353330  0.23088524  1
  H+  H50  1  0.13509945  0.63446324  0.75233332  1
  H+  H51  1  0.95559153  0.14120557  0.97347523  1
  H+  H52  1  0.84848199  0.69940534  0.25428712  1
  H+  H53  1  0.80648787  0.11513816  0.75561575  1
  H+  H54  1  1.02249180  0.86025042  0.23842592  1
  H+  H55  1  0.64842838  0.83910312  0.27134306  1
  H+  H56  1  0.82024722  0.97947025  0.53367431  1
  H+  H57  1  0.84690887  0.71849505  0.75145986  1
  H+  H58  1  0.02266753  0.83487837  0.01150734  1
  H+  H59  1  0.49797179  0.86626445  0.77184608  1
  H+  H60  1  0.79890489  0.61959461  0.50605407  1
  H+  H61  1  0.82922820  0.52722536  0.23509425  1
  H+  H62  1  0.49248905  0.86038113  0.99614969  1
  H+  H63  1  0.96356272  0.14434256  0.30021804  1
  H+  H64  1  0.83689022  0.37145171  0.25751439  1
  H+  H65  1  0.35823076  0.18597632  0.01116770  1
  H+  H66  1  0.51910872  0.17427307  0.74941552  1
  H+  H67  1  0.79294509  0.18909437  0.22767875  1
  H+  H68  1  0.48274155  0.29889655  0.23977950  1
  H+  H69  1  0.11674342  0.28429788  0.25073066  1
  H+  H70  1  0.85798892  0.69368221  0.97997925  1
  H+  H71  1  0.54462903  0.48262294  0.28418327  1
  H+  H72  1  0.71558173  0.19806386  -0.00760443  1
  H+  H73  1  0.16929655  0.85631297  0.51098503  1
  H+  H74  1  0.06817679  0.88404882  0.51263125  1
  H+  H75  1  0.81010646  0.97111436  0.02743304  1
  H+  H76  1  0.48148186  0.63625596  0.50109302  1
  H+  H77  1  0.84749412  0.15724552  -0.01260411  1
  H+  H78  1  0.82113067  0.53675209  0.74449196  1
  H+  H79  1  0.28036863  0.80086219  0.27160893  1
  H+  H80  1  0.13811527  0.51431642  0.73997876  1
  H+  H81  1  -0.01312640  0.49353588  0.75556296  1
  H+  H82  1  0.28724402  0.80828563  0.47641925  1
  H+  H83  1  0.52197420  0.48236934  0.48675797  1
  H+  H84  1  0.52290152  0.47544542  0.95609027  1
  H+  H85  1  0.52792957  1.03880537  0.44707453  1
  H+  H86  1  0.70275452  0.20113314  0.71981689  1
  H+  H87  1  0.69285041  0.92543391  0.78239995  1
  H+  H88  1  0.43404249  0.54187681  0.24994453  1
  H+  H89  1  0.50169189  1.03540608  0.23297538  1
  H+  H90  1  0.65209681  0.80031370  0.75425809  1
  H+  H91  1  0.70893959  0.51762561  0.23728331  1
  H+  H92  1  0.82978856  0.28354339  0.49082054  1
  H+  H93  1  0.16361635  0.69329244  0.49547871  1
  H+  H94  1  0.35203232  0.19319909  0.51447646  1
  H+  H95  1  0.47634584  0.30337194  0.51843407  1
  H+  H96  1  0.63657543  0.47489213  0.50024162  1
  H+  H97  1  0.03369994  0.85661884  0.73736905  1
  H+  H98  1  0.84332325  0.81647885  0.26243832  1
  H+  H99  1  0.85174414  0.36128194  0.74896280  1
  H+  H100  1  0.17214236  0.14885249  0.75990811  1
  H+  H101  1  0.84492940  0.47172324  0.49446770  1
  H+  H102  1  0.85051103  0.48918034  0.97803973  1
  H+  H103  1  0.69586263  0.85278516  1.03198722  1
  H+  H104  1  0.14295444  0.47245359  0.25904860  1
  H+  H105  1  0.92194716  0.78898623  0.48947607  1
  H+  H106  1  0.16920175  0.14238483  0.48539116  1
  H+  H107  1  0.09997930  0.55270741  0.15116501  1
  H+  H108  1  0.86255084  0.76330233  0.39260106  1
  H+  H109  1  0.83765289  0.07560139  0.84916674  1
  H+  H110  1  0.57247135  0.43445969  0.88011637  1
  H+  H111  1  0.57855587  0.42638414  0.35830424  1
  H+  H112  1  0.47543537  0.92846829  0.07736865  1
  H+  H113  1  0.49707413  0.15379904  0.23263540  1
  H+  H114  1  0.09712427  0.21792421  0.65117931  1
  H+  H115  1  0.09881814  0.56332701  0.59726386  1
  H+  H116  1  0.20000795  0.41371774  0.39945574  1
  H+  H117  1  0.56386223  0.79364821  0.41012084  1
  H+  H118  1  0.43314746  0.54517645  0.58068524  1
  H+  H119  1  0.78072619  0.55461726  0.09015618  1
  H+  H120  1  0.43100921  0.22589171  0.64809550  1
  H+  H121  1  0.21936121  0.11528125  0.89997164  1
  H+  H122  1  0.09828658  0.88660317  0.11924310  1
  H+  H123  1  0.88803990  0.43986412  0.84865569  1
  H+  H124  1  0.58556109  0.14442452  0.88732972  1
  H+  H125  1  0.21514705  0.78136198  0.91080289  1
  H+  H126  1  0.13745309  0.28488764  0.50688094  1
  H+  H127  1  0.77783081  0.55694235  0.60196730  1
  H+  H128  1  0.88656867  0.44477455  0.40136247  1
  H+  H129  1  0.19367941  0.75534172  0.35402275  1
  H+  H130  1  0.77956672  0.90386345  0.16900068  1
  H+  H131  1  0.78588191  0.24098259  0.08596469  1
  H+  H132  1  0.20516008  0.44630221  0.83127354  1
  H+  H133  1  0.46344652  0.60151150  0.13145599  1
  H+  H134  1  0.12475559  0.89667226  0.65558313  1
  H+  H135  1  0.45731632  0.54194985  0.13303407  1
  H+  H136  1  0.43390335  0.22888660  0.14378844  1
  H+  H137  1  0.21781031  0.11590145  0.34175520  1
  H+  H138  1  0.96513944  0.13902248  0.45834821  1
  H+  H139  1  0.89881354  0.78690955  0.89954709  1
  H+  H140  1  0.44760032  0.89558835  0.68923141  1
  H+  H141  1  0.39385682  0.81737477  0.17112313  1
  H+  H142  1  0.58796298  0.81244149  0.89874520  1
  H+  H143  1  0.44249552  0.92236231  0.54839224  1
  O2-  O144  1  0.07941495  0.20354437  0.22882806  1
  O2-  O145  1  0.09903826  0.22521672  0.71951913  1
  O2-  O146  1  0.09531820  0.54691082  0.21877867  1
  O2-  O147  1  0.09131283  0.55340179  0.72786748  1
  O2-  O148  1  0.09901654  0.90245152  0.20872186  1
  O2-  O149  1  0.11685113  0.89074191  0.72328029  1
  O2-  O150  1  0.43140898  0.22157688  0.21392918  1
  O2-  O151  1  0.44067117  0.22962121  0.71835811  1
  O2-  O152  1  0.47888195  0.56961449  0.30580845  1
  O2-  O153  1  0.42842366  0.54368637  0.70289328  1
  O2-  O154  1  0.43413294  0.87364735  0.21886739  1
  O2-  O155  1  0.44436428  0.89356839  0.75540909  1
  O2-  O156  1  0.76011440  0.23374595  0.20414251  1
  O2-  O157  1  0.78535448  0.23405774  0.70269481  1
  O2-  O158  1  0.78673002  0.56467169  0.20985382  1
  O2-  O159  1  0.78221601  0.57608991  0.72019974  1
  O2-  O160  1  0.77870232  0.89417065  0.23803033  1
  O2-  O161  1  0.83451390  0.85082792  0.72152588  1
  O2-  O162  1  0.21371488  0.11847115  0.27374807  1
  O2-  O163  1  0.21679884  0.11407331  0.78292395  1
  O2-  O164  1  0.18031168  0.42640613  0.28088571  1
  O2-  O165  1  0.20854934  0.45030146  0.76307143  1
  O2-  O166  1  0.19949507  0.75000586  0.28656336  1
  O2-  O167  1  0.20629932  0.76772982  0.79216799  1
  O2-  O168  1  0.54519327  0.11714284  0.24860712  1
  O2-  O169  1  0.57014812  0.14307893  0.76939532  1
  O2-  O170  1  0.57832284  0.43290029  0.29004147  1
  O2-  O171  1  0.56178243  0.44588610  0.76458506  1
  O2-  O172  1  0.56673181  0.80159432  0.29509332  1
  O2-  O173  1  0.62409752  0.84627360  0.78456173  1
  O2-  O174  1  0.89827470  0.09661334  0.34263232  1
  O2-  O175  1  0.81887660  0.05529669  0.78348851  1
  O2-  O176  1  0.88125584  0.44979919  0.28339077  1
  O2-  O177  1  0.89293941  0.44190601  0.77765568  1
  O2-  O178  1  0.88521233  0.77701262  0.28393625  1
  O2-  O179  1  0.89289803  0.80047641  0.77220483  1
  O2-  O180  1  0.22061547  0.11741861  0.45767685  1
  O2-  O181  1  0.22628709  0.11686145  0.96745449  1
  O2-  O182  1  0.21047407  0.39878854  0.46351577  1
  O2-  O183  1  0.19947579  0.44686718  0.94541509  1
  O2-  O184  1  0.20305258  0.77449488  0.46832061  1
  O2-  O185  1  0.22172196  0.78337459  0.97863853  1
  O2-  O186  1  0.58150267  0.11975863  0.43431558  1
  O2-  O187  1  0.59379099  0.13514779  0.95344737  1
  O2-  O188  1  0.55913701  0.43718804  0.47063038  1
  O2-  O189  1  0.56928768  0.43842657  0.94806169  1
  O2-  O190  1  0.55165394  0.78270286  0.47748125  1
  O2-  O191  1  0.55827570  0.79011267  0.96189444  1
  O2-  O192  1  0.97512814  0.14796020  0.52528636  1
  O2-  O193  1  0.87331423  0.10374442  0.96281500  1
  O2-  O194  1  0.89015188  0.43863239  0.46882713  1
  O2-  O195  1  0.89361224  0.45180953  0.95229113  1
  O2-  O196  1  0.84723548  0.75681483  0.46103342  1
  O2-  O197  1  0.90854807  0.77578337  0.96429301  1
  O2-  O198  1  0.12479022  0.24455088  0.04766401  1
  O2-  O199  1  0.09958768  0.20398578  0.53842890  1
  O2-  O200  1  0.10880076  0.55930203  0.02940542  1
  O2-  O201  1  0.10516061  0.56890700  0.53077510  1
  O2-  O202  1  0.10110996  0.87551374  0.04456837  1
  O2-  O203  1  0.14343845  0.91049013  0.53862770  1
  O2-  O204  1  0.43532335  0.22438793  0.04059211  1
  O2-  O205  1  0.42666357  0.22697881  0.54616997  1
  O2-  O206  1  0.43452968  0.55160285  -0.04509076  1
  O2-  O207  1  0.44025664  0.55181613  0.51318603  1
  O2-  O208  1  0.45324760  0.90447887  0.01428191  1
  O2-  O209  1  0.43156268  0.88659563  0.48909867  1
  O2-  O210  1  0.79708842  0.24150301  0.01888149  1
  O2-  O211  1  0.79137036  0.20203441  0.50874088  1
  O2-  O212  1  0.78310327  0.55259866  0.02206254  1
  O2-  O213  1  0.77162783  0.54356473  0.53493922  1
  O2-  O214  1  0.77123411  0.89791071  0.06106146  1
  O2-  O215  1  0.76511693  0.89746793  0.53611264  1
