# generated using pymatgen
data_H2O
_symmetry_space_group_name_H-M   'P 1'
_cell_length_a   13.49937282
_cell_length_b   13.47470703
_cell_length_c   14.65164894
_cell_angle_alpha   90.01950181
_cell_angle_beta   89.94792503
_cell_angle_gamma   120.09554218
_symmetry_Int_Tables_number   1
_chemical_formula_structural   H2O
_chemical_formula_sum   'H144 O72'
_cell_volume   2305.84948211
_cell_formula_units_Z   72
loop_
 _symmetry_equiv_pos_site_id
 _symmetry_equiv_pos_as_xyz
  1  'x, y, z'
loop_
 _atom_type_symbol
 _atom_type_oxidation_number
  H+  1.0
  O2-  -2.0
loop_
 _atom_site_type_symbol
 _atom_site_label
 _atom_site_symmetry_multiplicity
 _atom_site_fract_x
 _atom_site_fract_y
 _atom_site_fract_z
 _atom_site_occupancy
  H+  H0  1  0.17117909  0.03449063  0.48951055  1
  H+  H1  1  0.65158743  0.20431639  0.75212316  1
  H+  H2  1  0.15096434  0.19391816  0.50727604  1
  H+  H3  1  0.81811780  0.17605249  0.00056837  1
  H+  H4  1  0.83651777  0.38851647  0.44482669  1
  H+  H5  1  0.50852640  0.14523067  0.25813041  1
  H+  H6  1  0.12570002  0.80943958  0.72679646  1
  H+  H7  1  0.15051193  0.40474527  0.24494371  1
  H+  H8  1  0.15554087  0.96162360  0.00856700  1
  H+  H9  1  0.54234336  0.08275862  0.75186135  1
  H+  H10  1  0.97586965  0.14194494  0.99983387  1
  H+  H11  1  0.85228094  0.47979588  0.99288901  1
  H+  H12  1  0.49071733  0.21057393  0.74365845  1
  H+  H13  1  0.86043703  0.40653482  0.75054896  1
  H+  H14  1  0.52345761  0.48111344  0.26632904  1
  H+  H15  1  0.77062157  0.39927028  0.21557598  1
  H+  H16  1  0.55354915  0.11647481  0.39707738  1
  H+  H17  1  0.51278957  0.36205008  0.49413961  1
  H+  H18  1  0.52644800  0.81580559  0.26256707  1
  H+  H19  1  0.92843848  0.23789499  0.78613598  1
  H+  H20  1  0.53666296  0.82049728  0.48913355  1
  H+  H21  1  0.77819717  0.53258000  0.10184453  1
  H+  H22  1  0.83316548  0.85001948  0.25288748  1
  H+  H23  1  0.63372066  0.48282561  0.99671114  1
  H+  H24  1  0.85580459  1.02000176  0.00374893  1
  H+  H25  1  0.17796570  0.47672640  0.99851149  1
  H+  H26  1  0.85296843  0.04984029  0.49330659  1
  H+  H27  1  0.92315116  0.20881840  0.74069682  1
  H+  H28  1  0.18860270  0.81195024  0.26785320  1
  H+  H29  1  0.83356644  0.50108291  0.47021971  1
  H+  H30  1  0.85794980  0.04122216  0.26661260  1
  H+  H31  1  0.69002734  0.51983981  0.51314648  1
  H+  H32  1  0.29385466  0.81145287  1.01509838  1
  H+  H33  1  0.15748805  0.61010637  0.25629604  1
  H+  H34  1  0.19357164  0.71232046  0.51700818  1
  H+  H35  1  0.47304556  0.62472225  1.04025181  1
  H+  H36  1  0.48024527  0.29753776  0.24574697  1
  H+  H37  1  0.52466597  1.03895294  0.48604289  1
  H+  H38  1  0.79909012  0.90320822  0.63663698  1
  H+  H39  1  0.51439350  0.48349717  -0.00120302  1
  H+  H40  1  1.15034553  0.17611427  1.01745332  1
  H+  H41  1  0.83709495  0.70058196  0.49088253  1
  H+  H42  1  0.16376886  -0.01977600  0.24655772  1
  H+  H43  1  0.17429296  0.38699209  0.48661531  1
  H+  H44  1  0.50517019  0.81716130  1.04406787  1
  H+  H45  1  0.16704217  0.81238463  0.00920660  1
  H+  H46  1  0.63193637  0.14508377  0.99566950  1
  H+  H47  1  0.44708315  0.76366954  0.68055015  1
  H+  H48  1  0.49664468  0.62746126  0.25148067  1
  H+  H49  1  1.01374151  0.11964827  0.78220844  1
  H+  H50  1  0.99057475  0.82382348  0.26722235  1
  H+  H51  1  0.38750649  0.85092267  0.48904999  1
  H+  H52  1  0.55338863  0.78061299  0.96273891  1
  H+  H53  1  0.47992983  0.30122270  0.01039388  1
  H+  H54  1  0.70589193  0.85076098  0.04243477  1
  H+  H55  1  0.00843615  0.84860410  0.50764881  1
  H+  H56  1  0.63528066  0.50065818  0.76411466  1
  H+  H57  1  0.20868371  0.43771979  0.85769872  1
  H+  H58  1  0.97055078  0.81265864  0.76568608  1
  H+  H59  1  0.40433705  0.88780484  0.74407241  1
  H+  H60  1  0.35799593  0.50553946  0.02022338  1
  H+  H61  1  0.88552042  -0.00297180  0.77407258  1
  H+  H62  1  0.53468141  0.70031459  0.49249066  1
  H+  H63  1  0.47585588  0.31947216  0.74063489  1
  H+  H64  1  0.29925877  0.15932711  0.25998155  1
  H+  H65  1  0.81109750  0.64425317  0.74477150  1
  H+  H66  1  0.15026892  0.28840820  0.75079071  1
  H+  H67  1  0.62850924  0.14705520  0.25576283  1
  H+  H68  1  0.29401493  0.14958600  0.49154062  1
  H+  H69  1  0.63417694  0.46161085  0.26507316  1
  H+  H70  1  0.34286775  0.49937613  0.77025799  1
  H+  H71  1  0.42732445  0.88986614  0.11828685  1
  H+  H72  1  0.12443646  0.84625326  0.49871925  1
  H+  H73  1  0.81769403  0.23793757  0.71594193  1
  H+  H74  1  0.25909864  0.85266209  0.53297393  1
  H+  H75  1  0.03003336  0.19942124  0.24047368  1
  H+  H76  1  0.88828027  0.78010875  0.40048719  1
  H+  H77  1  0.81902045  0.62822753  0.02230000  1
  H+  H78  1  0.16823703  0.68140157  1.01676766  1
  H+  H79  1  0.54433843  0.78509283  0.74497897  1
  H+  H80  1  0.29917918  0.14369262  0.99375816  1
  H+  H81  1  0.30579180  0.14385702  0.75934270  1
  H+  H82  1  0.70902133  0.86036962  0.51027807  1
  H+  H83  1  0.88385453  0.69782942  0.27264251  1
  H+  H84  1  0.79859020  0.89418502  0.12042895  1
  H+  H85  1  0.72025939  0.86237859  0.72636124  1
  H+  H86  1  0.48137220  0.96473896  0.24916860  1
  H+  H87  1  0.36500476  0.84118791  0.25304132  1
  H+  H88  1  0.97078911  0.16890276  0.49347876  1
  H+  H89  1  0.47809391  0.17985446  0.50969289  1
  H+  H90  1  0.15250652  0.20975006  0.24268225  1
  H+  H91  1  0.81048740  0.19111766  0.24089893  1
  H+  H92  1  0.11087939  0.22435150  1.10425064  1
  H+  H93  1  0.48263743  0.51003446  0.76818384  1
  H+  H94  1  1.09865880  0.87277556  0.64607589  1
  H+  H95  1  0.82085681  0.29617248  1.00108974  1
  H+  H96  1  0.46466840  0.96261488  0.02255410  1
  H+  H97  1  0.45938499  0.61960067  0.72136346  1
  H+  H98  1  0.18464948  0.49258838  0.76829567  1
  H+  H99  1  0.16303878  0.54880639  0.52788144  1
  H+  H100  1  0.17684457  0.35698751  0.99651146  1
  H+  H101  1  0.82845431  0.86434938  0.50577079  1
  H+  H102  1  0.02945349  0.51303286  0.02015865  1
  H+  H103  1  0.85735400  0.82084068  0.76193775  1
  H+  H104  1  0.85464133  0.81587646  1.00504795  1
  H+  H105  1  0.82092107  0.20739138  0.50147476  1
  H+  H106  1  0.81570284  0.53011503  0.74576200  1
  H+  H107  1  1.03274856  0.84289187  1.01426266  1
  H+  H108  1  0.62189167  0.80535000  0.85021949  1
  H+  H109  1  0.92307123  0.07078661  0.88081316  1
  H+  H110  1  0.98429541  0.51988660  0.76432571  1
  H+  H111  1  0.13093897  0.58973474  0.62302728  1
  H+  H112  1  0.10991319  0.54328602  0.11110799  1
  H+  H113  1  0.55860995  0.45531380  0.85731010  1
  H+  H114  1  0.77402638  0.26749203  0.62551893  1
  H+  H115  1  0.57065088  0.77958427  0.35063751  1
  H+  H116  1  0.56051128  0.75538346  0.85458543  1
  H+  H117  1  0.76861046  0.21540469  0.14734650  1
  H+  H118  1  0.19817688  0.47042784  0.40247723  1
  H+  H119  1  0.90000158  0.45438106  0.90212374  1
  H+  H120  1  0.48167718  0.18321325  0.01387788  1
  H+  H121  1  0.77294456  0.56314719  0.60056121  1
  H+  H122  1  0.22020670  0.09999483  0.90460248  1
  H+  H123  1  0.69892157  0.20004660  0.49596082  1
  H+  H124  1  0.37817136  0.53204123  0.50959632  1
  H+  H125  1  0.89276581  0.12610306  0.35160439  1
  H+  H126  1  0.55634700  0.44033367  0.40498242  1
  H+  H127  1  0.16856084  0.17810878  0.74296596  1
  H+  H128  1  0.29048708  0.77559066  0.71824168  1
  H+  H129  1  0.89056138  0.77698951  0.91291712  1
  H+  H130  1  0.55410922  0.11696594  0.90877584  1
  H+  H131  1  0.16946394  0.69749870  0.83310292  1
  H+  H132  1  0.22518440  0.77425516  0.35756277  1
  H+  H133  1  0.48910464  0.51973953  0.50864225  1
  H+  H134  1  0.12710109  0.89633782  0.16016354  1
  H+  H135  1  0.21827069  0.12079806  0.34791786  1
  H+  H136  1  0.71301825  0.84903580  0.25144880  1
  H+  H137  1  0.44235147  0.88535416  0.58465375  1
  H+  H138  1  0.18973956  0.01972379  0.75746425  1
  H+  H139  1  0.43816859  0.22141954  0.15435304  1
  H+  H140  1  0.43900914  0.22334648  0.59824033  1
  H+  H141  1  0.86716370  0.51425841  0.32663546  1
  H+  H142  1  0.44257889  0.53727916  0.17100105  1
  H+  H143  1  0.11379551  0.22896644  0.59868828  1
  O2-  O144  1  0.10996276  0.24514221  0.21560134  1
  O2-  O145  1  0.11636889  0.20887953  0.72714087  1
  O2-  O146  1  0.11835513  0.53106543  0.22997090  1
  O2-  O147  1  0.11782269  0.57781256  0.73736587  1
  O2-  O148  1  0.12892128  0.89731388  0.22767724  1
  O2-  O149  1  0.10461637  0.86865447  0.71417355  1
  O2-  O150  1  0.43757779  0.21644190  0.22223758  1
  O2-  O151  1  0.44021702  0.23853635  0.71905324  1
  O2-  O152  1  0.45778624  0.54436342  0.23728412  1
  O2-  O153  1  0.43044579  0.54678868  0.76029503  1
  O2-  O154  1  0.44343488  0.88384675  0.22523023  1
  O2-  O155  1  0.36978164  0.83335855  0.69414528  1
  O2-  O156  1  0.76362802  0.22202801  0.21433890  1
  O2-  O157  1  0.77328315  0.27325703  0.69540991  1
  O2-  O158  1  0.76791810  0.47138561  0.21628785  1
  O2-  O159  1  0.76827301  0.56315167  0.72241845  1
  O2-  O160  1  0.79531237  0.89287914  0.23118173  1
  O2-  O161  1  0.80010669  0.89843363  0.70747919  1
  O2-  O162  1  0.21699721  0.12011276  0.27977483  1
  O2-  O163  1  0.22506996  0.09877876  0.78255483  1
  O2-  O164  1  0.18672273  0.48382556  0.27048871  1
  O2-  O165  1  0.21493797  0.44166405  0.78889071  1
  O2-  O166  1  0.22470894  0.76763861  0.29045136  1
  O2-  O167  1  0.16915929  0.70119676  0.76615852  1
  O2-  O168  1  0.54851842  0.10471799  0.28162646  1
  O2-  O169  1  0.57455715  0.15638565  0.78300449  1
  O2-  O170  1  0.55606954  0.43124891  0.28925802  1
  O2-  O171  1  0.55394519  0.45939660  0.78859983  1
  O2-  O172  1  0.57098598  0.77916881  0.28219379  1
  O2-  O173  1  0.50966823  0.74542324  0.68771303  1
  O2-  O174  1  0.89266677  0.12360850  0.28330549  1
  O2-  O175  1  0.94913081  0.05073305  0.81738135  1
  O2-  O176  1  0.87442306  0.55327493  0.26379119  1
  O2-  O177  1  0.90059423  0.47919345  0.78570548  1
  O2-  O178  1  0.90820972  0.77894540  0.28677968  1
  O2-  O179  1  0.89182039  0.77940987  0.79216262  1
  O2-  O180  1  0.21392923  0.11545848  0.46798196  1
  O2-  O181  1  0.21736679  0.09878950  0.97264314  1
  O2-  O182  1  0.21326423  0.46872221  0.46833951  1
  O2-  O183  1  0.21715884  0.43753258  0.97207280  1
  O2-  O184  1  0.23363053  0.79539898  0.48446786  1
  O2-  O185  1  0.20975744  0.76598301  0.99281946  1
  O2-  O186  1  0.55641514  0.11979933  0.46576060  1
  O2-  O187  1  0.54982192  0.10699519  0.97576529  1
  O2-  O188  1  0.55542814  0.44351409  0.47340374  1
  O2-  O189  1  0.55445158  0.44484148  0.97107766  1
  O2-  O190  1  0.57922298  0.78217708  0.46838622  1
  O2-  O191  1  0.55012767  0.77847805  1.02966922  1
  O2-  O192  1  0.89010806  0.13040122  0.47052645  1
  O2-  O193  1  0.89794185  0.09547949  0.96972715  1
  O2-  O194  1  0.86268849  0.46747476  0.42423118  1
  O2-  O195  1  0.89718910  0.44415663  0.97019984  1
  O2-  O196  1  0.88042476  0.78245330  0.46853106  1
  O2-  O197  1  0.89474682  0.77577096  0.98101679  1
  O2-  O198  1  0.10894383  0.21713761  0.03517776  1
  O2-  O199  1  0.11184789  0.23491887  0.53159450  1
  O2-  O200  1  0.11088560  0.55580354  0.04350251  1
  O2-  O201  1  0.13819978  0.60061226  0.55489376  1
  O2-  O202  1  0.11586215  0.88046571  0.03320604  1
  O2-  O203  1  0.09119651  0.88822184  0.52930130  1
  O2-  O204  1  0.43733977  0.22053048  0.03349978  1
  O2-  O205  1  0.43507204  0.21842629  0.53044537  1
  O2-  O206  1  0.43701816  0.54011119  0.04543036  1
  O2-  O207  1  0.45800751  0.56867549  0.53090868  1
  O2-  O208  1  0.42088725  0.88356653  0.04851578  1
  O2-  O209  1  0.46350318  0.89372108  0.51939600  1
  O2-  O210  1  0.77640363  0.21452741  0.02204908  1
  O2-  O211  1  0.77958871  0.24924056  0.51762985  1
  O2-  O212  1  0.77643760  0.54428290  0.03513017  1
  O2-  O213  1  0.77245462  0.56642538  0.53267176  1
  O2-  O214  1  0.79007498  0.89037417  0.05130788  1
  O2-  O215  1  0.79108076  0.90636011  0.53254733  1
