# generated using pymatgen
data_H2O
_symmetry_space_group_name_H-M   'P 1'
_cell_length_a   13.51346054
_cell_length_b   13.51159238
_cell_length_c   14.70278961
_cell_angle_alpha   89.95730980
_cell_angle_beta   90.04679567
_cell_angle_gamma   119.98874160
_symmetry_Int_Tables_number   1
_chemical_formula_structural   H2O
_chemical_formula_sum   'H144 O72'
_cell_volume   2325.15852526
_cell_formula_units_Z   72
loop_
 _symmetry_equiv_pos_site_id
 _symmetry_equiv_pos_as_xyz
  1  'x, y, z'
loop_
 _atom_type_symbol
 _atom_type_oxidation_number
  H+  1.0
  O2-  -2.0
loop_
 _atom_site_type_symbol
 _atom_site_label
 _atom_site_symmetry_multiplicity
 _atom_site_fract_x
 _atom_site_fract_y
 _atom_site_fract_z
 _atom_site_occupancy
  H+  H0  1  0.13276223  0.50156203  0.73640975  1
  H+  H1  1  0.72627113  0.85770004  0.74604577  1
  H+  H2  1  0.86438605  1.03909683  0.76341390  1
  H+  H3  1  0.48397371  0.29415765  1.01315333  1
  H+  H4  1  0.48695844  0.51197484  1.02122505  1
  H+  H5  1  0.70692036  0.85380514  0.22477892  1
  H+  H6  1  0.15882307  0.29448171  0.01216681  1
  H+  H7  1  0.97851585  0.83289181  0.24458520  1
  H+  H8  1  0.69596188  0.51990939  0.24300102  1
  H+  H9  1  0.70441954  0.18731163  0.01269715  1
  H+  H10  1  0.33102161  0.51620118  0.50507064  1
  H+  H11  1  0.88315424  0.51260972  0.49106173  1
  H+  H12  1  0.85133477  0.80774593  0.98981369  1
  H+  H13  1  0.15647102  -0.03278063  1.00495685  1
  H+  H14  1  0.19372992  0.70278380  0.99155866  1
  H+  H15  1  0.71062011  0.18362159  0.48173473  1
  H+  H16  1  0.18883086  0.81630009  0.25601824  1
  H+  H17  1  0.15763161  0.52137956  0.22292863  1
  H+  H18  1  0.19504066  0.35853860  0.73727584  1
  H+  H19  1  0.83520982  0.48084570  0.27413018  1
  H+  H20  1  0.51699223  0.69175827  0.25756886  1
  H+  H21  1  0.69961544  0.17750225  0.75246793  1
  H+  H22  1  0.49613681  0.84528547  0.73665418  1
  H+  H23  1  0.23887306  0.79614489  0.85430456  1
  H+  H24  1  0.82849696  0.85913194  0.22163589  1
  H+  H25  1  0.15206159  0.51900271  0.99954098  1
  H+  H26  1  0.47970216  0.62694978  0.02525292  1
  H+  H27  1  0.18451684  0.14669794  0.98809317  1
  H+  H28  1  0.52306566  0.85085230  0.47989256  1
  H+  H29  1  0.36415865  0.17636193  0.00412357  1
  H+  H30  1  0.68399277  0.66098981  0.45013202  1
  H+  H31  1  0.82064349  0.63522120  0.00776980  1
  H+  H32  1  0.49889754  0.59264548  0.46160032  1
  H+  H33  1  0.26156880  0.47392637  0.68180993  1
  H+  H34  1  0.16298773  0.18373734  0.73992353  1
  H+  H35  1  0.05653574  0.86433162  0.74324514  1
  H+  H36  1  0.16098150  -0.02654565  0.23913659  1
  H+  H37  1  0.59693668  0.44104117  0.75269041  1
  H+  H38  1  -0.02634890  0.13671319  0.49974754  1
  H+  H39  1  0.79976396  0.61986299  0.48238038  1
  H+  H40  1  0.81897521  0.51585826  0.01087141  1
  H+  H41  1  0.77457086  0.87682595  0.08448809  1
  H+  H42  1  0.80354250  0.24614285  0.40791662  1
  H+  H43  1  0.30690793  0.47882391  0.54664122  1
  H+  H44  1  0.51079996  0.12392575  0.75587659  1
  H+  H45  1  0.11627025  0.21422542  0.15136803  1
  H+  H46  1  0.47524535  0.41319895  0.72641922  1
  H+  H47  1  0.49380575  0.81342781  1.00094182  1
  H+  H48  1  0.85691947  0.72026975  0.25814135  1
  H+  H49  1  0.64411846  0.48631912  0.99936341  1
  H+  H50  1  0.51731477  0.14567042  0.98902610  1
  H+  H51  1  0.16444643  0.64333398  0.22424477  1
  H+  H52  1  0.13494078  0.84330570  0.51001519  1
  H+  H53  1  0.70567350  0.85451118  0.52049436  1
  H+  H54  1  0.05935827  0.58176903  0.51891398  1
  H+  H55  1  0.19294487  0.82121644  -0.00335258  1
  H+  H56  1  1.03986297  0.17396482  0.24373944  1
  H+  H57  1  0.10884788  0.57811933  0.66811359  1
  H+  H58  1  0.29419942  0.47559176  0.26579474  1
  H+  H59  1  0.80180185  0.77549986  0.45183540  1
  H+  H60  1  0.50319049  0.13811599  0.26372755  1
  H+  H61  1  0.48266302  0.26210585  0.73299311  1
  H+  H62  1  0.31222395  0.82388935  0.76301110  1
  H+  H63  1  0.30700328  0.47958224  -0.00917188  1
  H+  H64  1  0.89204095  0.72291003  0.75798241  1
  H+  H65  1  0.82813880  0.96230929  0.51762088  1
  H+  H66  1  0.49325194  0.84938149  0.23664751  1
  H+  H67  1  0.03631920  0.18168645  0.01095819  1
  H+  H68  1  0.52186680  0.02999596  0.99473426  1
  H+  H69  1  0.85840288  0.14056109  0.48224571  1
  H+  H70  1  0.68834947  0.81680505  1.00305381  1
  H+  H71  1  0.86591257  0.02912037  0.25570888  1
  H+  H72  1  0.54592141  0.50383219  0.47780298  1
  H+  H73  1  0.49344012  0.30044527  0.49675252  1
  H+  H74  1  0.30817459  0.15392864  0.48989598  1
  H+  H75  1  -0.02091721  0.15853567  0.76338090  1
  H+  H76  1  0.36844915  0.52993992  0.79647092  1
  H+  H77  1  1.03855806  0.84731101  1.00980321  1
  H+  H78  1  0.30608539  0.14394201  0.75281913  1
  H+  H79  1  0.95071055  0.47400341  0.76312005  1
  H+  H80  1  0.81891460  0.30815070  0.01739976  1
  H+  H81  1  0.50453188  0.01911420  0.49054772  1
  H+  H82  1  0.49044899  -0.03172237  0.24379295  1
  H+  H83  1  0.97207061  0.49029544  0.98928496  1
  H+  H84  1  0.53851094  0.71605811  0.79016541  1
  H+  H85  1  0.82976744  0.35967124  0.76613834  1
  H+  H86  1  0.18751293  0.15298965  0.25877001  1
  H+  H87  1  0.15778335  0.18600017  0.50861477  1
  H+  H88  1  0.12652094  0.89879091  0.60167165  1
  H+  H89  1  0.15345319  0.47317752  0.47477928  1
  H+  H90  1  0.18756863  0.03028127  0.75663073  1
  H+  H91  1  0.76335557  0.22120964  0.16602771  1
  H+  H92  1  0.87876666  0.83471011  0.76177455  1
  H+  H93  1  0.17603175  0.86423765  0.74465770  1
  H+  H94  1  0.83998508  0.52813692  0.73809947  1
  H+  H95  1  0.75157526  0.57325289  0.71543306  1
  H+  H96  1  0.49132474  -0.04010377  0.73900795  1
  H+  H97  1  0.34949294  0.79523333  0.52153070  1
  H+  H98  1  0.30559953  0.81588639  0.25587494  1
  H+  H99  1  0.36096639  0.17521369  0.23919360  1
  H+  H100  1  0.90487341  0.40598643  0.49791709  1
  H+  H101  1  0.82365483  0.19250520  0.75345726  1
  H+  H102  1  0.48318388  0.17420729  0.50726170  1
  H+  H103  1  0.51316632  0.35955346  0.24903179  1
  H+  H104  1  0.48047700  0.50611783  0.24987533  1
  H+  H105  1  0.12807562  0.28954044  0.50448037  1
  H+  H106  1  0.36960196  0.85487947  0.01898316  1
  H+  H107  1  0.48173574  0.53454889  0.83019733  1
  H+  H108  1  0.43760237  0.54533116  0.16327248  1
  H+  H109  1  0.44588035  0.20156635  0.63469793  1
  H+  H110  1  0.55024271  0.42282576  0.34540304  1
  H+  H111  1  0.88473452  0.44660013  0.90484731  1
  H+  H112  1  0.46675146  0.59516931  0.64995478  1
  H+  H113  1  0.11909385  0.21989167  0.64999987  1
  H+  H114  1  0.79339252  0.29885589  0.25480538  1
  H+  H115  1  0.90274225  0.12874798  0.91001053  1
  H+  H116  1  0.90652419  0.78077415  0.90359720  1
  H+  H117  1  0.77926222  0.55927872  0.15801752  1
  H+  H118  1  0.18841991  0.03660343  0.49030926  1
  H+  H119  1  0.16051877  0.41346897  0.38547538  1
  H+  H120  1  0.45303231  0.89392350  0.10776477  1
  H+  H121  1  0.91000329  0.09276981  0.35174798  1
  H+  H122  1  0.89677788  0.45538120  0.35665849  1
  H+  H123  1  0.46081026  0.71241496  0.92837718  1
  H+  H124  1  0.54486626  0.09650989  0.40091195  1
  H+  H125  1  0.56539704  0.78749074  0.33685344  1
  H+  H126  1  0.55683005  0.43822326  0.91543392  1
  H+  H127  1  0.82062179  0.58078215  0.58218323  1
  H+  H128  1  0.62679341  0.14756463  0.26526625  1
  H+  H129  1  0.59403268  0.82132110  0.85294864  1
  H+  H130  1  0.86625402  0.17007895  -0.00075668  1
  H+  H131  1  0.47215475  0.54273365  0.65419213  1
  H+  H132  1  0.63535579  0.43383651  0.46242465  1
  H+  H133  1  0.12406275  0.89557492  0.14921260  1
  H+  H134  1  0.22605450  0.11020144  0.89738661  1
  H+  H135  1  0.79841156  0.89178795  0.65411744  1
  H+  H136  1  0.43489001  0.87001923  0.60042157  1
  H+  H137  1  0.43854367  0.20655265  0.14904472  1
  H+  H138  1  0.55103610  0.09413593  0.85101275  1
  H+  H139  1  0.22897133  0.43847225  0.90188740  1
  H+  H140  1  0.22709169  0.11381947  0.34890913  1
  H+  H141  1  0.17780198  0.35691625  0.25180987  1
  H+  H142  1  0.63517258  0.93326400  0.42633684  1
  H+  H143  1  0.12030354  0.56360073  0.09018485  1
  O2-  O144  1  0.12148498  0.21970991  0.21906544  1
  O2-  O145  1  0.12502818  0.22751291  0.71841453  1
  O2-  O146  1  0.12913334  0.56756717  0.19225274  1
  O2-  O147  1  0.07859161  0.52725220  0.72131536  1
  O2-  O148  1  0.12148472  0.89276714  0.21694956  1
  O2-  O149  1  0.13591848  0.90491827  0.71800352  1
  O2-  O150  1  0.44200473  0.21188872  0.21659667  1
  O2-  O151  1  0.44083084  0.18690007  0.70430656  1
  O2-  O152  1  0.44049497  0.54929582  0.23081744  1
  O2-  O153  1  0.44225850  0.57853159  0.82894561  1
  O2-  O154  1  0.45246249  0.88994046  0.21548693  1
  O2-  O155  1  0.45076998  0.87955643  0.71411964  1
  O2-  O156  1  0.75121634  0.21759109  0.23263020  1
  O2-  O157  1  0.77999655  0.23018750  0.73438968  1
  O2-  O158  1  0.77835495  0.56193063  0.22526179  1
  O2-  O159  1  0.82990515  0.59110882  0.70695048  1
  O2-  O160  1  0.78462420  0.89790578  0.19866509  1
  O2-  O161  1  0.80595451  0.89749663  0.72270023  1
  O2-  O162  1  0.22810030  0.11183990  0.28087635  1
  O2-  O163  1  0.22801531  0.11317269  0.77880242  1
  O2-  O164  1  0.21042421  0.43624385  0.27716053  1
  O2-  O165  1  0.23888384  0.44643403  0.74403546  1
  O2-  O166  1  0.22519729  0.77169163  0.27618826  1
  O2-  O167  1  0.23468939  0.79863714  0.78695705  1
  O2-  O168  1  0.54404244  0.09919633  0.28847595  1
  O2-  O169  1  0.55369024  0.08880758  0.78301267  1
  O2-  O170  1  0.55024509  0.43745756  0.27611597  1
  O2-  O171  1  0.52084658  0.41247015  0.77790578  1
  O2-  O172  1  0.56033396  0.77613339  0.26996179  1
  O2-  O173  1  0.58773984  0.80082089  0.78802388  1
  O2-  O174  1  0.91716110  0.10398412  0.28512930  1
  O2-  O175  1  0.89949476  0.11908213  0.78647664  1
  O2-  O176  1  0.85934632  0.42702934  0.29720160  1
  O2-  O177  1  0.87032984  0.44338808  0.78601642  1
  O2-  O178  1  0.89732001  0.80450876  0.26097306  1
  O2-  O179  1  0.92314242  0.79931400  0.78709335  1
  O2-  O180  1  0.22740841  0.11731804  0.46711487  1
  O2-  O181  1  0.22745920  0.10834428  0.96535936  1
  O2-  O182  1  0.12671726  0.39751840  0.44804655  1
  O2-  O183  1  0.22619630  0.43949230  0.96803944  1
  O2-  O184  1  0.22422876  0.64589433  0.51908772  1
  O2-  O185  1  0.23888094  0.78616049  0.97497765  1
  O2-  O186  1  0.55258259  0.09863116  0.46945655  1
  O2-  O187  1  0.56020825  0.10796679  0.96658502  1
  O2-  O188  1  0.55422618  0.40420667  0.44934121  1
  O2-  O189  1  0.55943734  0.44376000  0.98167226  1
  O2-  O190  1  0.59012814  0.85397475  0.44603164  1
  O2-  O191  1  0.51996359  0.76058621  0.97217471  1
  O2-  O192  1  0.89430183  0.09215811  0.47445839  1
  O2-  O193  1  0.91200976  0.13603500  0.97682884  1
  O2-  O194  1  0.93966962  0.48480062  0.47568004  1
  O2-  O195  1  0.88872305  0.44863084  0.97276579  1
  O2-  O196  1  0.76549169  0.69723133  0.42850377  1
  O2-  O197  1  0.89959201  0.77270747  0.97117834  1
  O2-  O198  1  0.11918245  0.21379586  0.03250767  1
  O2-  O199  1  0.11132171  0.21704228  0.53691560  1
  O2-  O200  1  0.11458244  0.56205882  0.01961951  1
  O2-  O201  1  0.12749736  0.64602151  0.55313062  1
  O2-  O202  1  0.12025204  0.88823835  0.03047581  1
  O2-  O203  1  0.11902986  0.90102588  0.53408012  1
  O2-  O204  1  0.44402809  0.21177983  0.02913090  1
  O2-  O205  1  0.44702775  0.21779598  0.53068022  1
  O2-  O206  1  0.43925641  0.54482383  0.04263361  1
  O2-  O207  1  0.55550611  0.58380355  0.49571851  1
  O2-  O208  1  0.45225808  0.89330942  0.03835727  1
  O2-  O209  1  0.42493888  0.86475590  0.53251802  1
  O2-  O210  1  0.78163099  0.22815438  0.04076877  1
  O2-  O211  1  0.79481203  0.22716889  0.47268718  1
  O2-  O212  1  0.77550446  0.55448948  0.03097780  1
  O2-  O213  1  0.80429815  0.55688975  0.51810577  1
  O2-  O214  1  0.76949693  0.85784856  0.01799606  1
  O2-  O215  1  0.78413529  0.88234779  0.54279027  1
