# generated using pymatgen
data_H2O
_symmetry_space_group_name_H-M   'P 1'
_cell_length_a   13.50927612
_cell_length_b   13.47212911
_cell_length_c   14.65531444
_cell_angle_alpha   90.02489755
_cell_angle_beta   90.05886597
_cell_angle_gamma   119.94536507
_symmetry_Int_Tables_number   1
_chemical_formula_structural   H2O
_chemical_formula_sum   'H144 O72'
_cell_volume   2311.17286965
_cell_formula_units_Z   72
loop_
 _symmetry_equiv_pos_site_id
 _symmetry_equiv_pos_as_xyz
  1  'x, y, z'
loop_
 _atom_type_symbol
 _atom_type_oxidation_number
  H+  1.0
  O2-  -2.0
loop_
 _atom_site_type_symbol
 _atom_site_label
 _atom_site_symmetry_multiplicity
 _atom_site_fract_x
 _atom_site_fract_y
 _atom_site_fract_z
 _atom_site_occupancy
  H+  H0  1  0.37968617  0.84860483  0.73872386  1
  H+  H1  1  0.12740854  0.28708814  0.52253134  1
  H+  H2  1  0.47770796  0.62561359  0.74210118  1
  H+  H3  1  0.89353534  0.45210395  0.39739894  1
  H+  H4  1  0.21676847  0.77308449  0.89142087  1
  H+  H5  1  0.48232984  0.80733821  0.23456675  1
  H+  H6  1  0.68906077  0.20142321  1.01577868  1
  H+  H7  1  0.50414427  1.02544272  0.46781022  1
  H+  H8  1  0.62481336  0.44874732  0.79297894  1
  H+  H9  1  0.15436335  0.62852118  0.00868986  1
  H+  H10  1  0.27263567  0.47053874  0.50782669  1
  H+  H11  1  0.77426681  0.22543101  0.10079101  1
  H+  H12  1  0.57348918  0.46389342  0.40591836  1
  H+  H13  1  0.80406632  0.96391657  0.49664127  1
  H+  H14  1  0.78860113  0.11940926  0.98029200  1
  H+  H15  1  0.83100027  0.01613818  0.74759002  1
  H+  H16  1  0.48743852  0.53394303  0.03707009  1
  H+  H17  1  0.15751695  0.47848888  0.51819503  1
  H+  H18  1  0.78758151  -0.13548820  1.10063643  1
  H+  H19  1  0.70764787  0.53014876  0.50905120  1
  H+  H20  1  -0.13458204  0.02486313  0.25730038  1
  H+  H21  1  0.88167808  0.71221376  0.74568046  1
  H+  H22  1  0.50436969  0.85651302  0.49731757  1
  H+  H23  1  0.79537387  0.62834903  -0.03120144  1
  H+  H24  1  0.84842523  0.49284487  0.25196221  1
  H+  H25  1  0.36270077  0.19037353  0.50164003  1
  H+  H26  1  0.46845723  0.50342144  0.47331553  1
  H+  H27  1  0.82756485  0.18145161  0.23600940  1
  H+  H28  1  0.85779069  0.52654315  0.73535542  1
  H+  H29  1  0.70149042  0.82790593  0.01411538  1
  H+  H30  1  0.52354794  0.69804689  0.99870239  1
  H+  H31  1  0.36133164  0.15647063  0.72246930  1
  H+  H32  1  0.99015917  0.83711868  0.74592346  1
  H+  H33  1  0.28871805  0.81334128  0.98323672  1
  H+  H34  1  0.51976930  0.40585219  0.27015126  1
  H+  H35  1  0.70509860  0.17102813  0.23880281  1
  H+  H36  1  0.81954509  0.64390053  0.22540113  1
  H+  H37  1  0.89741850  0.78703351  0.88554937  1
  H+  H38  1  0.51737884  0.14673839  0.75831324  1
  H+  H39  1  0.16919440  -0.03136129  0.24407473  1
  H+  H40  1  0.52197357  0.80720576  0.75866240  1
  H+  H41  1  0.61212809  0.97597792  0.05908415  1
  H+  H42  1  0.51359642  0.09868892  0.22527795  1
  H+  H43  1  0.16793848  0.98366439  0.72218554  1
  H+  H44  1  0.13841886  0.84822952  0.49830634  1
  H+  H45  1  0.18751309  0.70252009  0.75712845  1
  H+  H46  1  0.84215864  0.82640667  0.47262542  1
  H+  H47  1  0.85050158  0.49359072  0.48281036  1
  H+  H48  1  0.28937875  0.22312577  0.80302221  1
  H+  H49  1  0.95637455  0.13769756  0.48597600  1
  H+  H50  1  0.85614829  0.36410465  0.76500304  1
  H+  H51  1  0.28472099  0.08855667  0.98029701  1
  H+  H52  1  0.63180431  0.79967731  0.46729889  1
  H+  H53  1  0.82169583  0.84392701  0.72459329  1
  H+  H54  1  0.49736538  0.96515109  0.74554213  1
  H+  H55  1  0.49906543  0.37320997  1.01616897  1
  H+  H56  1  0.29743385  0.79340027  0.25338122  1
  H+  H57  1  0.62283414  0.50361904  0.78730403  1
  H+  H58  1  0.18808587  0.81569275  0.25073825  1
  H+  H59  1  0.98826545  0.11026264  1.04890544  1
  H+  H60  1  0.85059828  0.37224487  0.25238913  1
  H+  H61  1  0.49206542  0.23230630  0.29530899  1
  H+  H62  1  0.14664640  0.64900445  0.23909166  1
  H+  H63  1  0.84418498  0.14852364  0.48312023  1
  H+  H64  1  0.19840921  0.19111533  0.02012075  1
  H+  H65  1  0.50799140  0.68307614  0.45607839  1
  H+  H66  1  0.12606109  0.82134450  0.00974029  1
  H+  H67  1  0.70146982  0.18873319  0.74446752  1
  H+  H68  1  0.00998827  0.82650064  0.00633998  1
  H+  H69  1  0.82738570  0.30503789  0.50779550  1
  H+  H70  1  0.17539007  0.15051191  0.49591558  1
  H+  H71  1  0.70756253  0.52785273  0.24316956  1
  H+  H72  1  0.16153378  0.51347941  0.02128867  1
  H+  H73  1  0.32391273  0.50906022  1.01215064  1
  H+  H74  1  0.71324864  0.80651878  0.24378378  1
  H+  H75  1  0.15694021  -0.01301692  0.98783753  1
  H+  H76  1  0.01230942  0.51849872  0.23653439  1
  H+  H77  1  0.85065371  0.71292617  0.46633654  1
  H+  H78  1  0.22788265  0.37401239  0.29209511  1
  H+  H79  1  0.23685269  0.32464780  0.03003269  1
  H+  H80  1  0.12074657  0.89964433  0.63596011  1
  H+  H81  1  0.24426629  0.45432014  0.92205198  1
  H+  H82  1  0.52433973  0.37320522  0.48898979  1
  H+  H83  1  0.84970266  0.36650136  0.99483530  1
  H+  H84  1  0.16143375  0.69787746  0.49225949  1
  H+  H85  1  0.19547480  0.82556306  0.75138748  1
  H+  H86  1  0.45573593  0.27804051  0.74215301  1
  H+  H87  1  1.02621116  0.86110085  0.49782689  1
  H+  H88  1  0.15213384  0.51945461  0.74932095  1
  H+  H89  1  0.49368655  0.14009201  0.46094878  1
  H+  H90  1  0.41894212  0.42415919  0.78255376  1
  H+  H91  1  0.37925359  0.50900008  0.40461480  1
  H+  H92  1  0.79303451  0.51008515  0.98149809  1
  H+  H93  1  0.36306923  0.19754207  0.27077217  1
  H+  H94  1  0.35673310  0.24012317  0.06683362  1
  H+  H95  1  0.49770058  0.15947267  1.00710199  1
  H+  H96  1  0.19124320  0.15271988  0.26822873  1
  H+  H97  1  0.00259138  0.12131130  -0.00099978  1
  H+  H98  1  0.69686546  0.83075767  0.73033917  1
  H+  H99  1  0.17994355  0.03387331  0.49231920  1
  H+  H100  1  -0.02986400  0.48251140  -0.00426055  1
  H+  H101  1  1.03491872  0.52020870  0.75172369  1
  H+  H102  1  0.54417758  0.82487948  0.98565082  1
  H+  H103  1  0.48882297  0.92909423  0.24524454  1
  H+  H104  1  1.00563242  0.17189073  0.74804847  1
  H+  H105  1  0.16477369  0.35990915  0.76923046  1
  H+  H106  1  0.02164944  0.51850376  0.51697534  1
  H+  H107  1  -0.15067165  0.81478920  -0.02174635  1
  H+  H108  1  0.79552564  0.00304011  0.98378470  1
  H+  H109  1  0.56404873  0.74598737  0.32902770  1
  H+  H110  1  0.78969837  0.22782693  0.59653784  1
  H+  H111  1  0.55153703  0.53994989  0.27298566  1
  H+  H112  1  0.54057116  0.08503728  0.33124946  1
  H+  H113  1  0.10355778  0.55814767  0.14502619  1
  H+  H114  1  0.89301950  0.10626798  0.34278721  1
  H+  H115  1  0.49463871  0.90104816  0.11126122  1
  H+  H116  1  0.21213580  0.10473299  0.85121820  1
  H+  H117  1  0.45081308  0.38726792  0.87665965  1
  H+  H118  1  0.83831741  0.07870482  0.84200295  1
  H+  H119  1  0.47718256  0.60330836  0.12551948  1
  H+  H120  1  0.22523939  0.11066817  0.35890659  1
  H+  H121  1  0.08569304  0.20096489  0.60507325  1
  H+  H122  1  0.05128625  0.18844386  0.23867518  1
  H+  H123  1  0.80416908  0.57623280  0.58727589  1
  H+  H124  1  0.43721951  0.54271772  0.65519329  1
  H+  H125  1  0.56211599  0.76374783  0.84574230  1
  H+  H126  1  0.28606595  0.47458835  0.76214054  1
  H+  H127  1  0.21342186  0.43198458  0.37933873  1
  H+  H128  1  0.51999467  0.05266905  1.00620224  1
  H+  H129  1  0.47950141  0.89843120  0.59186112  1
  H+  H130  1  0.20076346  0.76799271  0.39938411  1
  H+  H131  1  0.81383973  0.17960427  0.74079429  1
  H+  H132  1  0.45005300  0.22312017  0.58412253  1
  H+  H133  1  0.74809396  0.53793605  0.73168291  1
  H+  H134  1  0.86338979  0.80370670  0.32620525  1
  H+  H135  1  0.10000418  0.56123281  0.60880438  1
  H+  H136  1  0.44569913  0.23791211  0.13405814  1
  H+  H137  1  0.12768488  0.17866279  0.74902264  1
  H+  H138  1  0.55213371  0.11631304  0.85345013  1
  H+  H139  1  0.76714952  0.88038629  0.58417599  1
  H+  H140  1  0.60807962  0.48355549  0.97571043  1
  H+  H141  1  0.11424349  0.88501566  0.15796366  1
  H+  H142  1  0.89407935  0.44467904  0.85550319  1
  H+  H143  1  0.15623027  0.23768068  0.16586456  1
  O2-  O144  1  0.13569138  0.22950230  0.23154277  1
  O2-  O145  1  0.08627423  0.21682533  0.72504045  1
  O2-  O146  1  0.09697246  0.56220851  0.21431154  1
  O2-  O147  1  0.11486653  0.56317476  0.72704659  1
  O2-  O148  1  0.13298388  0.88781344  0.22346309  1
  O2-  O149  1  0.12937404  0.90258083  0.70497204  1
  O2-  O150  1  0.44735286  0.24963927  0.25267830  1
  O2-  O151  1  0.44260779  0.20850840  0.70801882  1
  O2-  O152  1  0.51182579  0.62599411  0.23186447  1
  O2-  O153  1  0.42779793  0.54343931  0.72105527  1
  O2-  O154  1  0.44430535  0.85157446  0.21653009  1
  O2-  O155  1  0.46158868  0.88535531  0.72157433  1
  O2-  O156  1  0.78510474  0.22128906  0.21728507  1
  O2-  O157  1  0.78196050  0.22988907  0.72259816  1
  O2-  O158  1  0.78607745  0.56059665  0.21762577  1
  O2-  O159  1  0.82581219  0.57363899  0.70713024  1
  O2-  O160  1  0.79770238  0.85931880  0.22952402  1
  O2-  O161  1  0.77433910  0.87723774  0.70281298  1
  O2-  O162  1  0.23367413  0.11331493  0.29051770  1
  O2-  O163  1  0.22934468  0.14189465  0.78948556  1
  O2-  O164  1  0.26307318  0.44731622  0.32544992  1
  O2-  O165  1  0.21088444  0.43983082  0.79340821  1
  O2-  O166  1  0.21613366  0.76081408  0.27178597  1
  O2-  O167  1  0.23113569  0.78391233  0.77999158  1
  O2-  O168  1  0.55918169  0.07678054  0.26280711  1
  O2-  O169  1  0.55796334  0.10967957  0.78651802  1
  O2-  O170  1  0.57567302  0.48256047  0.29371196  1
  O2-  O171  1  0.41050769  0.35685014  0.81679485  1
  O2-  O172  1  0.57434145  0.74832308  0.25935735  1
  O2-  O173  1  0.55749264  0.76016974  0.77745011  1
  O2-  O174  1  0.89898847  0.10630818  0.27413091  1
  O2-  O175  1  0.86516429  0.09341248  0.77673836  1
  O2-  O176  1  0.89246378  0.45341458  0.27319543  1
  O2-  O177  1  0.89905824  0.44593864  0.78691765  1
  O2-  O178  1  0.85501391  0.79557140  0.25762362  1
  O2-  O179  1  0.90918586  0.79226655  0.76714537  1
  O2-  O180  1  0.22158980  0.11635673  0.47231375  1
  O2-  O181  1  0.20725811  0.06723110  0.96137628  1
  O2-  O182  1  0.18832839  0.42629002  0.50216411  1
  O2-  O183  1  0.24438229  0.45415670  0.98977079  1
  O2-  O184  1  0.19254933  0.77553141  0.46536705  1
  O2-  O185  1  0.21102836  0.76561540  0.96063656  1
  O2-  O186  1  0.51459243  0.08976983  0.42695639  1
  O2-  O187  1  0.54253360  0.12841267  0.97815260  1
  O2-  O188  1  0.56613822  0.45697703  0.47437727  1
  O2-  O189  1  0.52133420  0.44320928  0.97966869  1
  O2-  O190  1  0.55595850  0.76454012  0.43582143  1
  O2-  O191  1  0.57030861  0.77240858  0.96343982  1
  O2-  O192  1  0.87867442  0.10224848  0.45781871  1
  O2-  O193  1  0.77571420  0.05089939  0.94529149  1
  O2-  O194  1  0.89131538  0.45157061  0.46510550  1
  O2-  O195  1  0.89147769  0.44668211  0.97072649  1
  O2-  O196  1  0.88595381  0.79278058  0.44264750  1
  O2-  O197  1  0.88920953  0.77472475  0.95296491  1
  O2-  O198  1  0.23485730  0.25780516  0.06144325  1
  O2-  O199  1  0.09191617  0.20323876  0.53717018  1
  O2-  O200  1  0.11622289  0.55156665  0.03822623  1
  O2-  O201  1  0.10203240  0.56016724  0.54075423  1
  O2-  O202  1  0.08984553  0.86452894  0.03341334  1
  O2-  O203  1  0.10452919  0.89559769  0.52415783  1
  O2-  O204  1  0.42709643  0.23318354  0.06773693  1
  O2-  O205  1  0.44632518  0.22920482  0.51691475  1
  O2-  O206  1  0.45729667  0.58481490  0.05760150  1
  O2-  O207  1  0.41790728  0.53749963  0.46516512  1
  O2-  O208  1  0.52927858  0.93498283  0.04988537  1
  O2-  O209  1  0.48390443  0.91027826  0.52546846  1
  O2-  O210  1  0.76999733  0.22851610  0.03257151  1
  O2-  O211  1  0.79372025  0.22503609  0.52927009  1
  O2-  O212  1  0.74396377  0.54413265  -0.02712918  1
  O2-  O213  1  0.79212164  0.57393615  0.52017229  1
  O2-  O214  1  0.78344781  0.87369614  0.03392824  1
  O2-  O215  1  0.76574746  0.88134570  0.51603339  1
