# generated using pymatgen
data_H2O
_symmetry_space_group_name_H-M   'P 1'
_cell_length_a   13.48252072
_cell_length_b   13.51506338
_cell_length_c   14.67504170
_cell_angle_alpha   90.00373668
_cell_angle_beta   90.05177461
_cell_angle_gamma   120.05347844
_symmetry_Int_Tables_number   1
_chemical_formula_structural   H2O
_chemical_formula_sum   'H144 O72'
_cell_volume   2314.53960859
_cell_formula_units_Z   72
loop_
 _symmetry_equiv_pos_site_id
 _symmetry_equiv_pos_as_xyz
  1  'x, y, z'
loop_
 _atom_type_symbol
 _atom_type_oxidation_number
  H+  1.0
  O2-  -2.0
loop_
 _atom_site_type_symbol
 _atom_site_label
 _atom_site_symmetry_multiplicity
 _atom_site_fract_x
 _atom_site_fract_y
 _atom_site_fract_z
 _atom_site_occupancy
  H+  H0  1  0.19441518  0.36843961  0.99733236  1
  H+  H1  1  0.85393778  0.16465042  0.49314298  1
  H+  H2  1  0.54602163  0.10857879  0.85431478  1
  H+  H3  1  1.02749653  0.49174979  0.75339415  1
  H+  H4  1  0.84408390  0.04052473  0.47956323  1
  H+  H5  1  0.11874472  -0.05658207  0.51072062  1
  H+  H6  1  0.10543233  0.88923948  0.14423813  1
  H+  H7  1  0.16045089  0.22163407  0.81125402  1
  H+  H8  1  0.51321637  0.18249129  0.02132037  1
  H+  H9  1  0.85031897  1.03808986  0.26305453  1
  H+  H10  1  0.17925106  0.12349968  0.47595946  1
  H+  H11  1  0.14541325  0.62702828  0.01202263  1
  H+  H12  1  0.76531723  0.21748964  0.09191521  1
  H+  H13  1  0.48707661  0.50580556  0.74590201  1
  H+  H14  1  0.82787187  0.51092414  0.16805020  1
  H+  H15  1  0.83580717  0.14809158  0.74727940  1
  H+  H16  1  0.51204621  0.01587455  0.99693254  1
  H+  H17  1  0.48587373  0.20093578  0.75704927  1
  H+  H18  1  0.82851015  0.67892496  0.47683353  1
  H+  H19  1  0.80712254  0.85471044  0.64828723  1
  H+  H20  1  0.15875014  0.51727257  0.51474815  1
  H+  H21  1  0.03868597  0.18590231  0.46289345  1
  H+  H22  1  0.67248428  0.80031299  0.75446663  1
  H+  H23  1  0.18767654  0.06036948  0.76809537  1
  H+  H24  1  0.27978489  0.77042099  0.36365456  1
  H+  H25  1  0.49573574  0.51862910  0.01507830  1
  H+  H26  1  0.49231532  0.32221107  0.75692122  1
  H+  H27  1  0.85600219  0.04020334  0.74393369  1
  H+  H28  1  0.85347060  0.68794781  0.22144374  1
  H+  H29  1  0.88540870  0.43836138  0.85724215  1
  H+  H30  1  0.48820570  0.46614570  0.26708027  1
  H+  H31  1  0.80867032  0.29930554  0.74548165  1
  H+  H32  1  0.31080957  0.14855013  1.00187704  1
  H+  H33  1  0.49767337  0.62599120  0.73762450  1
  H+  H34  1  0.99925158  0.82712438  0.77865539  1
  H+  H35  1  0.48880260  0.04581024  0.76032907  1
  H+  H36  1  0.28565105  0.48890094  0.25114206  1
  H+  H37  1  0.81543355  0.83493568  0.24266255  1
  H+  H38  1  0.64520563  0.16671084  0.49726939  1
  H+  H39  1  0.99585652  0.82872891  0.51370969  1
  H+  H40  1  0.52645894  0.49127895  0.49163851  1
  H+  H41  1  0.50255700  0.20416775  0.52285489  1
  H+  H42  1  0.19111984  0.37111832  0.46833811  1
  H+  H43  1  0.80568284  0.31117318  0.21320046  1
  H+  H44  1  0.83348142  0.32069730  0.51194850  1
  H+  H45  1  0.13482235  0.61709549  0.75250500  1
  H+  H46  1  0.48341110  0.84502774  0.17871241  1
  H+  H47  1  0.16762067  0.67201400  0.23677238  1
  H+  H48  1  0.50840947  0.69720214  0.48695451  1
  H+  H49  1  0.14576043  0.97860797  0.24095360  1
  H+  H50  1  0.20117674  0.51438747  0.78072299  1
  H+  H51  1  0.83966057  0.36362565  0.99415351  1
  H+  H52  1  0.84998594  0.83621063  0.74457370  1
  H+  H53  1  0.03413923  0.84852338  0.01784045  1
  H+  H54  1  0.58126454  0.46818839  0.85985224  1
  H+  H55  1  0.54807508  0.38669525  0.99756309  1
  H+  H56  1  0.37496125  0.70467882  0.65709370  1
  H+  H57  1  1.01729632  0.83895349  0.23572865  1
  H+  H58  1  0.02628897  0.50735846  0.00366388  1
  H+  H59  1  0.68648122  0.18460080  0.73906802  1
  H+  H60  1  0.42586655  0.87319469  0.74663871  1
  H+  H61  1  0.15881071  0.47697119  0.25338821  1
  H+  H62  1  0.63037558  0.81520655  0.26070931  1
  H+  H63  1  0.18508962  0.48410316  0.99845764  1
  H+  H64  1  0.31114265  0.17400951  0.77552577  1
  H+  H65  1  0.12427824  0.22019824  0.38146714  1
  H+  H66  1  0.84117089  0.63893492  0.74723708  1
  H+  H67  1  0.45414923  0.29118336  0.25475939  1
  H+  H68  1  0.52830594  0.37312454  0.49935138  1
  H+  H69  1  0.18234221  0.79470915  0.24159538  1
  H+  H70  1  0.51996588  0.68698244  0.98858245  1
  H+  H71  1  0.85557119  0.48115587  0.76482734  1
  H+  H72  1  0.66378503  0.50713503  0.00716884  1
  H+  H73  1  0.69728182  0.51359454  0.51516171  1
  H+  H74  1  0.63144409  0.16120901  0.26710602  1
  H+  H75  1  0.08943534  0.53122210  0.14434319  1
  H+  H76  1  0.18419761  0.81511160  1.00683531  1
  H+  H77  1  0.36710119  0.51701595  0.50444649  1
  H+  H78  1  0.15090862  0.30906784  0.25583021  1
  H+  H79  1  0.85185987  0.48926414  1.00079836  1
  H+  H80  1  0.83987455  0.04317751  0.98433380  1
  H+  H81  1  0.25975914  0.80979836  0.76258047  1
  H+  H82  1  0.46674751  0.63328907  0.23728002  1
  H+  H83  1  0.81225893  0.19420252  0.23109529  1
  H+  H84  1  0.33034661  0.51627103  0.77831814  1
  H+  H85  1  0.02992548  0.18716046  0.25312044  1
  H+  H86  1  0.36887745  0.83695648  1.02387091  1
  H+  H87  1  0.57942946  0.28465389  0.08780907  1
  H+  H88  1  0.22980399  0.70994840  0.45802781  1
  H+  H89  1  0.17140115  0.19652473  0.02596043  1
  H+  H90  1  0.20982908  0.93256202  0.70438617  1
  H+  H91  1  0.04542176  0.22082759  0.80602925  1
  H+  H92  1  0.99268979  0.50594978  0.50373789  1
  H+  H93  1  0.16868304  0.13409354  0.26082611  1
  H+  H94  1  0.92145494  0.47963517  0.41186554  1
  H+  H95  1  0.43239095  0.21249703  0.16585583  1
  H+  H96  1  0.36873583  0.70192787  0.70792088  1
  H+  H97  1  0.85837364  0.80490894  0.00055958  1
  H+  H98  1  0.15518770  -0.02865824  1.01822576  1
  H+  H99  1  0.65414787  0.49985995  0.76706061  1
  H+  H100  1  0.99357562  0.49314946  0.22176787  1
  H+  H101  1  0.48393761  0.83463377  0.00775677  1
  H+  H102  1  0.77337741  0.89777230  0.39250337  1
  H+  H103  1  0.56402733  0.81343076  0.74731705  1
  H+  H104  1  0.49271189  0.99533007  0.52929971  1
  H+  H105  1  0.12013837  0.55038991  0.60765253  1
  H+  H106  1  0.82211264  0.52268897  0.51726304  1
  H+  H107  1  0.80760440  0.18430592  0.99821479  1
  H+  H108  1  0.13421495  0.78337406  0.77416344  1
  H+  H109  1  0.87010262  0.11129875  0.89045563  1
  H+  H110  1  0.76681012  0.88822956  0.16965941  1
  H+  H111  1  0.40806353  0.91231392  0.64633560  1
  H+  H112  1  0.91481801  0.77558963  0.86583642  1
  H+  H113  1  0.28976281  0.13334148  0.25357815  1
  H+  H114  1  0.24827756  0.47782956  0.88012641  1
  H+  H115  1  0.82876226  0.44753150  0.28156397  1
  H+  H116  1  0.67938916  0.84209722  0.46784018  1
  H+  H117  1  0.88404528  0.12257755  0.34763335  1
  H+  H118  1  0.67467137  0.85497597  1.02555569  1
  H+  H119  1  0.78569485  0.23869094  0.59985759  1
  H+  H120  1  0.53795106  0.43111054  0.35241937  1
  H+  H121  1  0.21242727  0.06640212  0.40038389  1
  H+  H122  1  0.52344271  0.77624989  0.40157841  1
  H+  H123  1  0.63076808  0.13760477  0.99030518  1
  H+  H124  1  0.78926876  0.56204063  0.65658418  1
  H+  H125  1  0.09843393  0.89471779  0.64455397  1
  H+  H126  1  0.37252869  0.51404282  0.01192851  1
  H+  H127  1  0.23305364  0.11569717  0.91286551  1
  H+  H128  1  0.82512091  0.79447884  0.45434192  1
  H+  H129  1  0.87559885  0.74181816  0.32583730  1
  H+  H130  1  0.22770525  0.46516559  0.39444418  1
  H+  H131  1  0.51140832  0.15557458  0.27732108  1
  H+  H132  1  0.13976712  0.28456038  0.61346304  1
  H+  H133  1  0.44218213  0.55036600  0.59573916  1
  H+  H134  1  0.21221322  0.77136652  0.91553394  1
  H+  H135  1  0.13759724  0.23936927  0.11501133  1
  H+  H136  1  0.85895935  0.68312068  1.01183492  1
  H+  H137  1  0.56018168  0.12355556  0.41192412  1
  H+  H138  1  0.46312248  0.24708454  0.61023883  1
  H+  H139  1  0.43805693  0.55382132  0.15075581  1
  H+  H140  1  0.57159783  0.76681459  0.89884850  1
  H+  H141  1  0.70473705  0.96366171  0.08201946  1
  H+  H142  1  0.40008026  0.86389350  0.51006880  1
  H+  H143  1  0.14289723  0.28258924  0.66482874  1
  O2-  O144  1  0.11545470  0.22325461  0.24704140  1
  O2-  O145  1  0.12803829  0.27250759  0.81345307  1
  O2-  O146  1  0.08033563  0.52830512  0.21190918  1
  O2-  O147  1  0.10951913  0.53734163  0.73220004  1
  O2-  O148  1  0.10140343  0.88860901  0.21530269  1
  O2-  O149  1  0.12991719  0.91281456  0.71168343  1
  O2-  O150  1  0.41584909  0.20777899  0.23178381  1
  O2-  O151  1  0.44551146  0.24166651  0.73516434  1
  O2-  O152  1  0.42667618  0.55225121  0.21827865  1
  O2-  O153  1  0.44460695  0.54421833  0.72231445  1
  O2-  O154  1  0.53363633  0.87844468  0.23249076  1
  O2-  O155  1  0.38652259  0.90952203  0.71878450  1
  O2-  O156  1  0.76477784  0.22312674  0.20361570  1
  O2-  O157  1  0.76671060  0.22218419  0.71584038  1
  O2-  O158  1  0.80232746  0.57075548  0.14428622  1
  O2-  O159  1  0.79262597  0.55928557  0.72492532  1
  O2-  O160  1  0.77582622  0.88043441  0.23671450  1
  O2-  O161  1  0.80448665  0.86733604  0.71352190  1
  O2-  O162  1  0.20399419  0.08513865  0.27190507  1
  O2-  O163  1  0.23232862  0.13115044  0.80367145  1
  O2-  O164  1  0.20716216  0.44500027  0.27831478  1
  O2-  O165  1  0.27013342  0.52199909  0.81650226  1
  O2-  O166  1  0.22492109  0.75423172  0.24787051  1
  O2-  O167  1  0.18535628  0.75486309  0.79332194  1
  O2-  O168  1  0.55818535  0.12407945  0.30127443  1
  O2-  O169  1  0.54648378  0.12083385  0.78690954  1
  O2-  O170  1  0.52036895  0.41779545  0.28600912  1
  O2-  O171  1  0.57432367  0.46308989  0.79194460  1
  O2-  O172  1  0.54592618  0.78411842  0.26928515  1
  O2-  O173  1  0.59092272  0.76649419  0.77659960  1
  O2-  O174  1  0.88867140  0.12006174  0.27949524  1
  O2-  O175  1  0.88019064  0.11373534  0.77364329  1
  O2-  O176  1  0.85934191  0.44150563  0.22321040  1
  O2-  O177  1  0.88964602  0.43550025  0.78877942  1
  O2-  O178  1  0.88771076  0.75989523  0.25856739  1
  O2-  O179  1  0.91851280  0.77814512  0.79732354  1
  O2-  O180  1  0.20427973  0.06702029  0.46682703  1
  O2-  O181  1  0.23101704  0.10829901  0.98197958  1
  O2-  O182  1  0.23018392  0.45610224  0.46211947  1
  O2-  O183  1  0.23282624  0.45099398  0.97532363  1
  O2-  O184  1  0.29946493  0.76929581  0.42899961  1
  O2-  O185  1  0.22108231  0.77253568  0.98274534  1
  O2-  O186  1  0.56267253  0.12579113  0.48107821  1
  O2-  O187  1  0.54704420  0.09507903  0.97112198  1
  O2-  O188  1  0.56903829  0.45305779  0.47034041  1
  O2-  O189  1  0.58380513  0.46751571  0.97857986  1
  O2-  O190  1  0.54752967  0.77771957  0.46516293  1
  O2-  O191  1  0.55996207  0.76820981  0.96537207  1
  O2-  O192  1  0.89035578  0.12304757  0.46440647  1
  O2-  O193  1  0.87093376  0.11967280  0.95788441  1
  O2-  O194  1  0.91129115  0.46977685  0.47766207  1
  O2-  O195  1  0.88559670  0.44449016  0.97188032  1
  O2-  O196  1  0.86632209  0.75204020  0.44071675  1
  O2-  O197  1  0.90261914  0.76900573  0.98232993  1
  O2-  O198  1  0.14442371  0.24771604  0.04850878  1
  O2-  O199  1  0.12213719  0.22338465  0.44841321  1
  O2-  O200  1  0.10711406  0.54396090  0.02696083  1
  O2-  O201  1  0.11959048  0.55739321  0.54036934  1
  O2-  O202  1  0.11500436  0.89127793  0.04319291  1
  O2-  O203  1  0.07003644  0.87050042  0.54586631  1
  O2-  O204  1  0.50685483  0.24527533  0.05452708  1
  O2-  O205  1  0.47015430  0.25255226  0.54321072  1
  O2-  O206  1  0.45327207  0.55806013  0.03496996  1
  O2-  O207  1  0.44761305  0.55709732  0.52848195  1
  O2-  O208  1  0.45133641  0.87609172  0.04071077  1
  O2-  O209  1  0.44900379  0.91804952  0.55856728  1
  O2-  O210  1  0.76278976  0.22057046  0.02301905  1
  O2-  O211  1  0.79272924  0.23953753  0.53186907  1
  O2-  O212  1  0.79920322  0.56897886  0.04260247  1
  O2-  O213  1  0.77844391  0.55901332  0.54022125  1
  O2-  O214  1  0.73783928  0.91684792  0.06362142  1
  O2-  O215  1  0.76746823  0.88628662  0.45850040  1
