# generated using pymatgen
data_H2O
_symmetry_space_group_name_H-M   'P 1'
_cell_length_a   13.49344823
_cell_length_b   13.49460556
_cell_length_c   14.68781117
_cell_angle_alpha   90.09913697
_cell_angle_beta   89.91535641
_cell_angle_gamma   120.00424853
_symmetry_Int_Tables_number   1
_chemical_formula_structural   H2O
_chemical_formula_sum   'H144 O72'
_cell_volume   2316.06904255
_cell_formula_units_Z   72
loop_
 _symmetry_equiv_pos_site_id
 _symmetry_equiv_pos_as_xyz
  1  'x, y, z'
loop_
 _atom_type_symbol
 _atom_type_oxidation_number
  H+  1.0
  O2-  -2.0
loop_
 _atom_site_type_symbol
 _atom_site_label
 _atom_site_symmetry_multiplicity
 _atom_site_fract_x
 _atom_site_fract_y
 _atom_site_fract_z
 _atom_site_occupancy
  H+  H0  1  0.12423286  0.82287769  0.21532082  1
  H+  H1  1  0.80685475  0.28663340  0.73268022  1
  H+  H2  1  0.82139836  0.66229372  0.46446913  1
  H+  H3  1  0.68028643  0.16849484  0.00359650  1
  H+  H4  1  0.31120894  0.92014208  0.84412143  1
  H+  H5  1  0.41454683  0.82516185  -0.00600662  1
  H+  H6  1  0.14465157  0.28260845  0.51069158  1
  H+  H7  1  0.60323636  0.45933831  0.26133392  1
  H+  H8  1  0.13867661  0.59939108  0.76220538  1
  H+  H9  1  0.80993079  0.67504484  0.98266517  1
  H+  H10  1  0.80183604  0.94507609  0.52329800  1
  H+  H11  1  0.36873675  0.19514046  0.01261097  1
  H+  H12  1  0.42393021  0.98990026  0.56282519  1
  H+  H13  1  1.02655785  0.85328442  0.75733666  1
  H+  H14  1  0.67643178  0.42039369  0.54596485  1
  H+  H15  1  0.29595394  0.44968414  0.48606893  1
  H+  H16  1  0.38492467  0.53977625  0.20889831  1
  H+  H17  1  0.62197700  0.14564741  0.75625510  1
  H+  H18  1  0.97502457  0.49585977  1.01920386  1
  H+  H19  1  0.11329108  0.66408838  -0.03979063  1
  H+  H20  1  0.20252927  0.43843892  -0.00770574  1
  H+  H21  1  0.80180924  0.16927551  1.00070129  1
  H+  H22  1  0.65159758  0.15311557  0.24732635  1
  H+  H23  1  0.48102288  0.26423961  0.52252441  1
  H+  H24  1  0.48955315  0.31401286  0.01486704  1
  H+  H25  1  0.81699472  0.25266253  0.51034472  1
  H+  H26  1  0.84601610  0.81233503  0.75925110  1
  H+  H27  1  0.58403100  0.11061621  0.33979509  1
  H+  H28  1  0.48200135  0.97192487  0.22050775  1
  H+  H29  1  0.02713726  0.26172887  0.01194680  1
  H+  H30  1  0.49590168  0.33244419  0.26261236  1
  H+  H31  1  0.78229076  0.61945824  0.21887414  1
  H+  H32  1  0.13110650  0.95519684  0.00214833  1
  H+  H33  1  0.64535559  0.83618925  0.25150072  1
  H+  H34  1  0.84590980  0.48460938  0.76810128  1
  H+  H35  1  0.51449496  0.67745091  0.77357432  1
  H+  H36  1  0.15873349  0.14350653  0.76298994  1
  H+  H37  1  0.15031509  0.28633991  0.75401671  1
  H+  H38  1  0.86255001  0.15666283  0.24461490  1
  H+  H39  1  0.08148515  0.86601318  0.13330864  1
  H+  H40  1  0.16340337  0.87813495  0.76247267  1
  H+  H41  1  0.16409100  0.15771880  0.19424167  1
  H+  H42  1  0.83442616  0.13463006  0.76126976  1
  H+  H43  1  0.85391816  0.69682625  0.76184774  1
  H+  H44  1  0.51210445  0.87932680  0.50317378  1
  H+  H45  1  0.61872553  0.49076022  0.46338618  1
  H+  H46  1  0.20723211  0.79555480  0.85275983  1
  H+  H47  1  0.82896112  0.97157046  0.22869958  1
  H+  H48  1  0.50006521  0.66858756  0.21596574  1
  H+  H49  1  0.48813798  0.17074477  0.23775414  1
  H+  H50  1  0.70323913  0.50843088  0.76361174  1
  H+  H51  1  0.29177907  0.80861292  0.53142641  1
  H+  H52  1  0.79253675  0.82662644  0.00896302  1
  H+  H53  1  0.62969216  0.77793675  1.00958210  1
  H+  H54  1  0.18450470  0.14179938  0.50102423  1
  H+  H55  1  0.18379315  0.45819413  0.48747968  1
  H+  H56  1  0.21043394  0.48985434  0.24299039  1
  H+  H57  1  0.97959100  0.49314819  0.24583475  1
  H+  H58  1  0.26172930  0.43755764  0.86712780  1
  H+  H59  1  0.51112303  0.15329914  0.99010431  1
  H+  H60  1  0.49686217  0.95775892  0.75779274  1
  H+  H61  1  0.18105214  0.12952204  1.03603975  1
  H+  H62  1  0.18280469  1.02356278  0.49195975  1
  H+  H63  1  0.94443222  0.79074257  0.23171857  1
  H+  H64  1  0.86529984  0.76335934  0.90068713  1
  H+  H65  1  0.66121444  0.85395704  0.53202834  1
  H+  H66  1  0.95462369  0.13764633  0.76194028  1
  H+  H67  1  0.82369525  0.30427348  0.22377573  1
  H+  H68  1  0.13619426  0.83135916  0.52429093  1
  H+  H69  1  0.00290766  0.84319599  0.00088491  1
  H+  H70  1  0.61093248  0.12934945  0.52318595  1
  H+  H71  1  0.16140624  0.63050534  0.23352401  1
  H+  H72  1  0.44769061  0.21353503  0.14990939  1
  H+  H73  1  0.49911309  0.13882792  0.76050083  1
  H+  H74  1  0.54008345  0.72571041  0.91724551  1
  H+  H75  1  0.51187488  0.79431876  0.78663867  1
  H+  H76  1  0.83412836  0.02277288  0.99411873  1
  H+  H77  1  0.46939277  -0.04675831  0.96563900  1
  H+  H78  1  0.14895887  0.60680559  0.53589778  1
  H+  H79  1  0.10748841  0.77799208  -0.04097938  1
  H+  H80  1  0.53265091  0.48254716  0.76865257  1
  H+  H81  1  0.14921292  1.00053240  0.76111951  1
  H+  H82  1  0.04462385  0.09107055  0.14189311  1
  H+  H83  1  0.48087216  0.75374596  0.48968103  1
  H+  H84  1  0.78011717  0.54331222  0.52966795  1
  H+  H85  1  0.81068975  0.33307010  -0.01958527  1
  H+  H86  1  1.03521056  0.48381736  0.52880499  1
  H+  H87  1  0.45211095  0.53508228  0.65771314  1
  H+  H88  1  0.79071421  0.67596540  0.50168689  1
  H+  H89  1  0.48207543  0.58366243  0.50647095  1
  H+  H90  1  0.99503057  0.87386025  0.45805503  1
  H+  H91  1  0.33615876  0.53151773  -0.01885731  1
  H+  H92  1  0.81418739  0.84373844  0.22845139  1
  H+  H93  1  0.46902975  0.28833782  0.75594819  1
  H+  H94  1  0.78722800  0.50545480  0.20625907  1
  H+  H95  1  0.84270137  0.42484829  0.51198981  1
  H+  H96  1  0.68802562  0.83371210  0.75951068  1
  H+  H97  1  -0.02821075  0.47756333  0.76743317  1
  H+  H98  1  0.48263373  0.85650790  0.21571144  1
  H+  H99  1  0.80452493  0.95834730  0.74933029  1
  H+  H100  1  0.46897970  0.46271163  0.51012254  1
  H+  H101  1  0.37888330  0.84703025  0.76284369  1
  H+  H102  1  0.84049232  0.10709133  0.49126708  1
  H+  H103  1  0.31147418  0.17632523  0.26301577  1
  H+  H104  1  0.31204167  0.82493905  0.22455789  1
  H+  H105  1  0.30137097  0.34935523  0.83883556  1
  H+  H106  1  1.02997938  0.15953663  0.51870692  1
  H+  H107  1  0.38258753  0.49096285  0.75196009  1
  H+  H108  1  0.88951206  0.49973777  0.31112759  1
  H+  H109  1  0.55764009  0.80125332  0.33513180  1
  H+  H110  1  0.77599353  0.53131468  0.67324610  1
  H+  H111  1  0.76546819  0.19683243  0.64982091  1
  H+  H112  1  0.35734718  0.15797256  0.52414132  1
  H+  H113  1  0.56875516  0.53108965  0.99593870  1
  H+  H114  1  0.43455236  0.90292636  0.63259438  1
  H+  H115  1  1.01107591  0.94892365  0.37379468  1
  H+  H116  1  0.88084995  0.78248681  0.32264742  1
  H+  H117  1  0.53737316  0.40516295  0.38766736  1
  H+  H118  1  0.98215410  0.16563347  0.26247272  1
  H+  H119  1  0.11580633  0.27635247  0.08469687  1
  H+  H120  1  0.78005134  0.22140111  0.13684392  1
  H+  H121  1  0.74695275  0.87432410  0.62671895  1
  H+  H122  1  0.28224413  0.14401265  0.76903713  1
  H+  H123  1  0.87045487  0.42615394  0.86018448  1
  H+  H124  1  0.47715395  0.60261330  0.10465460  1
  H+  H125  1  0.54926560  0.11497115  0.89934845  1
  H+  H126  1  0.57345121  0.44930117  0.86111160  1
  H+  H127  1  0.79097279  0.44347085  0.97237094  1
  H+  H128  1  0.00714093  0.60114676  0.07992453  1
  H+  H129  1  0.22416740  0.13938473  0.34495540  1
  H+  H130  1  0.09890660  0.52795494  0.66829929  1
  H+  H131  1  0.42446905  0.20810713  0.66587537  1
  H+  H132  1  0.10371444  0.21587745  0.65855559  1
  H+  H133  1  0.88433223  0.06271632  0.40912169  1
  H+  H134  1  0.09880858  0.88465935  0.60448656  1
  H+  H135  1  0.75691230  0.87154791  0.09904511  1
  H+  H136  1  0.10417950  0.54197089  0.15316662  1
  H+  H137  1  0.22627013  0.74834382  0.44160116  1
  H+  H138  1  0.87448978  0.09664868  0.90402294  1
  H+  H139  1  0.71280698  0.52385732  0.07656168  1
  H+  H140  1  0.20172789  0.11871496  0.92788677  1
  H+  H141  1  0.88975032  0.39763805  0.42133397  1
  H+  H142  1  0.23211982  0.80991117  0.30844840  1
  H+  H143  1  0.26035779  0.44850143  0.32165118  1
  O2-  O144  1  0.12299526  0.15360410  0.13480409  1
  O2-  O145  1  0.09765271  0.20928186  0.72692388  1
  O2-  O146  1  0.11740850  0.54665739  0.22007066  1
  O2-  O147  1  0.08522628  0.52483680  0.73634045  1
  O2-  O148  1  0.07519197  0.85562410  0.20063720  1
  O2-  O149  1  0.10913487  0.90459349  0.73606188  1
  O2-  O150  1  0.44328768  0.20685493  0.21749610  1
  O2-  O151  1  0.41864956  0.20832187  0.73474818  1
  O2-  O152  1  0.46563474  0.59336366  0.18288999  1
  O2-  O153  1  0.46016572  0.54424214  0.72485785  1
  O2-  O154  1  0.43982202  0.89392812  0.19422812  1
  O2-  O155  1  0.45568763  0.87701047  0.73473154  1
  O2-  O156  1  0.78794381  0.22315160  0.20516817  1
  O2-  O157  1  0.76379237  0.20454071  0.71727550  1
  O2-  O158  1  0.73949773  0.53987378  0.19280878  1
  O2-  O159  1  0.78527681  0.54885992  0.73946793  1
  O2-  O160  1  0.77820841  0.89077035  0.20917103  1
  O2-  O161  1  0.76385898  0.87591190  0.72709045  1
  O2-  O162  1  0.23851764  0.17076112  0.28281460  1
  O2-  O163  1  0.19876748  0.10155332  0.78893205  1
  O2-  O164  1  0.26587497  0.46368963  0.25586249  1
  O2-  O165  1  0.26934127  0.39287562  0.81103671  1
  O2-  O166  1  0.22870110  0.77870998  0.24805965  1
  O2-  O167  1  0.25700178  0.85738553  0.80503763  1
  O2-  O168  1  0.57256642  0.11249627  0.27427804  1
  O2-  O169  1  0.54299640  0.10162515  0.78131842  1
  O2-  O170  1  0.53013349  0.40987086  0.29312385  1
  O2-  O171  1  0.56965192  0.43932810  0.79355567  1
  O2-  O172  1  0.56188055  0.79626441  0.26876798  1
  O2-  O173  1  0.55220399  0.75280345  0.80659021  1
  O2-  O174  1  0.90005162  0.11499530  0.27125085  1
  O2-  O175  1  0.87339770  0.09277524  0.78295121  1
  O2-  O176  1  0.89455781  0.45771638  0.25888504  1
  O2-  O177  1  0.88303577  0.43662080  0.78824831  1
  O2-  O178  1  0.86370398  0.75755906  0.25784269  1
  O2-  O179  1  0.89159858  0.77807159  0.78321312  1
  O2-  O180  1  0.22614898  0.10526172  0.47362304  1
  O2-  O181  1  0.21914064  0.10468523  0.98986022  1
  O2-  O182  1  0.21789773  0.41507497  0.45978375  1
  O2-  O183  1  0.26052538  0.49874718  0.95133042  1
  O2-  O184  1  0.21392809  0.75246032  0.50661934  1
  O2-  O185  1  0.11421655  0.72175163  0.91851948  1
  O2-  O186  1  0.66387844  0.12763541  0.47796523  1
  O2-  O187  1  0.54960142  0.11145313  0.96722015  1
  O2-  O188  1  0.55034323  0.41479295  0.46177005  1
  O2-  O189  1  0.59221707  0.47189738  0.98026260  1
  O2-  O190  1  0.54393564  0.83146104  0.47957908  1
  O2-  O191  1  0.54140891  0.72417307  0.98736389  1
  O2-  O192  1  0.88102335  0.06365342  0.47619785  1
  O2-  O193  1  0.87343700  0.10232122  0.97156923  1
  O2-  O194  1  0.89215727  0.39484694  0.48785424  1
  O2-  O195  1  0.84419152  0.41556539  0.95574403  1
  O2-  O196  1  0.95169636  0.88779772  0.41048329  1
  O2-  O197  1  0.85731394  0.75792387  0.96828460  1
  O2-  O198  1  0.09114522  0.32071246  0.04710882  1
  O2-  O199  1  0.10841951  0.20679941  0.54329220  1
  O2-  O200  1  0.04019099  0.55785268  0.05328457  1
  O2-  O201  1  0.11346234  0.52530793  0.55513310  1
  O2-  O202  1  0.08428848  0.87230976  0.01750135  1
  O2-  O203  1  0.10387856  0.88145165  0.53779240  1
  O2-  O204  1  0.45021243  0.23248462  0.03237089  1
  O2-  O205  1  0.43454203  0.19094612  0.55405704  1
  O2-  O206  1  0.49425707  0.60368482  0.01663958  1
  O2-  O207  1  0.43554952  0.50934955  0.53551454  1
  O2-  O208  1  0.42505953  0.87433297  -0.05790499  1
  O2-  O209  1  0.42131417  0.91608508  0.56604200  1
  O2-  O210  1  0.76380993  0.21311820  0.02255256  1
  O2-  O211  1  0.77099015  0.17138620  0.53312418  1
  O2-  O212  1  0.71511126  0.52456803  0.00730115  1
  O2-  O213  1  0.75734235  0.47125178  0.56292668  1
  O2-  O214  1  0.74522914  0.86085544  0.03077774  1
  O2-  O215  1  0.73961673  0.87171197  0.55512003  1
