# generated using pymatgen
data_H2O
_symmetry_space_group_name_H-M   'P 1'
_cell_length_a   13.54278840
_cell_length_b   13.52304750
_cell_length_c   14.70140815
_cell_angle_alpha   90.02252709
_cell_angle_beta   89.93234087
_cell_angle_gamma   120.02678737
_symmetry_Int_Tables_number   1
_chemical_formula_structural   H2O
_chemical_formula_sum   'H144 O72'
_cell_volume   2331.06631000
_cell_formula_units_Z   72
loop_
 _symmetry_equiv_pos_site_id
 _symmetry_equiv_pos_as_xyz
  1  'x, y, z'
loop_
 _atom_type_symbol
 _atom_type_oxidation_number
  H+  1.0
  O2-  -2.0
loop_
 _atom_site_type_symbol
 _atom_site_label
 _atom_site_symmetry_multiplicity
 _atom_site_fract_x
 _atom_site_fract_y
 _atom_site_fract_z
 _atom_site_occupancy
  H+  H0  1  0.19694026  0.79484871  0.76675260  1
  H+  H1  1  0.81050428  0.30127496  0.00058065  1
  H+  H2  1  0.50113022  0.18658137  0.50172091  1
  H+  H3  1  0.79874390  0.61318641  0.50479800  1
  H+  H4  1  0.19721474  0.67967833  0.76825983  1
  H+  H5  1  0.16069710  0.34596002  -0.01214678  1
  H+  H6  1  0.46753847  0.33869729  0.77096115  1
  H+  H7  1  0.39246131  0.85194340  0.24550268  1
  H+  H8  1  0.30526152  0.48530061  0.75642004  1
  H+  H9  1  0.82085082  0.96874537  -0.00699124  1
  H+  H10  1  0.34329974  0.16973042  0.72507322  1
  H+  H11  1  0.36293191  0.17681510  1.00289254  1
  H+  H12  1  0.70127832  0.94625064  0.55450668  1
  H+  H13  1  0.18071509  0.16118782  0.75613070  1
  H+  H14  1  0.04679825  0.20983105  0.51667253  1
  H+  H15  1  0.83285510  0.79988272  0.25144290  1
  H+  H16  1  -0.02998049  0.47856886  0.76544968  1
  H+  H17  1  0.12637529  0.51197543  0.52491959  1
  H+  H18  1  0.52450980  0.69616825  -0.01253989  1
  H+  H19  1  0.81536015  0.51050552  0.23854682  1
  H+  H20  1  0.14487189  0.96937580  0.00579374  1
  H+  H21  1  0.15084542  0.30672480  0.74571260  1
  H+  H22  1  0.83479471  0.47399661  0.49118526  1
  H+  H23  1  0.37888931  0.85243038  0.75037246  1
  H+  H24  1  0.83608012  0.48101337  0.98787862  1
  H+  H25  1  0.19842591  0.16608077  0.54907604  1
  H+  H26  1  0.12470719  0.87528293  0.71300000  1
  H+  H27  1  0.82782922  0.30849573  0.50760086  1
  H+  H28  1  0.51409279  0.68584768  0.26252827  1
  H+  H29  1  0.85998419  0.37390017  0.25457020  1
  H+  H30  1  0.16441342  0.32824949  0.50858343  1
  H+  H31  1  0.94277829  0.80980423  0.74951915  1
  H+  H32  1  0.77775648  0.55453883  0.09596940  1
  H+  H33  1  0.49307342  0.50844937  0.24410963  1
  H+  H34  1  0.81271229  0.50633019  0.73157075  1
  H+  H35  1  0.69551908  0.17859200  0.00570737  1
  H+  H36  1  -0.04115066  0.48755557  0.49640253  1
  H+  H37  1  0.08715502  0.77729340  0.20903372  1
  H+  H38  1  0.85347652  0.14396339  0.75324473  1
  H+  H39  1  0.86169810  0.03633006  0.49976400  1
  H+  H40  1  0.52239857  0.81877549  0.75864444  1
  H+  H41  1  0.81987080  0.79235066  0.47106288  1
  H+  H42  1  1.00051034  0.49866183  1.02472718  1
  H+  H43  1  0.25081027  0.48031176  0.99777472  1
  H+  H44  1  0.48343545  0.63343142  0.73228643  1
  H+  H45  1  0.19335505  0.83326311  0.99437069  1
  H+  H46  1  0.40234138  0.50325090  0.02264799  1
  H+  H47  1  0.70099858  0.51549000  0.00599423  1
  H+  H48  1  0.82094496  0.19011444  0.22039459  1
  H+  H49  1  0.70983201  0.17808114  0.73777192  1
  H+  H50  1  0.13577585  0.16153638  0.22817767  1
  H+  H51  1  0.52170517  0.35627643  0.99521342  1
  H+  H52  1  0.17326327  0.01879308  0.25127995  1
  H+  H53  1  0.47229263  0.45977638  0.77192804  1
  H+  H54  1  0.56629052  0.12264473  0.86469905  1
  H+  H55  1  0.80826457  0.62519566  0.23582938  1
  H+  H56  1  0.51991925  0.80911298  0.26175177  1
  H+  H57  1  0.97311995  0.14750684  0.75662601  1
  H+  H58  1  0.70290778  0.85033872  0.99289677  1
  H+  H59  1  0.46685793  0.81164899  0.51760599  1
  H+  H60  1  0.63044192  0.46958163  0.48540166  1
  H+  H61  1  0.64339869  0.16038103  0.24453803  1
  H+  H62  1  0.18181381  0.14913773  -0.01714180  1
  H+  H63  1  0.52131416  0.51435221  0.01219954  1
  H+  H64  1  0.48724220  0.84734120  1.00749871  1
  H+  H65  1  0.64742879  0.16054080  0.47896276  1
  H+  H66  1  0.50984996  0.14117185  0.99465101  1
  H+  H67  1  0.83513947  0.19445888  0.50120900  1
  H+  H68  1  0.45490268  0.16116378  0.73629952  1
  H+  H69  1  0.47782144  0.29125786  0.23433782  1
  H+  H70  1  0.84937868  0.82003824  -0.02201602  1
  H+  H71  1  0.25553105  0.53073284  0.43534937  1
  H+  H72  1  0.62714202  0.79675747  0.48721858  1
  H+  H73  1  0.37205995  0.85599118  0.01444717  1
  H+  H74  1  0.19970411  0.72288251  0.26890995  1
  H+  H75  1  0.15415051  0.50841364  0.74577621  1
  H+  H76  1  0.14352194  0.63909148  0.52104032  1
  H+  H77  1  0.30633097  0.46399599  0.23856415  1
  H+  H78  1  0.78185964  0.23723447  0.13859120  1
  H+  H79  1  0.11016521  0.48857642  0.02811302  1
  H+  H80  1  0.49068026  0.97585474  0.74368084  1
  H+  H81  1  0.02755676  0.17713071  0.00163534  1
  H+  H82  1  0.63378302  0.47152869  0.25497028  1
  H+  H83  1  0.69017225  0.83201181  0.24579241  1
  H+  H84  1  1.02661445  0.56909781  0.24373985  1
  H+  H85  1  0.85068821  0.15525670  0.98472412  1
  H+  H86  1  0.51548723  0.02350743  0.99391695  1
  H+  H87  1  0.48020730  0.17463616  0.23168185  1
  H+  H88  1  0.63718421  0.81350489  0.75821056  1
  H+  H89  1  0.87829349  0.44013867  0.89955694  1
  H+  H90  1  0.80529516  0.94684842  0.22075522  1
  H+  H91  1  0.55390215  0.43057926  0.34453466  1
  H+  H92  1  0.16364704  0.03943628  0.74242819  1
  H+  H93  1  0.22839656  0.76873962  0.41941298  1
  H+  H94  1  0.85476544  0.35856252  0.75773859  1
  H+  H95  1  0.95282357  0.79976776  0.25034594  1
  H+  H96  1  0.30240249  0.14778867  0.53926772  1
  H+  H97  1  0.60186893  0.22487016  0.79686990  1
  H+  H98  1  0.29537884  0.79936542  0.51277377  1
  H+  H99  1  0.51337059  0.35009330  0.48419624  1
  H+  H100  1  0.96215756  0.14346406  0.23535625  1
  H+  H101  1  0.82065332  0.96548369  0.74503875  1
  H+  H102  1  0.49237271  0.61491832  0.50479063  1
  H+  H103  1  0.48973649  0.49358550  0.50454974  1
  H+  H104  1  0.33138975  0.48554501  0.48072070  1
  H+  H105  1  0.87425742  0.76741096  0.84411608  1
  H+  H106  1  0.28839643  0.13699008  0.24580495  1
  H+  H107  1  0.85026989  0.70095720  0.98576990  1
  H+  H108  1  0.46162878  0.88759074  0.15040156  1
  H+  H109  1  0.22158507  0.44217190  0.84564812  1
  H+  H110  1  0.09453536  0.87095770  0.14147749  1
  H+  H111  1  0.11643929  0.23542603  0.65442233  1
  H+  H112  1  0.56951101  0.12545215  0.39041394  1
  H+  H113  1  0.46004966  0.22543206  0.59230824  1
  H+  H114  1  0.24279119  0.85177628  0.29047157  1
  H+  H115  1  0.47163923  0.55914233  0.15351459  1
  H+  H116  1  0.53924968  0.42800818  0.90436428  1
  H+  H117  1  0.44543539  0.86924322  0.60523985  1
  H+  H118  1  0.23127226  0.42060504  0.32589689  1
  H+  H119  1  0.54890952  0.75616469  0.39766329  1
  H+  H120  1  0.89188206  0.11494389  0.89635315  1
  H+  H121  1  0.95089739  0.09086056  0.41981840  1
  H+  H122  1  0.44460051  0.54739347  0.64587711  1
  H+  H123  1  0.10497539  0.21201832  0.09170319  1
  H+  H124  1  0.02686644  0.84932671  0.00123730  1
  H+  H125  1  0.86154234  0.75189514  0.38450609  1
  H+  H126  1  0.86508918  0.10162598  0.31267572  1
  H+  H127  1  0.78543760  0.21813571  0.64572614  1
  H+  H128  1  0.07008191  0.89143752  0.62597924  1
  H+  H129  1  0.12256244  0.82559883  0.51036642  1
  H+  H130  1  0.53178173  0.03623015  0.24932908  1
  H+  H131  1  0.23636166  0.78530902  0.91350085  1
  H+  H132  1  0.80978282  0.83963718  0.74099877  1
  H+  H133  1  0.88892145  0.44429732  0.34837554  1
  H+  H134  1  0.21814950  0.10771356  0.89349671  1
  H+  H135  1  0.80478765  0.61976969  0.73156779  1
  H+  H136  1  0.14375404  0.28469508  0.22709499  1
  H+  H137  1  0.55098418  0.76939124  0.89609685  1
  H+  H138  1  0.99934052  0.81322964  0.49488390  1
  H+  H139  1  0.76719460  0.53877226  0.59815908  1
  H+  H140  1  0.43720126  0.21188953  0.09521405  1
  H+  H141  1  0.09881616  0.60250103  0.15356476  1
  H+  H142  1  0.76661261  0.90128060  0.61475219  1
  H+  H143  1  0.10843642  0.55516660  0.66372199  1
  O2-  O144  1  0.09546746  0.20295301  0.20594745  1
  O2-  O145  1  0.10925263  0.22642844  0.72214275  1
  O2-  O146  1  0.09258903  0.63491816  0.21352503  1
  O2-  O147  1  0.11409860  0.55273892  0.73141539  1
  O2-  O148  1  0.08921427  0.85144477  0.20834239  1
  O2-  O149  1  0.07155828  0.90035516  0.69591671  1
  O2-  O150  1  0.43633036  0.21157921  0.20974919  1
  O2-  O151  1  0.42739912  0.20961467  0.71025195  1
  O2-  O152  1  0.45625709  0.55220162  0.22014413  1
  O2-  O153  1  0.43781058  0.55176751  0.71329222  1
  O2-  O154  1  0.47042069  0.89103761  0.21848472  1
  O2-  O155  1  0.45815975  0.89593726  0.72529708  1
  O2-  O156  1  0.78484473  0.23722390  0.20693145  1
  O2-  O157  1  0.78890204  0.21673044  0.71396148  1
  O2-  O158  1  0.76985498  0.54400964  0.21306073  1
  O2-  O159  1  0.77104838  0.54210550  0.70494216  1
  O2-  O160  1  0.76851424  0.86301531  0.22098254  1
  O2-  O161  1  0.77455471  0.88633894  0.71890949  1
  O2-  O162  1  0.20735904  0.10018842  0.26542717  1
  O2-  O163  1  0.21307668  0.11189663  0.77554560  1
  O2-  O164  1  0.22561859  0.41888726  0.25914656  1
  O2-  O165  1  0.22358706  0.44431341  0.77785714  1
  O2-  O166  1  0.26178548  0.79223818  0.30303945  1
  O2-  O167  1  0.24282856  0.76293722  0.78851130  1
  O2-  O168  1  0.56320764  0.11758174  0.26775371  1
  O2-  O169  1  0.57683434  0.14341212  0.79675245  1
  O2-  O170  1  0.55231335  0.43117922  0.27617514  1
  O2-  O171  1  0.47825953  0.40276801  0.81033422  1
  O2-  O172  1  0.55382417  0.76478299  0.28929672  1
  O2-  O173  1  0.55544492  0.77082147  0.77810349  1
  O2-  O174  1  0.87657810  0.10402827  0.24712175  1
  O2-  O175  1  0.89179509  0.10304118  0.77842130  1
  O2-  O176  1  0.89437166  0.45252460  0.28092605  1
  O2-  O177  1  0.88752201  0.43755294  0.78205092  1
  O2-  O178  1  0.87328914  0.75814844  0.27515189  1
  O2-  O179  1  0.86465447  0.76376159  0.77580018  1
  O2-  O180  1  0.22729722  0.11610850  0.56879549  1
  O2-  O181  1  0.22214103  0.10844576  0.96162865  1
  O2-  O182  1  0.25286419  0.45975862  0.45185658  1
  O2-  O183  1  0.18809403  0.42514635  0.96063208  1
  O2-  O184  1  0.21503566  0.76268714  0.48643571  1
  O2-  O185  1  0.24398566  0.80206906  0.97900629  1
  O2-  O186  1  0.56795008  0.12621886  0.45785853  1
  O2-  O187  1  0.55387410  0.10495628  0.97072700  1
  O2-  O188  1  0.55123318  0.43210555  0.45977726  1
  O2-  O189  1  0.56369772  0.43624550  0.97101017  1
  O2-  O190  1  0.54774071  0.74936114  0.46671509  1
  O2-  O191  1  0.55216454  0.77439576  0.96397688  1
  O2-  O192  1  0.91120755  0.10962893  0.46602748  1
  O2-  O193  1  0.89342001  0.11653510  0.96425543  1
  O2-  O194  1  0.88209839  0.43974415  0.46879951  1
  O2-  O195  1  0.87151357  0.43483925  0.96722571  1
  O2-  O196  1  0.85494377  0.74745881  0.45357066  1
  O2-  O197  1  0.89148079  0.77859028  0.95788116  1
  O2-  O198  1  0.10920880  0.21766567  0.02327916  1
  O2-  O199  1  0.12448018  0.25488657  0.54160668  1
  O2-  O200  1  0.07505463  0.52912821  0.05623993  1
  O2-  O201  1  0.09399192  0.55757751  0.54735059  1
  O2-  O202  1  0.10510378  0.88928869  0.02920302  1
  O2-  O203  1  0.07407877  0.85887091  0.52475224  1
  O2-  O204  1  0.44278471  0.21382779  0.02680378  1
  O2-  O205  1  0.46102780  0.22795898  0.52477643  1
  O2-  O206  1  0.48177639  0.55747976  0.03589308  1
  O2-  O207  1  0.44919477  0.53482469  0.52880352  1
  O2-  O208  1  0.45487030  0.89267463  0.03498976  1
  O2-  O209  1  0.42618380  0.85029989  0.54042240  1
  O2-  O210  1  0.77726646  0.22083492  0.02456073  1
  O2-  O211  1  0.79214804  0.22675716  0.52987140  1
  O2-  O212  1  0.78159610  0.55954146  0.02787057  1
  O2-  O213  1  0.76405473  0.53388719  0.52850789  1
  O2-  O214  1  0.78537902  0.88596935  0.00588613  1
  O2-  O215  1  0.75445394  0.91764422  0.54838176  1
