# generated using pymatgen
data_H2O
_symmetry_space_group_name_H-M   'P 1'
_cell_length_a   13.52098858
_cell_length_b   13.50390839
_cell_length_c   14.69814466
_cell_angle_alpha   90.04960037
_cell_angle_beta   90.01189117
_cell_angle_gamma   119.99645932
_symmetry_Int_Tables_number   1
_chemical_formula_structural   H2O
_chemical_formula_sum   'H144 O72'
_cell_volume   2324.21495044
_cell_formula_units_Z   72
loop_
 _symmetry_equiv_pos_site_id
 _symmetry_equiv_pos_as_xyz
  1  'x, y, z'
loop_
 _atom_type_symbol
 _atom_type_oxidation_number
  H+  1.0
  O2-  -2.0
loop_
 _atom_site_type_symbol
 _atom_site_label
 _atom_site_symmetry_multiplicity
 _atom_site_fract_x
 _atom_site_fract_y
 _atom_site_fract_z
 _atom_site_occupancy
  H+  H0  1  0.50036761  0.66225318  0.21896202  1
  H+  H1  1  0.81275085  0.29947319  0.52501424  1
  H+  H2  1  0.18763085  0.83556098  0.75988133  1
  H+  H3  1  0.88698669  0.73591165  0.25036413  1
  H+  H4  1  0.52855769  0.70982315  0.75084810  1
  H+  H5  1  0.70040235  0.18281092  0.01149960  1
  H+  H6  1  0.17768526  0.36498868  1.00522515  1
  H+  H7  1  0.37196454  0.84022293  0.20348237  1
  H+  H8  1  0.17963384  0.70096895  0.98325962  1
  H+  H9  1  0.65178243  0.80511228  -0.00699640  1
  H+  H10  1  0.73242021  0.17991041  0.23669825  1
  H+  H11  1  0.47931363  0.50571776  0.48258556  1
  H+  H12  1  0.18565120  0.45486411  0.47990851  1
  H+  H13  1  0.84522667  0.87680448  0.23961850  1
  H+  H14  1  0.62194512  0.79798667  0.50407357  1
  H+  H15  1  0.69263758  0.50075700  0.77094111  1
  H+  H16  1  0.85422783  0.19204609  0.24026251  1
  H+  H17  1  0.78928886  0.93430421  0.50662097  1
  H+  H18  1  0.59965223  0.22950644  0.79129573  1
  H+  H19  1  0.48918164  0.17267286  0.49729692  1
  H+  H20  1  1.00547113  0.15814606  0.76033037  1
  H+  H21  1  0.45149201  0.16649946  0.72785115  1
  H+  H22  1  0.15009051  0.18791339  0.01881851  1
  H+  H23  1  0.14650785  0.97891106  0.51749330  1
  H+  H24  1  0.81822623  0.16808597  0.74841520  1
  H+  H25  1  0.19396903  0.67933654  0.23964338  1
  H+  H26  1  0.12696144  0.28536391  0.76673671  1
  H+  H27  1  0.49301821  -0.01714554  0.75326868  1
  H+  H28  1  0.84470337  0.80490673  0.48749181  1
  H+  H29  1  0.40978636  0.16556878  0.22614096  1
  H+  H30  1  0.70385180  0.84759504  0.74062708  1
  H+  H31  1  0.01336761  0.49239174  0.72148640  1
  H+  H32  1  1.04305801  0.50416990  0.23756204  1
  H+  H33  1  0.28248629  0.14871252  0.74770541  1
  H+  H34  1  0.36402141  0.84512607  0.53103872  1
  H+  H35  1  0.26106885  0.44914577  0.78774347  1
  H+  H36  1  0.88706334  0.45009613  0.59359645  1
  H+  H37  1  0.93857594  0.11157213  0.51284230  1
  H+  H38  1  0.78043061  0.53909726  0.85080019  1
  H+  H39  1  0.58912082  0.44316936  0.25095342  1
  H+  H40  1  0.65058843  0.83206668  0.24787734  1
  H+  H41  1  0.29205795  0.14934376  0.98326975  1
  H+  H42  1  0.84974640  0.48717667  0.50478201  1
  H+  H43  1  0.51756250  0.03561118  0.98383722  1
  H+  H44  1  0.03618236  0.51894555  0.01002851  1
  H+  H45  1  0.85072543  0.35307626  0.99290835  1
  H+  H46  1  0.98216408  0.82747736  0.99061028  1
  H+  H47  1  0.46391088  0.28950153  0.72391481  1
  H+  H48  1  0.45077361  0.33274992  0.25036692  1
  H+  H49  1  0.50391504  0.47839924  -0.02070480  1
  H+  H50  1  0.45607448  0.89499674  0.06783196  1
  H+  H51  1  0.78974790  0.22199814  0.09579550  1
  H+  H52  1  0.03273897  0.85428634  0.51500022  1
  H+  H53  1  0.64602425  0.13856052  0.49925428  1
  H+  H54  1  0.11951498  0.53872509  0.64483114  1
  H+  H55  1  0.47131972  -0.03315264  0.21268076  1
  H+  H56  1  0.99982627  0.17802702  0.26798948  1
  H+  H57  1  0.17895183  0.86606170  0.23909127  1
  H+  H58  1  0.52148492  0.47868932  0.74033233  1
  H+  H59  1  0.84586942  1.01779620  0.76596608  1
  H+  H60  1  0.84815261  0.14423775  -0.00829957  1
  H+  H61  1  0.61829218  0.47125558  -0.02910769  1
  H+  H62  1  0.16160371  0.63165405  0.52476867  1
  H+  H63  1  0.36653502  0.52170354  1.00275550  1
  H+  H64  1  0.51687685  0.15517387  0.99517439  1
  H+  H65  1  0.19510558  0.17497347  0.48790863  1
  H+  H66  1  0.46905496  0.29606374  -0.00018059  1
  H+  H67  1  0.53236601  0.42699659  0.83588230  1
  H+  H68  1  0.22281254  0.78994562  0.85954327  1
  H+  H69  1  0.49550933  0.67314806  0.48934990  1
  H+  H70  1  0.70061556  0.17126468  0.74954674  1
  H+  H71  1  0.75970713  0.53823480  0.30277538  1
  H+  H72  1  0.20007716  0.37951207  0.32637452  1
  H+  H73  1  0.81807647  0.50489051  0.99188154  1
  H+  H74  1  0.18701978  0.98927951  0.23424048  1
  H+  H75  1  0.86497050  0.70799517  0.97981813  1
  H+  H76  1  0.46009374  0.52887425  0.22792984  1
  H+  H77  1  0.53420867  0.83216326  0.23780364  1
  H+  H78  1  0.37161034  0.86289235  -0.01494388  1
  H+  H79  1  0.18063836  0.82651070  0.52047008  1
  H+  H80  1  0.87879311  0.18615232  0.49877924  1
  H+  H81  1  0.13325548  0.48801469  0.74992442  1
  H+  H82  1  0.90058793  0.42835115  0.90379718  1
  H+  H83  1  0.13766978  0.16545305  0.75196843  1
  H+  H84  1  0.17941070  0.48693558  1.00004306  1
  H+  H85  1  0.80767357  0.63282466  0.48359413  1
  H+  H86  1  0.12426507  0.89651322  0.09720675  1
  H+  H87  1  0.51871605  0.67478015  -0.01325418  1
  H+  H88  1  0.88260053  0.09520247  0.86010013  1
  H+  H89  1  0.84916248  1.02567298  -0.00453535  1
  H+  H90  1  0.39615579  0.53835885  0.70394521  1
  H+  H91  1  0.84163803  0.35032586  0.72420059  1
  H+  H92  1  0.85397311  0.69967542  0.77047398  1
  H+  H93  1  1.03319999  0.84552996  0.74328244  1
  H+  H94  1  0.03220010  0.18591740  0.02207302  1
  H+  H95  1  0.52430712  0.82549698  0.76824921  1
  H+  H96  1  0.15406962  0.97407265  0.00751149  1
  H+  H97  1  0.82511027  0.84885045  1.01136410  1
  H+  H98  1  0.86805156  0.36219274  0.26136500  1
  H+  H99  1  0.16793862  1.02641123  0.75521494  1
  H+  H100  1  0.31649359  0.84218877  0.76859199  1
  H+  H101  1  0.17922156  0.82150478  0.98578154  1
  H+  H102  1  0.49827964  0.80224458  0.51008735  1
  H+  H103  1  0.50514158  0.34520933  0.47250856  1
  H+  H104  1  0.82210673  0.84514559  0.73806513  1
  H+  H105  1  0.04297862  0.51467023  0.52242055  1
  H+  H106  1  0.51646363  0.41385542  0.34868498  1
  H+  H107  1  0.55062694  0.15638834  0.28518193  1
  H+  H108  1  0.41241659  0.21680536  0.08692947  1
  H+  H109  1  0.74319198  0.55062598  0.56551967  1
  H+  H110  1  0.84199659  0.99209407  0.23801609  1
  H+  H111  1  0.57121876  0.76996038  0.89619900  1
  H+  H112  1  0.47540173  0.56667157  0.62225351  1
  H+  H113  1  0.90244012  0.78632326  0.39837116  1
  H+  H114  1  0.84280164  0.47204786  0.74072007  1
  H+  H115  1  0.45189193  0.89931145  0.66715595  1
  H+  H116  1  1.00478039  0.84942248  0.26204360  1
  H+  H117  1  0.43672667  0.07081224  0.33415334  1
  H+  H118  1  0.20592342  0.10960215  0.89942556  1
  H+  H119  1  0.91204283  0.44212366  0.34803904  1
  H+  H120  1  0.76803582  0.46548946  0.22749106  1
  H+  H121  1  0.76828482  0.87094314  0.60259598  1
  H+  H122  1  0.13296984  0.26242064  0.16360328  1
  H+  H123  1  0.11226315  0.89055002  0.65322009  1
  H+  H124  1  0.22309981  0.18940725  0.24171159  1
  H+  H125  1  0.18850140  0.42494850  0.87691636  1
  H+  H126  1  0.48940855  0.95618825  0.52240793  1
  H+  H127  1  0.62099686  0.46925690  0.45981741  1
  H+  H128  1  0.11836350  0.55952863  0.09676470  1
  H+  H129  1  0.56279492  0.13286550  0.86509741  1
  H+  H130  1  0.45132529  0.56705687  0.09124770  1
  H+  H131  1  0.09188124  0.26946242  0.49310434  1
  H+  H132  1  0.21576311  0.78526099  0.43438433  1
  H+  H133  1  0.29374451  0.14621560  0.48064013  1
  H+  H134  1  0.91853437  0.13784980  0.35451022  1
  H+  H135  1  0.15128212  0.48739695  0.22666652  1
  H+  H136  1  0.77536108  0.20759660  0.60533083  1
  H+  H137  1  0.35767937  0.49754457  0.49151436  1
  H+  H138  1  0.27828824  0.75738737  0.31461005  1
  H+  H139  1  0.58172623  0.07266760  0.41132406  1
  H+  H140  1  0.78400226  0.88996593  0.10005170  1
  H+  H141  1  0.44120215  0.21293835  0.58052703  1
  H+  H142  1  0.76771692  0.55300911  0.06503565  1
  H+  H143  1  0.90139665  0.79198136  0.84908150  1
  O2-  O144  1  0.13865453  0.25990236  0.23188633  1
  O2-  O145  1  0.09041831  0.20616573  0.73864642  1
  O2-  O146  1  0.12115338  0.53894446  0.21051999  1
  O2-  O147  1  0.10141521  0.53106885  0.71464382  1
  O2-  O148  1  0.13935533  0.90677878  0.21832065  1
  O2-  O149  1  0.11497280  0.88857115  0.72207418  1
  O2-  O150  1  0.37498816  0.21277122  0.20661516  1
  O2-  O151  1  0.41789477  0.20938325  0.69991186  1
  O2-  O152  1  0.45206291  0.58390566  0.19037164  1
  O2-  O153  1  0.47744386  0.57358344  0.69040497  1
  O2-  O154  1  0.45304733  0.89243501  0.18661876  1
  O2-  O155  1  0.45073159  0.90161800  0.73537530  1
  O2-  O156  1  0.80982164  0.22857783  0.21400194  1
  O2-  O157  1  0.77789773  0.20653326  0.72137183  1
  O2-  O158  1  0.72954136  0.50908386  0.24204879  1
  O2-  O159  1  0.77712699  0.54066535  0.78421244  1
  O2-  O160  1  0.80273035  0.91255981  0.21390128  1
  O2-  O161  1  0.78250086  0.88606671  0.71386660  1
  O2-  O162  1  0.26215917  0.14383393  0.25336594  1
  O2-  O163  1  0.20423842  0.10858636  0.77547295  1
  O2-  O164  1  0.19624543  0.38294225  0.25880927  1
  O2-  O165  1  0.18109973  0.41606254  0.80534447  1
  O2-  O166  1  0.23869186  0.76147558  0.26044894  1
  O2-  O167  1  0.23265885  0.79956360  0.78722451  1
  O2-  O168  1  0.47346611  0.09263728  0.27443958  1
  O2-  O169  1  0.56768784  0.14662661  0.79530718  1
  O2-  O170  1  0.50866726  0.41337763  0.27568648  1
  O2-  O171  1  0.54607789  0.42752478  0.76851952  1
  O2-  O172  1  0.56874397  0.78911066  0.26426874  1
  O2-  O173  1  0.56602766  0.78412859  0.78385956  1
  O2-  O174  1  0.91769389  0.13294489  0.28690565  1
  O2-  O175  1  0.88440147  0.09796350  0.79070228  1
  O2-  O176  1  0.90362585  0.44369056  0.28207097  1
  O2-  O177  1  0.88420175  0.43525104  0.71201057  1
  O2-  O178  1  0.92265822  0.80896767  0.28260432  1
  O2-  O179  1  0.89605529  0.78350650  0.78072410  1
  O2-  O180  1  0.21020704  0.11172064  0.47668781  1
  O2-  O181  1  0.20894172  0.10988736  0.96688284  1
  O2-  O182  1  0.22427319  0.41412113  0.45526872  1
  O2-  O183  1  0.21610453  0.44308389  0.97569961  1
  O2-  O184  1  0.22045138  0.78310455  0.50070295  1
  O2-  O185  1  0.21588920  0.78000470  0.95659344  1
  O2-  O186  1  0.56670613  0.08993591  0.47265493  1
  O2-  O187  1  0.56274199  0.12209038  0.97017232  1
  O2-  O188  1  0.53762236  0.42422308  0.44379859  1
  O2-  O189  1  0.53700538  0.43254566  0.95247360  1
  O2-  O190  1  0.53904264  0.76199741  0.48306239  1
  O2-  O191  1  0.57147708  0.76076151  0.96451646  1
  O2-  O192  1  0.93776349  0.16907574  0.47322971  1
  O2-  O193  1  0.89052812  0.10526604  0.97059882  1
  O2-  O194  1  0.89205828  0.44851088  0.52577270  1
  O2-  O195  1  0.89146901  0.43508388  0.96900178  1
  O2-  O196  1  0.88973627  0.76993773  0.46525625  1
  O2-  O197  1  0.90280261  0.79004962  0.96374267  1
  O2-  O198  1  0.11277971  0.23022294  0.04350910  1
  O2-  O199  1  0.17386755  0.30717123  0.51116770  1
  O2-  O200  1  0.11771272  0.56428141  0.02851598  1
  O2-  O201  1  0.12471423  0.54915210  0.54140145  1
  O2-  O202  1  0.11794751  0.89268693  0.02949656  1
  O2-  O203  1  0.11115064  0.89751929  0.54091478  1
  O2-  O204  1  0.43002415  0.21520115  0.02183995  1
  O2-  O205  1  0.45057665  0.21621189  0.51295528  1
  O2-  O206  1  0.44891254  0.55928682  0.01981788  1
  O2-  O207  1  0.44134872  0.54656389  0.50876443  1
  O2-  O208  1  0.45348869  0.90409765  0.00084465  1
  O2-  O209  1  0.44589960  0.87772097  0.54985349  1
  O2-  O210  1  0.78372636  0.22145760  0.02809857  1
  O2-  O211  1  0.77794317  0.21565858  0.53731072  1
  O2-  O212  1  0.77610840  0.54853410  -0.00074149  1
  O2-  O213  1  0.75860424  0.54869610  0.50070358  1
  O2-  O214  1  0.77713781  0.88210821  0.03168621  1
  O2-  O215  1  0.75526036  0.85827373  0.53404001  1
