# generated using pymatgen
data_H2O
_symmetry_space_group_name_H-M   'P 1'
_cell_length_a   13.49369512
_cell_length_b   13.49803941
_cell_length_c   14.70899516
_cell_angle_alpha   89.99477665
_cell_angle_beta   90.02524777
_cell_angle_gamma   119.93527435
_symmetry_Int_Tables_number   1
_chemical_formula_structural   H2O
_chemical_formula_sum   'H144 O72'
_cell_volume   2321.65701524
_cell_formula_units_Z   72
loop_
 _symmetry_equiv_pos_site_id
 _symmetry_equiv_pos_as_xyz
  1  'x, y, z'
loop_
 _atom_type_symbol
 _atom_type_oxidation_number
  H+  1.0
  O2-  -2.0
loop_
 _atom_site_type_symbol
 _atom_site_label
 _atom_site_symmetry_multiplicity
 _atom_site_fract_x
 _atom_site_fract_y
 _atom_site_fract_z
 _atom_site_occupancy
  H+  H0  1  0.85544401  0.73506796  0.85394474  1
  H+  H1  1  0.19292576  0.13638635  0.48557970  1
  H+  H2  1  0.51884592  0.82098392  0.48760479  1
  H+  H3  1  0.11870773  0.89029307  0.57702597  1
  H+  H4  1  0.50788885  0.14652058  0.47162413  1
  H+  H5  1  0.30887852  0.46276839  0.28264722  1
  H+  H6  1  0.87986398  0.61510064  0.76359102  1
  H+  H7  1  0.11153551  0.55365059  0.65222666  1
  H+  H8  1  0.19869824  0.81415468  0.74798274  1
  H+  H9  1  0.28054076  0.89272352  0.93831836  1
  H+  H10  1  0.82084364  0.82194001  0.50768487  1
  H+  H11  1  -0.01938758  0.50223457  0.76347557  1
  H+  H12  1  0.84683024  0.13891015  0.25847101  1
  H+  H13  1  0.59404371  0.13619602  0.87026430  1
  H+  H14  1  0.48439708  0.61831764  0.24182715  1
  H+  H15  1  0.01510622  0.17453418  0.01423364  1
  H+  H16  1  0.03514399  0.16876847  0.51254455  1
  H+  H17  1  0.29435976  0.14154779  0.25961914  1
  H+  H18  1  0.16514378  0.66162886  -0.00620473  1
  H+  H19  1  0.47198645  0.91818110  0.03157890  1
  H+  H20  1  0.14518470  0.28244502  0.74267549  1
  H+  H21  1  0.71632469  0.21889769  0.74078731  1
  H+  H22  1  0.82589493  0.66768577  0.25100068  1
  H+  H23  1  0.98957837  0.82437378  0.47191757  1
  H+  H24  1  0.50768860  0.02782743  0.47203289  1
  H+  H25  1  0.79053789  0.57386601  0.59872423  1
  H+  H26  1  0.27999203  0.13209425  0.76201967  1
  H+  H27  1  0.48425239  0.63486133  0.72363334  1
  H+  H28  1  0.16224002  0.54182773  -0.00061363  1
  H+  H29  1  0.47106445  0.15852211  0.22111584  1
  H+  H30  1  0.36103337  0.84262600  0.49760029  1
  H+  H31  1  0.43875350  0.22700616  0.84670586  1
  H+  H32  1  0.51903056  0.48417802  0.73602539  1
  H+  H33  1  0.18487376  0.13568010  0.97880681  1
  H+  H34  1  0.13878053  0.94675563  0.73041932  1
  H+  H35  1  0.85261541  1.13030942  0.49101932  1
  H+  H36  1  0.72636928  0.74492383  0.57569759  1
  H+  H37  1  0.51845116  0.47802486  0.49630356  1
  H+  H38  1  0.55511786  0.76706501  0.34730665  1
  H+  H39  1  -0.03639401  0.13413700  0.25977929  1
  H+  H40  1  0.13501202  0.94351569  0.00277907  1
  H+  H41  1  0.73454986  0.20133840  -0.00117189  1
  H+  H42  1  0.16327926  -0.02803261  0.24459570  1
  H+  H43  1  0.84256018  0.34564547  0.76155082  1
  H+  H44  1  0.98300075  0.50897821  0.98893058  1
  H+  H45  1  0.89008943  0.12742448  0.87212356  1
  H+  H46  1  0.85247042  0.20361642  0.01788135  1
  H+  H47  1  0.29933010  0.48126913  -0.01122284  1
  H+  H48  1  0.60494342  0.76314049  0.03676722  1
  H+  H49  1  0.69937839  0.17812566  0.23887426  1
  H+  H50  1  0.53315631  0.48488306  0.27042790  1
  H+  H51  1  0.87207742  0.70159342  0.47675126  1
  H+  H52  1  0.63475267  0.80944465  0.49085944  1
  H+  H53  1  0.22676350  0.43271085  0.41491312  1
  H+  H54  1  0.69620096  0.51711108  0.25333846  1
  H+  H55  1  0.48236756  0.31036390  0.76231551  1
  H+  H56  1  0.96372682  0.79906319  0.98782932  1
  H+  H57  1  0.50276443  0.87820305  0.71315595  1
  H+  H58  1  0.84523835  0.05398240  0.78094532  1
  H+  H59  1  0.51637389  0.35820115  0.49054931  1
  H+  H60  1  0.90155029  0.05416724  1.01791898  1
  H+  H61  1  0.87183567  0.38326796  0.99272636  1
  H+  H62  1  0.03480043  0.52992421  0.23469010  1
  H+  H63  1  0.29788812  0.47824773  0.75672839  1
  H+  H64  1  0.24553316  0.28002830  0.07079968  1
  H+  H65  1  0.51176753  0.80394461  0.25972527  1
  H+  H66  1  0.15239401  0.63178818  0.51088545  1
  H+  H67  1  0.52700046  0.17351719  0.75779538  1
  H+  H68  1  0.34060205  0.82178891  0.00354017  1
  H+  H69  1  0.46950874  0.47886589  1.01066632  1
  H+  H70  1  0.43799019  0.54900591  0.64143708  1
  H+  H71  1  0.81692997  0.51231721  1.01896503  1
  H+  H72  1  0.03670736  0.81616779  0.71923030  1
  H+  H73  1  0.36353857  0.83869408  0.25421909  1
  H+  H74  1  0.80925172  0.62518164  0.01714680  1
  H+  H75  1  0.74089273  0.91686587  0.00823528  1
  H+  H76  1  0.46420015  0.58966131  0.04273776  1
  H+  H77  1  0.65707481  0.84155810  0.71863599  1
  H+  H78  1  0.48881053  0.76762320  0.04884442  1
  H+  H79  1  0.48190463  0.16064091  0.97760529  1
  H+  H80  1  0.14229123  0.83025966  0.00490093  1
  H+  H81  1  0.68931312  0.83877696  0.23883710  1
  H+  H82  1  0.85095824  0.36337331  0.26479206  1
  H+  H83  1  0.34373641  0.16219577  0.48818400  1
  H+  H84  1  0.57742260  0.79691364  0.63387124  1
  H+  H85  1  0.51913676  1.02154927  0.25022857  1
  H+  H86  1  0.85333527  0.47480882  0.49673091  1
  H+  H87  1  0.82978555  0.80501267  0.25439642  1
  H+  H88  1  0.18679227  0.47775958  0.50191673  1
  H+  H89  1  0.44401465  0.89851445  0.58348670  1
  H+  H90  1  0.14901378  0.16617074  0.25682900  1
  H+  H91  1  0.18578995  0.81579159  0.48415915  1
  H+  H92  1  0.69661289  0.16452376  0.49380937  1
  H+  H93  1  0.82484437  0.85472511  0.75099400  1
  H+  H94  1  0.18330736  0.32620530  0.00878318  1
  H+  H95  1  0.55360303  0.10658053  0.33449630  1
  H+  H96  1  0.18761686  0.34817847  0.28429792  1
  H+  H97  1  0.77648909  0.55585228  0.15761506  1
  H+  H98  1  0.18649977  0.70394801  0.25933303  1
  H+  H99  1  0.57702787  0.04939160  0.94664899  1
  H+  H100  1  0.84941315  0.48102212  0.26716275  1
  H+  H101  1  0.84877680  0.80624459  -0.01059098  1
  H+  H102  1  0.35485866  0.14873079  0.97802861  1
  H+  H103  1  0.36023280  0.50590282  0.51006198  1
  H+  H104  1  0.70084012  0.51589342  0.51719203  1
  H+  H105  1  0.47913529  0.62692858  0.50531179  1
  H+  H106  1  0.52046784  0.35434038  -0.02849051  1
  H+  H107  1  0.16788580  0.97916206  0.48963052  1
  H+  H108  1  0.17945309  0.47721223  0.75811288  1
  H+  H109  1  0.58071742  0.45373922  0.35992473  1
  H+  H110  1  0.22606807  0.10515209  0.35855907  1
  H+  H111  1  0.03485168  0.51136870  0.51297531  1
  H+  H112  1  0.10968308  0.57986442  0.14460850  1
  H+  H113  1  0.90309307  0.46906781  0.85520042  1
  H+  H114  1  0.42818401  0.85769006  0.16039032  1
  H+  H115  1  0.63391842  0.47341924  0.98900599  1
  H+  H116  1  0.78739788  0.22755808  0.15585111  1
  H+  H117  1  0.38125086  0.86907725  0.73157425  1
  H+  H118  1  0.53511085  0.05925796  0.73651083  1
  H+  H119  1  0.15260795  0.28884205  0.51820912  1
  H+  H120  1  0.19900647  0.08181502  0.88573558  1
  H+  H121  1  0.11599113  0.21696069  0.17008782  1
  H+  H122  1  0.42398000  0.18729130  0.13256808  1
  H+  H123  1  0.81725831  0.90817810  0.65861769  1
  H+  H124  1  0.81130062  0.95862250  0.23938777  1
  H+  H125  1  0.24321661  0.78374398  0.83985803  1
  H+  H126  1  0.88607108  0.77119998  0.34265722  1
  H+  H127  1  0.81570938  0.27587087  0.50655144  1
  H+  H128  1  0.10723150  0.20626841  0.65281953  1
  H+  H129  1  0.43435310  0.20731358  0.57657402  1
  H+  H130  1  0.51580854  0.74323282  0.87232664  1
  H+  H131  1  0.58155125  0.46417733  0.81805117  1
  H+  H132  1  0.89511174  0.09199590  0.40583010  1
  H+  H133  1  0.22135425  0.44700715  0.89780220  1
  H+  H134  1  0.77775942  0.88855176  0.10598869  1
  H+  H135  1  0.12540274  0.88940905  0.15732814  1
  H+  H136  1  0.19824858  0.82843919  0.26400771  1
  H+  H137  1  0.16209542  0.63551018  0.73910691  1
  H+  H138  1  0.82821602  0.20588630  0.77309615  1
  H+  H139  1  0.43623975  0.52048562  0.16526867  1
  H+  H140  1  0.89279763  0.43840350  0.40723920  1
  H+  H141  1  0.22469241  0.77110441  0.39853858  1
  H+  H142  1  0.52282938  0.80206750  0.87482110  1
  H+  H143  1  0.16045260  0.13176720  0.75241451  1
  O2-  O144  1  0.10537305  0.20685228  0.23600314  1
  O2-  O145  1  0.10554712  0.20239991  0.72134345  1
  O2-  O146  1  0.11310159  0.57994910  0.21154358  1
  O2-  O147  1  0.11214116  0.55360089  0.72086987  1
  O2-  O148  1  0.13418668  0.89150852  0.22372324  1
  O2-  O149  1  0.11679665  0.87069277  0.70296755  1
  O2-  O150  1  0.42052941  0.18745760  0.19887937  1
  O2-  O151  1  0.43977004  0.22526640  0.77985302  1
  O2-  O152  1  0.44740962  0.53425345  0.23174103  1
  O2-  O153  1  0.44059196  0.55229884  0.71026385  1
  O2-  O154  1  0.44336567  0.87301929  0.22668056  1
  O2-  O155  1  0.45922578  0.91929414  0.70455638  1
  O2-  O156  1  0.78324287  0.22145730  0.22304683  1
  O2-  O157  1  0.80305136  0.25890383  0.74040404  1
  O2-  O158  1  0.78166405  0.56302730  0.22586061  1
  O2-  O159  1  0.89020643  0.68613608  0.73480782  1
  O2-  O160  1  0.77018021  0.87738241  0.21443413  1
  O2-  O161  1  0.80920814  0.91339946  0.72499580  1
  O2-  O162  1  0.21676224  0.10641074  0.28755660  1
  O2-  O163  1  0.19737365  0.08481173  0.77531727  1
  O2-  O164  1  0.23114397  0.42658324  0.30935360  1
  O2-  O165  1  0.21933873  0.43738830  0.78288475  1
  O2-  O166  1  0.23359721  0.78225565  0.28802518  1
  O2-  O167  1  0.24401264  0.77910035  0.77091363  1
  O2-  O168  1  0.55834496  0.10450867  0.26620514  1
  O2-  O169  1  0.57894148  0.13970356  0.76081039  1
  O2-  O170  1  0.58663570  0.45880743  0.29228282  1
  O2-  O171  1  0.56199857  0.44461917  0.75356265  1
  O2-  O172  1  0.55609984  0.76568610  0.27980171  1
  O2-  O173  1  0.57467547  0.80049338  0.70008328  1
  O2-  O174  1  0.88020610  0.09021089  0.27584204  1
  O2-  O175  1  0.84315034  0.11456254  0.81723785  1
  O2-  O176  1  0.89178432  0.44323198  0.28895166  1
  O2-  O177  1  0.89942896  0.46747228  0.78671578  1
  O2-  O178  1  0.86844385  0.76088534  0.27474862  1
  O2-  O179  1  0.82133628  0.72040505  0.79063927  1
  O2-  O180  1  0.23399645  0.09914779  0.46024099  1
  O2-  O181  1  0.21007819  0.08374287  0.95438259  1
  O2-  O182  1  0.22816170  0.43684308  0.48453480  1
  O2-  O183  1  0.21875435  0.44993493  0.96618679  1
  O2-  O184  1  0.22405533  0.77067330  0.46746853  1
  O2-  O185  1  0.24955334  0.81170449  0.95154979  1
  O2-  O186  1  0.55005387  0.10767837  0.44873321  1
  O2-  O187  1  0.59597854  0.12855738  0.93893041  1
  O2-  O188  1  0.56492796  0.44249585  0.47784712  1
  O2-  O189  1  0.55862415  0.43696003  0.95694114  1
  O2-  O190  1  0.55389206  0.77276258  0.47071191  1
  O2-  O191  1  0.52949323  0.72468989  1.06430386  1
  O2-  O192  1  0.89985927  0.09544885  0.47271299  1
  O2-  O193  1  0.93440421  0.13358862  0.99557899  1
  O2-  O194  1  0.89447139  0.43580440  0.47525002  1
  O2-  O195  1  0.90066901  0.46242381  0.96922867  1
  O2-  O196  1  0.90601817  0.77984419  0.45079275  1
  O2-  O197  1  0.88115514  0.75955505  0.96645877  1
  O2-  O198  1  0.17212864  0.25356390  0.04026975  1
  O2-  O199  1  0.11457782  0.20807247  0.53914980  1
  O2-  O200  1  0.12174467  0.58328371  0.01817214  1
  O2-  O201  1  0.11468856  0.55305409  0.53768424  1
  O2-  O202  1  0.09534595  0.86423093  0.02746965  1
  O2-  O203  1  0.11886543  0.89167990  0.50976463  1
  O2-  O204  1  0.43891344  0.20133328  -0.01256819  1
  O2-  O205  1  0.43584673  0.21370590  0.51051325  1
  O2-  O206  1  0.41972159  0.50343835  0.04247732  1
  O2-  O207  1  0.44404015  0.54798440  0.53003713  1
  O2-  O208  1  0.41655762  0.83863438  0.04364017  1
  O2-  O209  1  0.44428509  0.88683821  0.51670605  1
  O2-  O210  1  0.80821694  0.24253748  0.03192749  1
  O2-  O211  1  0.77300704  0.19375542  0.52178255  1
  O2-  O212  1  0.77066927  0.54604758  0.04279071  1
  O2-  O213  1  0.78483195  0.56202024  0.53296541  1
  O2-  O214  1  0.79443807  0.89820915  0.03753859  1
  O2-  O215  1  0.76018976  0.82069467  0.54817924  1
