# generated using pymatgen
data_H2O
_symmetry_space_group_name_H-M   'P 1'
_cell_length_a   13.52615734
_cell_length_b   13.51776855
_cell_length_c   14.69377086
_cell_angle_alpha   89.97153162
_cell_angle_beta   90.03668602
_cell_angle_gamma   120.00001800
_symmetry_Int_Tables_number   1
_chemical_formula_structural   H2O
_chemical_formula_sum   'H144 O72'
_cell_volume   2326.71483456
_cell_formula_units_Z   72
loop_
 _symmetry_equiv_pos_site_id
 _symmetry_equiv_pos_as_xyz
  1  'x, y, z'
loop_
 _atom_type_symbol
 _atom_type_oxidation_number
  H+  1.0
  O2-  -2.0
loop_
 _atom_site_type_symbol
 _atom_site_label
 _atom_site_symmetry_multiplicity
 _atom_site_fract_x
 _atom_site_fract_y
 _atom_site_fract_z
 _atom_site_occupancy
  H+  H0  1  0.89748826  0.38697924  0.83090042  1
  H+  H1  1  0.20790384  0.50043957  0.48421093  1
  H+  H2  1  0.22844763  0.11311736  0.85653003  1
  H+  H3  1  0.16803706  1.03065942  0.48944998  1
  H+  H4  1  0.77316064  0.50544514  0.24371504  1
  H+  H5  1  0.36428644  0.88667759  0.71552906  1
  H+  H6  1  0.24058353  0.80316507  0.76899816  1
  H+  H7  1  0.46936903  0.95873000  0.00696784  1
  H+  H8  1  0.52730423  0.80847216  0.48393190  1
  H+  H9  1  0.61767002  0.15596709  0.47927462  1
  H+  H10  1  0.95530082  0.10352293  0.24957266  1
  H+  H11  1  0.50198673  0.15374368  0.99820512  1
  H+  H12  1  0.47340719  0.28556870  0.72048238  1
  H+  H13  1  0.63301095  0.80376427  0.76780799  1
  H+  H14  1  0.37105989  0.83718314  0.73226881  1
  H+  H15  1  0.78662814  0.63025944  0.24289209  1
  H+  H16  1  0.48346160  0.63900372  0.73067540  1
  H+  H17  1  0.86084103  0.81637006  1.00302898  1
  H+  H18  1  0.20528320  0.39807997  0.76471580  1
  H+  H19  1  0.67919558  0.50256994  0.73581510  1
  H+  H20  1  0.68776031  0.18327784  0.23089041  1
  H+  H21  1  0.60542107  0.47435847  0.26048146  1
  H+  H22  1  0.72083840  0.54666715  1.00565702  1
  H+  H23  1  0.03044820  0.50399987  0.51159680  1
  H+  H24  1  0.13249726  0.96815420  0.74692190  1
  H+  H25  1  0.83977095  0.48342349  0.01587900  1
  H+  H26  1  0.53909892  1.04310795  0.75576002  1
  H+  H27  1  0.72729154  0.10677760  0.51787255  1
  H+  H28  1  0.84913318  0.80963461  0.22928893  1
  H+  H29  1  0.18703935  0.15792747  0.48880603  1
  H+  H30  1  0.98355635  0.25912599  0.40058173  1
  H+  H31  1  0.47513752  0.51498220  1.01709914  1
  H+  H32  1  0.80142585  0.30894623  0.00967251  1
  H+  H33  1  0.62207849  0.17056012  0.76750884  1
  H+  H34  1  0.28791371  0.78788003  0.98176261  1
  H+  H35  1  0.12167231  0.63053468  0.74563397  1
  H+  H36  1  0.15205784  0.30186364  0.22555775  1
  H+  H37  1  0.11291134  0.84146413  0.74828454  1
  H+  H38  1  0.98081308  0.48103432  0.25262746  1
  H+  H39  1  0.50576653  0.64302554  0.48338678  1
  H+  H40  1  0.37520916  0.50314315  0.17671777  1
  H+  H41  1  0.38642679  0.85662574  0.24645284  1
  H+  H42  1  0.50713822  0.80720130  -0.00848749  1
  H+  H43  1  0.45793028  0.29698664  0.03994208  1
  H+  H44  1  0.51167380  0.15320807  0.25328938  1
  H+  H45  1  0.14594409  0.18328206  0.21887905  1
  H+  H46  1  0.03683815  0.84538136  0.23769348  1
  H+  H47  1  0.29867817  0.14051221  0.76115405  1
  H+  H48  1  0.68991627  0.83909554  0.51360809  1
  H+  H49  1  0.81490276  0.84352651  0.50981256  1
  H+  H50  1  0.23802645  0.80360352  0.56101490  1
  H+  H51  1  0.58509722  0.78861688  0.39609681  1
  H+  H52  1  0.38791675  0.84450030  0.49626069  1
  H+  H53  1  0.18446084  0.04150064  0.99604837  1
  H+  H54  1  0.11917837  0.84613802  0.51514511  1
  H+  H55  1  0.49373812  0.96944509  0.48516584  1
  H+  H56  1  0.18077135  0.03191231  0.25687059  1
  H+  H57  1  0.19828997  0.17156572  0.98525165  1
  H+  H58  1  0.36930345  0.51935889  0.48354547  1
  H+  H59  1  0.15804442  0.85300809  0.24818969  1
  H+  H60  1  0.49283338  0.48346898  0.73312590  1
  H+  H61  1  0.94779433  0.81450589  0.75634690  1
  H+  H62  1  0.49491754  0.14582580  0.47984354  1
  H+  H63  1  0.35050244  0.17772350  0.25199389  1
  H+  H64  1  0.15777929  0.17061167  0.74553526  1
  H+  H65  1  0.93686901  0.55757532  0.28905571  1
  H+  H66  1  0.56455038  0.41922146  0.94258798  1
  H+  H67  1  0.48779910  0.33557467  0.26210969  1
  H+  H68  1  0.42879627  0.21790510  0.16193256  1
  H+  H69  1  0.78121124  0.18407699  0.72729892  1
  H+  H70  1  0.46172199  0.38932328  0.80832381  1
  H+  H71  1  0.20056979  0.48321252  0.24003352  1
  H+  H72  1  0.81535314  -0.03773003  0.74402561  1
  H+  H73  1  0.83935736  0.35841390  0.48321486  1
  H+  H74  1  0.81022847  0.84112244  0.73901246  1
  H+  H75  1  0.83124336  0.69292727  0.75851555  1
  H+  H76  1  0.98738602  0.14092588  0.79783313  1
  H+  H77  1  0.16663833  0.68533786  0.51085494  1
  H+  H78  1  0.35236032  0.17656177  0.50021126  1
  H+  H79  1  0.12763667  0.45602595  0.00790214  1
  H+  H80  1  0.83222680  0.11945561  0.01725307  1
  H+  H81  1  0.34728810  0.17709043  0.01823895  1
  H+  H82  1  0.81345494  0.29518448  0.22835698  1
  H+  H83  1  0.56227918  0.84523015  0.25590304  1
  H+  H84  1  0.12685090  0.91471495  0.09395672  1
  H+  H85  1  0.80708859  0.31157661  0.72069868  1
  H+  H86  1  0.49410760  0.50816751  0.48917601  1
  H+  H87  1  0.67288698  0.18505357  1.00843610  1
  H+  H88  1  0.79704987  0.50505164  0.74355388  1
  H+  H89  1  0.49713795  -0.02520731  0.23167086  1
  H+  H90  1  0.13399480  0.51769466  0.75286760  1
  H+  H91  1  0.14648811  0.61264571  0.19782636  1
  H+  H92  1  0.55846352  0.89187439  0.72471255  1
  H+  H93  1  0.54539981  0.76556688  0.85103893  1
  H+  H94  1  0.21958290  0.71679937  0.30386929  1
  H+  H95  1  0.47199731  0.16655253  0.73327050  1
  H+  H96  1  0.96566943  0.48077351  0.75626308  1
  H+  H97  1  0.88096061  0.14735512  0.83005478  1
  H+  H98  1  0.43835258  0.88154434  0.09500107  1
  H+  H99  1  0.13170414  0.26139555  0.08032437  1
  H+  H100  1  0.69700076  0.82127159  0.02980920  1
  H+  H101  1  0.63213047  0.47411736  0.48998184  1
  H+  H102  1  0.58630044  0.52322415  0.88519815  1
  H+  H103  1  0.04589858  0.87642223  1.00590953  1
  H+  H104  1  0.05094163  0.12726229  0.68266889  1
  H+  H105  1  0.81286998  0.51676523  0.50619561  1
  H+  H106  1  0.95023510  0.82147343  0.48491135  1
  H+  H107  1  0.50800811  0.35379861  0.49291678  1
  H+  H108  1  0.45402047  0.57295177  0.63505272  1
  H+  H109  1  0.53827331  0.42260183  0.35849328  1
  H+  H110  1  0.89157465  0.20207077  0.47745507  1
  H+  H111  1  0.89314151  0.44465521  0.40074666  1
  H+  H112  1  0.90648859  0.08296477  0.34875786  1
  H+  H113  1  0.21553553  0.38574873  0.48656728  1
  H+  H114  1  0.77506943  0.88557851  0.60939194  1
  H+  H115  1  0.83406493  0.70134788  0.48153800  1
  H+  H116  1  0.17599695  0.75102749  0.86108450  1
  H+  H117  1  0.76904500  0.55265629  0.59408370  1
  H+  H118  1  0.88018070  0.46387758  0.92103848  1
  H+  H119  1  0.15139337  0.25471565  0.60014235  1
  H+  H120  1  0.21259763  0.11121634  0.34495093  1
  H+  H121  1  0.43077325  0.20801663  0.59004750  1
  H+  H122  1  0.89782729  0.79011653  0.90772078  1
  H+  H123  1  0.55388447  0.11408697  0.33926577  1
  H+  H124  1  0.18201313  0.66056769  0.98060181  1
  H+  H125  1  0.80852983  0.93736801  0.04981572  1
  H+  H126  1  0.01978589  0.47904199  0.00737798  1
  H+  H127  1  0.10486774  0.54308157  0.60269722  1
  H+  H128  1  0.90346036  0.08379138  0.95653792  1
  H+  H129  1  0.75871695  0.54841805  0.10840435  1
  H+  H130  1  0.77125761  0.92391921  0.26611657  1
  H+  H131  1  0.07322566  0.22839228  0.51074205  1
  H+  H132  1  0.23927665  0.80480302  0.37822504  1
  H+  H133  1  0.49655896  0.68641768  1.00055153  1
  H+  H134  1  0.08402158  0.89164377  0.60227765  1
  H+  H135  1  0.10091248  0.51238682  0.12977971  1
  H+  H136  1  0.28081158  0.42712540  1.01505823  1
  H+  H137  1  0.25491784  0.45592096  0.32487467  1
  H+  H138  1  0.53152155  0.93312501  0.63277191  1
  H+  H139  1  0.87402316  0.78433886  0.32934501  1
  H+  H140  1  0.19740185  0.42747931  0.86637945  1
  H+  H141  1  0.54102927  0.11509036  0.90671956  1
  H+  H142  1  0.75879798  0.22521734  0.10849738  1
  H+  H143  1  0.75903316  0.20602426  0.58898633  1
  O2-  O144  1  0.10760080  0.22502633  0.19703989  1
  O2-  O145  1  0.10608967  0.19598286  0.71520267  1
  O2-  O146  1  0.10749262  0.52926955  0.19905082  1
  O2-  O147  1  0.09115820  0.55065889  0.72064291  1
  O2-  O148  1  0.11910049  0.89208949  0.22285573  1
  O2-  O149  1  0.08519149  0.89053328  0.71929709  1
  O2-  O150  1  0.43397952  0.22207628  0.23049219  1
  O2-  O151  1  0.43100916  0.20341682  0.70412331  1
  O2-  O152  1  0.44697411  0.52185854  0.14417263  1
  O2-  O153  1  0.44847611  0.56175619  0.70101846  1
  O2-  O154  1  0.45993320  0.89270246  0.21392175  1
  O2-  O155  1  0.57548399  0.96161119  0.68957390  1
  O2-  O156  1  0.76539649  0.22069971  0.19999375  1
  O2-  O157  1  0.75538215  0.23176157  0.69743553  1
  O2-  O158  1  0.73466902  0.54734828  0.22536404  1
  O2-  O159  1  0.75973204  0.54428755  0.71586513  1
  O2-  O160  1  0.70770097  0.84289461  0.25699401  1
  O2-  O161  1  0.77500340  0.88703300  0.71329106  1
  O2-  O162  1  0.21923316  0.11362817  0.27723549  1
  O2-  O163  1  0.22065389  0.10716175  0.78779712  1
  O2-  O164  1  0.24591852  0.44701905  0.25843752  1
  O2-  O165  1  0.19587832  0.45134786  0.80305447  1
  O2-  O166  1  0.24548689  0.79782455  0.31182195  1
  O2-  O167  1  0.16211653  0.75761928  0.79217188  1
  O2-  O168  1  0.55788056  0.11735389  0.27120332  1
  O2-  O169  1  0.54473010  0.11225414  0.78719146  1
  O2-  O170  1  0.52807765  0.42143879  0.28970793  1
  O2-  O171  1  0.51946220  0.43025422  0.76157071  1
  O2-  O172  1  0.61284826  0.84371010  0.30435826  1
  O2-  O173  1  0.55104651  0.76944856  0.78283671  1
  O2-  O174  1  0.89737455  0.04518501  0.29000265  1
  O2-  O175  1  0.90801902  0.09350871  0.82061489  1
  O2-  O176  1  0.91241464  0.47635757  0.28440931  1
  O2-  O177  1  0.88475749  0.42919034  0.78243911  1
  O2-  O178  1  0.87985798  0.76878983  0.26415389  1
  O2-  O179  1  0.86702153  0.77344931  0.77879901  1
  O2-  O180  1  0.21641448  0.10892257  0.46387566  1
  O2-  O181  1  0.23464714  0.12567705  0.96898668  1
  O2-  O182  1  0.25220427  0.46543371  0.45964668  1
  O2-  O183  1  0.20181745  0.38769628  0.98747275  1
  O2-  O184  1  0.20790100  0.77138995  0.50093600  1
  O2-  O185  1  0.20987380  0.73845514  0.95745080  1
  O2-  O186  1  0.53911188  0.10934749  0.45567138  1
  O2-  O187  1  0.54719889  0.11899143  0.97471083  1
  O2-  O188  1  0.55036203  0.43470226  0.46757515  1
  O2-  O189  1  0.57919542  0.49736148  0.94855142  1
  O2-  O190  1  0.56957369  0.76806419  0.46497678  1
  O2-  O191  1  0.54227046  0.76136296  0.97084992  1
  O2-  O192  1  0.95597434  0.19969804  0.44725637  1
  O2-  O193  1  0.88046016  0.08485866  1.01971743  1
  O2-  O194  1  0.88661689  0.43982016  0.46857308  1
  O2-  O195  1  0.87799798  0.44108197  0.98466171  1
  O2-  O196  1  0.86969796  0.78231711  0.46106417  1
  O2-  O197  1  0.91480161  0.79600281  0.97301565  1
  O2-  O198  1  0.14777822  0.26614327  0.01260696  1
  O2-  O199  1  0.15343793  0.25793380  0.53245245  1
  O2-  O200  1  0.10031010  0.50947784  0.02662405  1
  O2-  O201  1  0.11058969  0.54641635  0.53443724  1
  O2-  O202  1  0.12751353  0.92556092  0.02773761  1
  O2-  O203  1  0.08269645  0.89061952  0.53357304  1
  O2-  O204  1  0.42789775  0.21547144  0.04920363  1
  O2-  O205  1  0.43401443  0.21747976  0.52194990  1
  O2-  O206  1  0.41903189  0.53102345  0.04784069  1
  O2-  O207  1  0.45721756  0.55734931  0.50391722  1
  O2-  O208  1  0.43343447  0.87855779  0.02719401  1
  O2-  O209  1  0.46984010  0.89101186  0.50908459  1
  O2-  O210  1  0.75594930  0.22650716  0.03309296  1
  O2-  O211  1  0.75970024  0.18967215  0.52183297  1
  O2-  O212  1  0.77730902  0.54159173  0.04449984  1
  O2-  O213  1  0.76854186  0.55351895  0.52608385  1
  O2-  O214  1  0.77297907  0.85340462  0.05790025  1
  O2-  O215  1  0.77207479  0.88205781  0.53822433  1
