# generated using pymatgen
data_H2O
_symmetry_space_group_name_H-M   'P 1'
_cell_length_a   13.52464940
_cell_length_b   13.50543135
_cell_length_c   14.68105232
_cell_angle_alpha   89.88285350
_cell_angle_beta   90.08769842
_cell_angle_gamma   120.07205927
_symmetry_Int_Tables_number   1
_chemical_formula_structural   H2O
_chemical_formula_sum   'H144 O72'
_cell_volume   2320.62787429
_cell_formula_units_Z   72
loop_
 _symmetry_equiv_pos_site_id
 _symmetry_equiv_pos_as_xyz
  1  'x, y, z'
loop_
 _atom_type_symbol
 _atom_type_oxidation_number
  H+  1.0
  O2-  -2.0
loop_
 _atom_site_type_symbol
 _atom_site_label
 _atom_site_symmetry_multiplicity
 _atom_site_fract_x
 _atom_site_fract_y
 _atom_site_fract_z
 _atom_site_occupancy
  H+  H0  1  1.03813991  0.16894329  0.73962920  1
  H+  H1  1  0.16769062  0.23496664  -0.00148330  1
  H+  H2  1  0.81127143  0.45747993  0.75549490  1
  H+  H3  1  0.36752006  0.51503254  0.49186129  1
  H+  H4  1  0.83421315  0.69118680  0.50352198  1
  H+  H5  1  0.48101101  0.63725641  0.48859418  1
  H+  H6  1  0.08704173  0.53251182  0.79721427  1
  H+  H7  1  0.48002114  0.49332763  0.76576345  1
  H+  H8  1  0.85830926  0.02711584  0.25509729  1
  H+  H9  1  0.70491319  0.06772391  0.08128515  1
  H+  H10  1  0.15100522  0.64744478  0.23465254  1
  H+  H11  1  0.47112746  0.52177851  1.00341048  1
  H+  H12  1  1.04421316  0.21648303  1.00719550  1
  H+  H13  1  0.29108739  0.82008503  0.26079709  1
  H+  H14  1  0.49580307  1.01463291  0.25833598  1
  H+  H15  1  0.93273102  0.42806694  0.74042907  1
  H+  H16  1  0.38539645  0.85605835  0.73896213  1
  H+  H17  1  0.67280920  0.50941081  0.50982033  1
  H+  H18  1  0.82606179  0.84634049  0.24835301  1
  H+  H19  1  0.45592174  0.87813500  0.64706338  1
  H+  H20  1  0.95796765  0.83077048  0.79314135  1
  H+  H21  1  0.29642805  0.13961550  0.48561039  1
  H+  H22  1  0.96330092  0.13726042  0.48525231  1
  H+  H23  1  0.84917908  0.60736359  0.12075903  1
  H+  H24  1  0.97082199  0.49176002  0.25860935  1
  H+  H25  1  0.85041769  0.13606613  1.00416976  1
  H+  H26  1  0.48109332  0.17389136  0.49852439  1
  H+  H27  1  0.61041802  0.80468498  0.47854683  1
  H+  H28  1  -0.00144676  0.49616999  0.00878683  1
  H+  H29  1  0.48524979  0.32230380  0.02580853  1
  H+  H30  1  0.80726850  0.16191824  0.49718924  1
  H+  H31  1  0.82702174  0.64543547  0.25678733  1
  H+  H32  1  0.49503807  0.14397836  0.26088663  1
  H+  H33  1  0.47506174  0.61994102  0.76703655  1
  H+  H34  1  0.48148840  0.64150410  0.24228242  1
  H+  H35  1  0.48775089  0.29912783  0.24743693  1
  H+  H36  1  0.85769025  0.34904957  0.48316776  1
  H+  H37  1  0.83618834  0.31071192  0.24056578  1
  H+  H38  1  0.62145808  0.45773315  0.75404000  1
  H+  H39  1  0.49647041  0.64827383  1.00572428  1
  H+  H40  1  0.83842779  0.19166807  0.24823084  1
  H+  H41  1  0.14706652  0.16839741  0.49766309  1
  H+  H42  1  0.94934236  0.24729133  0.79965629  1
  H+  H43  1  0.62389368  0.81556381  0.26783109  1
  H+  H44  1  0.95793290  0.80681224  0.50462594  1
  H+  H45  1  0.21183912  0.71276550  0.77971687  1
  H+  H46  1  0.85687461  0.85938070  -0.01149359  1
  H+  H47  1  0.17957205  0.07323951  0.98651900  1
  H+  H48  1  0.24780411  0.42425409  0.62534648  1
  H+  H49  1  0.76898971  0.55998908  0.85989574  1
  H+  H50  1  0.15503616  0.52849586  0.23217878  1
  H+  H51  1  0.14734010  0.14914824  0.73354888  1
  H+  H52  1  -0.02391424  0.46676959  0.49263875  1
  H+  H53  1  0.12494968  0.79877950  0.98769826  1
  H+  H54  1  0.73480723  0.84877804  -0.00573762  1
  H+  H55  1  0.64005308  0.49097181  0.25484395  1
  H+  H56  1  0.45614561  0.88995951  0.15626953  1
  H+  H57  1  0.35247488  0.48492481  0.73715705  1
  H+  H58  1  0.40794391  0.82815250  0.00213488  1
  H+  H59  1  0.82859240  0.58422059  0.72556455  1
  H+  H60  1  -0.02292911  0.14802288  0.25596629  1
  H+  H61  1  0.04819083  0.89094838  0.05175848  1
  H+  H62  1  0.84248382  0.34348895  0.98517528  1
  H+  H63  1  0.19603702  0.32854755  0.70193197  1
  H+  H64  1  0.47743386  0.18281265  0.73235347  1
  H+  H65  1  0.53001150  0.43191446  0.89518296  1
  H+  H66  1  -0.01751685  0.82688655  0.27978079  1
  H+  H67  1  0.62555048  0.12820649  0.99932744  1
  H+  H68  1  0.20152312  0.54266584  0.82651067  1
  H+  H69  1  0.82327230  0.52450085  0.25160732  1
  H+  H70  1  0.14251353  0.95750863  0.51267892  1
  H+  H71  1  0.50424440  0.79295379  0.75245607  1
  H+  H72  1  0.79107153  0.15540943  0.72940010  1
  H+  H73  1  0.14549264  0.84071509  0.74651360  1
  H+  H74  1  0.18424500  0.37582154  0.25348589  1
  H+  H75  1  0.61962877  0.78728463  0.74810838  1
  H+  H76  1  0.49640567  0.34397486  0.74267623  1
  H+  H77  1  0.18290420  0.69611728  0.49160926  1
  H+  H78  1  0.83942571  0.60678108  0.01113025  1
  H+  H79  1  0.50273580  -0.03699791  1.00280693  1
  H+  H80  1  0.12250755  0.24028887  0.14836625  1
  H+  H81  1  0.17224063  0.82659033  0.26931151  1
  H+  H82  1  0.62780653  0.13418497  0.47638278  1
  H+  H83  1  0.62794437  0.51693786  0.95680107  1
  H+  H84  1  0.50231859  0.47761789  0.47994018  1
  H+  H85  1  0.17348598  1.02207572  0.26907686  1
  H+  H86  1  0.30260252  0.49451137  0.25590441  1
  H+  H87  1  0.48699256  0.84913663  0.25007329  1
  H+  H88  1  0.79746934  0.27565648  0.73061488  1
  H+  H89  1  0.56189392  0.83039991  0.98649238  1
  H+  H90  1  0.63633450  0.16691862  0.76151000  1
  H+  H91  1  0.17307997  0.34921522  0.47953922  1
  H+  H92  1  0.36568314  0.21039165  1.01837034  1
  H+  H93  1  0.15615392  0.18911885  0.23569612  1
  H+  H94  1  0.54016140  0.77550904  0.36197909  1
  H+  H95  1  0.84343064  0.83341895  0.77904288  1
  H+  H96  1  0.30742553  0.52329530  0.95638777  1
  H+  H97  1  0.77327194  0.19104318  0.12501776  1
  H+  H98  1  0.87619910  0.03448721  0.98832024  1
  H+  H99  1  0.80904121  0.68734878  0.88169188  1
  H+  H100  1  0.50837097  1.01212625  0.48241734  1
  H+  H101  1  0.14317292  0.84001266  0.51377966  1
  H+  H102  1  0.78915600  -0.04479547  0.72852185  1
  H+  H103  1  0.29564133  0.13267758  0.75068153  1
  H+  H104  1  0.51946030  0.48722525  0.25199558  1
  H+  H105  1  0.10410294  0.19927261  0.58782070  1
  H+  H106  1  0.80743585  0.83846432  0.51275727  1
  H+  H107  1  0.24190171  0.81381930  1.02291689  1
  H+  H108  1  0.21343802  0.77279884  0.40151681  1
  H+  H109  1  0.74324398  0.52569195  0.60005684  1
  H+  H110  1  0.88713045  0.09850121  0.39543198  1
  H+  H111  1  0.36964405  0.84819513  0.50544163  1
  H+  H112  1  0.89732166  0.44253906  0.34979874  1
  H+  H113  1  0.11144908  0.63319482  1.01365787  1
  H+  H114  1  0.76065746  0.19773783  0.58382432  1
  H+  H115  1  0.91047593  0.14035802  0.86232856  1
  H+  H116  1  0.21342492  0.43897844  0.39577438  1
  H+  H117  1  0.44301138  0.56679278  0.15044631  1
  H+  H118  1  0.29348544  0.14523543  0.26276225  1
  H+  H119  1  0.76542077  0.87745805  0.64034876  1
  H+  H120  1  0.21549504  0.10179434  0.39743125  1
  H+  H121  1  0.57890258  0.77785752  0.89383342  1
  H+  H122  1  0.43357380  0.20826973  0.63644206  1
  H+  H123  1  0.14097022  0.55832043  0.60657579  1
  H+  H124  1  0.10959319  0.89103439  0.18612836  1
  H+  H125  1  -0.02824730  0.75386243  0.03704833  1
  H+  H126  1  0.08667039  0.55451917  0.10968138  1
  H+  H127  1  0.16154227  0.51088158  0.51384362  1
  H+  H128  1  0.54706229  0.43697033  0.39428694  1
  H+  H129  1  0.89004324  0.77973292  0.36224939  1
  H+  H130  1  0.17725059  0.01090818  0.76179636  1
  H+  H131  1  0.18641517  0.41472467  0.95373610  1
  H+  H132  1  0.22585416  0.12849675  0.89062812  1
  H+  H133  1  0.48513598  0.83724213  0.49390443  1
  H+  H134  1  0.47824922  0.29269809  0.49821562  1
  H+  H135  1  0.55426720  0.10577079  0.90740679  1
  H+  H136  1  0.23191367  0.80002268  0.85654613  1
  H+  H137  1  0.80808423  0.95707977  0.50767151  1
  H+  H138  1  0.62091943  0.25261383  0.82247708  1
  H+  H139  1  0.53542545  0.09507334  0.35757320  1
  H+  H140  1  0.88512627  0.40652631  0.88802868  1
  H+  H141  1  0.09920173  0.87615767  0.65917023  1
  H+  H142  1  0.44242435  0.22329335  0.15794462  1
  H+  H143  1  0.79313752  0.88012630  0.15392355  1
  O2-  O144  1  0.11758344  0.23266422  0.21595210  1
  O2-  O145  1  0.10923820  0.18983456  0.70537450  1
  O2-  O146  1  0.11241031  0.56670448  0.20886895  1
  O2-  O147  1  0.16699205  0.56993393  0.77914263  1
  O2-  O148  1  0.11437693  0.89390498  0.25214876  1
  O2-  O149  1  0.10039728  0.87739972  0.72745382  1
  O2-  O150  1  0.44547274  0.21731940  0.22695925  1
  O2-  O151  1  0.42853614  0.21105957  0.70491442  1
  O2-  O152  1  0.44278028  0.56086015  0.21811467  1
  O2-  O153  1  0.43064808  0.53117941  0.77231057  1
  O2-  O154  1  0.44831472  0.89233505  0.22317675  1
  O2-  O155  1  0.46089688  0.87481447  0.71471536  1
  O2-  O156  1  0.79940163  0.22958225  0.21933756  1
  O2-  O157  1  0.75123936  0.19344954  0.70395737  1
  O2-  O158  1  0.78683738  0.56786193  0.22712662  1
  O2-  O159  1  0.76916758  0.50687711  0.74152123  1
  O2-  O160  1  0.78609885  0.88513977  0.22029626  1
  O2-  O161  1  0.76094630  0.87604641  0.71069339  1
  O2-  O162  1  0.21307393  0.11000972  0.28337635  1
  O2-  O163  1  0.21881098  0.09429353  0.78076046  1
  O2-  O164  1  0.22064444  0.45626741  0.27642081  1
  O2-  O165  1  0.24342567  0.41377557  0.69117612  1
  O2-  O166  1  0.21089907  0.77597348  0.28153542  1
  O2-  O167  1  0.23773112  0.79568311  0.78986277  1
  O2-  O168  1  0.53032516  0.09620348  0.28562102  1
  O2-  O169  1  0.57813642  0.17400976  0.80020566  1
  O2-  O170  1  0.55809340  0.44531194  0.27411881  1
  O2-  O171  1  0.53952371  0.42255377  0.77135869  1
  O2-  O172  1  0.54284507  0.77865688  0.28563534  1
  O2-  O173  1  0.54241535  0.74889526  0.77725094  1
  O2-  O174  1  0.89732463  0.10683257  0.28014884  1
  O2-  O175  1  0.92048832  0.16504645  0.79608104  1
  O2-  O176  1  0.89120032  0.44796059  0.28128374  1
  O2-  O177  1  0.86401536  0.39277484  0.77778409  1
  O2-  O178  1  0.89637831  0.78337197  0.29433009  1
  O2-  O179  1  0.88606117  0.81363841  0.82365770  1
  O2-  O180  1  0.21469023  0.09857038  0.46618810  1
  O2-  O181  1  0.22570194  0.14713499  0.95711287  1
  O2-  O182  1  0.21268275  0.43251183  0.46381986  1
  O2-  O183  1  0.23417602  0.48832246  0.92253046  1
  O2-  O184  1  0.21720576  0.77621098  0.46962927  1
  O2-  O185  1  0.18075564  0.76896052  0.97977433  1
  O2-  O186  1  0.54530245  0.09433300  0.45658512  1
  O2-  O187  1  0.54793553  0.08443582  0.97272790  1
  O2-  O188  1  0.53857002  0.43006861  0.46182767  1
  O2-  O189  1  0.54604949  0.45691371  0.95954353  1
  O2-  O190  1  0.53207140  0.76978249  0.45466308  1
  O2-  O191  1  0.59596345  0.78589499  0.96061287  1
  O2-  O192  1  0.88226921  0.09689253  0.46374198  1
  O2-  O193  1  0.90373095  0.11632397  0.97190493  1
  O2-  O194  1  0.90288816  0.42835644  0.45975344  1
  O2-  O195  1  0.89332390  0.41694292  0.95678686  1
  O2-  O196  1  0.87865939  0.77186661  0.48008996  1
  O2-  O197  1  0.76941739  0.60888884  0.91005114  1
  O2-  O198  1  0.12476813  0.26921415  0.02588942  1
  O2-  O199  1  0.10616901  0.20878951  0.52038090  1
  O2-  O200  1  0.07798723  0.55274751  0.03833724  1
  O2-  O201  1  0.12652205  0.55438639  0.54112421  1
  O2-  O202  1  0.02929880  0.83144214  0.00670965  1
  O2-  O203  1  0.10290489  0.87898222  0.53958084  1
  O2-  O204  1  0.44022101  0.24341269  0.04943992  1
  O2-  O205  1  0.43966473  0.21196161  0.52265077  1
  O2-  O206  1  0.43934508  0.56972057  0.02616748  1
  O2-  O207  1  0.44781986  0.55521388  0.51192479  1
  O2-  O208  1  0.47869863  0.88349436  0.03173398  1
  O2-  O209  1  0.45149731  0.88718113  0.52301891  1
  O2-  O210  1  0.74871247  0.14753269  0.06178533  1
  O2-  O211  1  0.76423019  0.20122653  0.51605831  1
  O2-  O212  1  0.89422008  0.63018871  0.06272795  1
  O2-  O213  1  0.74958072  0.55593540  0.53865073  1
  O2-  O214  1  0.81487615  0.89144750  0.01901010  1
  O2-  O215  1  0.76643246  0.87875748  0.53468026  1
