# generated using pymatgen
data_H2O
_symmetry_space_group_name_H-M   'P 1'
_cell_length_a   13.52423443
_cell_length_b   13.52801717
_cell_length_c   14.70170878
_cell_angle_alpha   89.98146436
_cell_angle_beta   89.98582946
_cell_angle_gamma   119.97313113
_symmetry_Int_Tables_number   1
_chemical_formula_structural   H2O
_chemical_formula_sum   'H144 O72'
_cell_volume   2330.03654756
_cell_formula_units_Z   72
loop_
 _symmetry_equiv_pos_site_id
 _symmetry_equiv_pos_as_xyz
  1  'x, y, z'
loop_
 _atom_type_symbol
 _atom_type_oxidation_number
  H+  1.0
  O2-  -2.0
loop_
 _atom_site_type_symbol
 _atom_site_label
 _atom_site_symmetry_multiplicity
 _atom_site_fract_x
 _atom_site_fract_y
 _atom_site_fract_z
 _atom_site_occupancy
  H+  H0  1  0.79640076  0.20622644  0.48032418  1
  H+  H1  1  0.49812852  0.10500106  0.28171185  1
  H+  H2  1  0.11949010  0.14378350  1.02239609  1
  H+  H3  1  0.79425762  0.94384771  0.75327913  1
  H+  H4  1  0.83025938  0.12758536  0.76952892  1
  H+  H5  1  1.07599316  0.15657230  0.12080116  1
  H+  H6  1  0.20335768  0.35802920  0.49762351  1
  H+  H7  1  0.47938064  0.94621648  0.24217460  1
  H+  H8  1  0.97988220  0.83487867  0.76157821  1
  H+  H9  1  0.51522018  0.81689784  -0.00980397  1
  H+  H10  1  0.62069991  0.80676652  0.49386085  1
  H+  H11  1  0.61269242  0.80689322  0.76837582  1
  H+  H12  1  0.52000913  0.48083856  0.76077656  1
  H+  H13  1  0.52650685  0.49143506  0.48723574  1
  H+  H14  1  0.48819645  0.17964202  0.72546555  1
  H+  H15  1  0.15005406  0.87990261  0.49898929  1
  H+  H16  1  0.94953098  0.82687328  0.47770854  1
  H+  H17  1  0.52030722  0.49251417  0.98687501  1
  H+  H18  1  0.37714984  0.51564692  0.51232582  1
  H+  H19  1  0.12626163  0.64974753  0.04194190  1
  H+  H20  1  0.78548690  0.81447199  0.51599138  1
  H+  H21  1  0.49410009  0.21972531  0.20176353  1
  H+  H22  1  0.85465265  0.09140268  0.92903632  1
  H+  H23  1  0.48947919  0.63754981  0.50618406  1
  H+  H24  1  0.87858709  0.37949831  0.24941073  1
  H+  H25  1  0.17458890  0.04244547  0.75609894  1
  H+  H26  1  0.63333200  0.80033430  1.00957350  1
  H+  H27  1  0.50620819  0.14148002  1.01381228  1
  H+  H28  1  0.17782662  0.46913557  1.04900238  1
  H+  H29  1  0.48803096  0.63541862  0.24316091  1
  H+  H30  1  0.49944378  0.68971767  0.76003683  1
  H+  H31  1  0.19846344  0.75551197  0.49707942  1
  H+  H32  1  0.31860570  0.17088638  0.48639791  1
  H+  H33  1  0.04894620  0.49893738  0.17484809  1
  H+  H34  1  0.49940858  1.01836816  0.75492699  1
  H+  H35  1  0.67439604  0.18503553  0.51020770  1
  H+  H36  1  0.63421858  0.47184808  0.76301063  1
  H+  H37  1  0.84725951  0.82278160  0.25740097  1
  H+  H38  1  0.84457796  0.70041047  0.25864152  1
  H+  H39  1  0.01967170  0.86587413  0.01451191  1
  H+  H40  1  0.81748186  0.64361255  0.49702374  1
  H+  H41  1  0.51321890  0.37401188  0.25115657  1
  H+  H42  1  0.82493896  0.50744984  0.50216201  1
  H+  H43  1  0.09413308  0.22597300  0.44100411  1
  H+  H44  1  0.19049534  0.37090111  0.26308734  1
  H+  H45  1  0.23733331  0.44884658  0.35060230  1
  H+  H46  1  0.86301117  0.70239932  0.97945717  1
  H+  H47  1  0.49982269  0.67929111  0.01179247  1
  H+  H48  1  0.62361534  0.14186719  0.02964588  1
  H+  H49  1  0.49056878  0.29925786  0.73120170  1
  H+  H50  1  0.50683396  0.15362169  0.49730574  1
  H+  H51  1  0.51544716  0.80721211  0.25647278  1
  H+  H52  1  0.15010518  0.14506280  0.75337102  1
  H+  H53  1  0.37067931  0.86310749  0.50902164  1
  H+  H54  1  0.50564183  0.81299122  0.48987056  1
  H+  H55  1  1.04315715  0.78938323  0.54865174  1
  H+  H56  1  0.79577939  0.50373965  0.04190134  1
  H+  H57  1  0.85225649  0.81673064  0.76460625  1
  H+  H58  1  1.02579775  0.18454526  0.25863451  1
  H+  H59  1  0.12694403  0.57924863  0.49440244  1
  H+  H60  1  0.86552605  0.48850941  0.93633621  1
  H+  H61  1  0.89605211  0.50210138  0.24320869  1
  H+  H62  1  0.80558113  0.18456999  0.25851670  1
  H+  H63  1  0.81828911  0.36721457  0.50131430  1
  H+  H64  1  0.36252169  0.52416824  0.02203034  1
  H+  H65  1  0.49300188  0.30687347  0.50411443  1
  H+  H66  1  0.80999117  0.81838789  1.00809400  1
  H+  H67  1  0.94617292  0.47844813  0.50567027  1
  H+  H68  1  0.43235852  0.24163683  0.12259580  1
  H+  H69  1  0.97536043  0.46962438  0.74414324  1
  H+  H70  1  0.69224865  0.52022332  0.01089536  1
  H+  H71  1  0.44627813  0.88789805  -0.09065135  1
  H+  H72  1  0.37206238  0.50977618  0.73274956  1
  H+  H73  1  0.80879782  0.48597686  0.73220623  1
  H+  H74  1  0.96376300  0.48462781  0.98982086  1
  H+  H75  1  0.28597972  0.79533224  0.26499323  1
  H+  H76  1  0.18478769  1.03009598  0.26006613  1
  H+  H77  1  0.28963529  0.80677549  0.76506857  1
  H+  H78  1  0.81894901  0.28248652  0.73438405  1
  H+  H79  1  0.96785072  0.11154314  0.50495663  1
  H+  H80  1  0.18305460  0.83429795  0.00056137  1
  H+  H81  1  0.29769876  0.15317382  0.24618626  1
  H+  H82  1  0.46478611  0.82885391  0.74639125  1
  H+  H83  1  0.16142233  0.52212881  0.73583899  1
  H+  H84  1  0.85828227  0.11132183  0.54072435  1
  H+  H85  1  0.18070070  0.46159698  0.50428371  1
  H+  H86  1  0.70307499  0.51927163  0.24970991  1
  H+  H87  1  0.01819800  0.25030044  0.67779899  1
  H+  H88  1  0.92555656  1.10419010  0.01837647  1
  H+  H89  1  0.70014258  0.85708112  0.24690509  1
  H+  H90  1  0.54766343  0.09891089  0.41632222  1
  H+  H91  1  0.17399418  0.17049835  0.48285387  1
  H+  H92  1  0.62019126  0.13054566  0.75660639  1
  H+  H93  1  0.94145657  0.11897600  0.78898592  1
  H+  H94  1  0.29284535  0.82127818  0.99116734  1
  H+  H95  1  0.36516694  0.19749388  0.98862817  1
  H+  H96  1  0.79679586  0.93456531  0.52526788  1
  H+  H97  1  0.51964837  0.49336086  0.25947663  1
  H+  H98  1  0.15638132  0.85773696  0.74087277  1
  H+  H99  1  0.19734899  0.05323412  0.97468259  1
  H+  H100  1  0.03162165  0.84828114  0.24951118  1
  H+  H101  1  0.14210103  0.17916103  0.25434672  1
  H+  H102  1  0.49035458  0.97080368  0.52558669  1
  H+  H103  1  0.48882366  0.31265158  0.99351004  1
  H+  H104  1  0.18188694  0.36635559  0.74156653  1
  H+  H105  1  0.62938327  0.13539400  0.27128086  1
  H+  H106  1  0.80841831  0.29761586  0.02088061  1
  H+  H107  1  0.17547354  0.80840927  0.26578972  1
  H+  H108  1  0.07011529  0.98425732  0.06386730  1
  H+  H109  1  0.21930300  0.13003526  0.88604366  1
  H+  H110  1  0.48723580  0.97190790  -0.00473036  1
  H+  H111  1  0.90136382  0.78670428  0.89047379  1
  H+  H112  1  0.76960075  0.20246755  0.64809226  1
  H+  H113  1  0.42474401  0.87125110  0.65859772  1
  H+  H114  1  0.23042140  0.80204146  0.39390628  1
  H+  H115  1  0.75433663  0.86186209  0.66527513  1
  H+  H116  1  0.78299228  0.90111168  0.16089624  1
  H+  H117  1  0.80600658  0.17833123  0.03091028  1
  H+  H118  1  0.90024129  0.41978746  0.83313261  1
  H+  H119  1  0.56264010  0.45436340  0.89648414  1
  H+  H120  1  0.36727400  0.51523047  0.24370871  1
  H+  H121  1  0.87163478  0.77669464  0.38898803  1
  H+  H122  1  0.14973372  0.63553155  0.73796453  1
  H+  H123  1  0.45258410  0.22898826  0.59677918  1
  H+  H124  1  0.43314236  0.87315682  0.15188238  1
  H+  H125  1  0.10642020  0.89146433  0.16030549  1
  H+  H126  1  0.12026139  0.90280421  0.65288235  1
  H+  H127  1  0.10324585  0.23364334  0.61684678  1
  H+  H128  1  0.69468293  0.52131376  0.49786063  1
  H+  H129  1  0.77114677  0.54156967  0.65431203  1
  H+  H130  1  0.20347562  0.76866664  0.85096997  1
  H+  H131  1  0.22234934  0.42747275  0.83752292  1
  H+  H132  1  0.44668714  0.55891695  0.10918159  1
  H+  H133  1  0.76493040  0.22223634  0.16894990  1
  H+  H134  1  0.56212035  0.44946002  0.39627368  1
  H+  H135  1  0.72581152  0.74835714  0.08486197  1
  H+  H136  1  0.24108824  0.12514709  0.39311575  1
  H+  H137  1  0.77666955  0.56626887  0.16038635  1
  H+  H138  1  0.45757785  0.55585310  0.64806505  1
  H+  H139  1  0.10152675  0.54210416  0.60048320  1
  H+  H140  1  0.84251239  0.03744436  0.27300959  1
  H+  H141  1  0.87499020  0.10357814  0.36699122  1
  H+  H142  1  0.22022945  0.53357800  0.95957984  1
  H+  H143  1  0.55589563  0.77552563  0.34880061  1
  O2-  O144  1  0.10287991  0.21960251  0.23043442  1
  O2-  O145  1  0.08710555  0.24436464  0.68105957  1
  O2-  O146  1  0.11037039  0.52846420  0.12618715  1
  O2-  O147  1  0.11736134  0.55690047  0.71051432  1
  O2-  O148  1  0.11242324  0.88726787  0.22786150  1
  O2-  O149  1  0.12189837  0.90406272  0.72007660  1
  O2-  O150  1  0.43632658  0.24165001  0.19267933  1
  O2-  O151  1  0.45885502  0.22701328  0.69656723  1
  O2-  O152  1  0.44855787  0.55599704  0.21807623  1
  O2-  O153  1  0.45384873  0.55251035  0.71609002  1
  O2-  O154  1  0.43574217  0.86673526  0.21782195  1
  O2-  O155  1  0.42045201  0.86839997  0.72630817  1
  O2-  O156  1  0.76042205  0.22013230  0.23733578  1
  O2-  O157  1  0.77726254  0.20042317  0.71475248  1
  O2-  O158  1  0.78360102  0.56439442  0.22752373  1
  O2-  O159  1  0.76330073  0.52304722  0.71921931  1
  O2-  O160  1  0.78274644  0.90342083  0.22811520  1
  O2-  O161  1  0.75656147  0.86300333  0.73296139  1
  O2-  O162  1  0.22381863  0.11235236  0.27916691  1
  O2-  O163  1  0.20061409  0.12079950  0.77949072  1
  O2-  O164  1  0.23982903  0.45071533  0.28366064  1
  O2-  O165  1  0.22559732  0.44215208  0.77208162  1
  O2-  O166  1  0.21231004  0.76904058  0.29612476  1
  O2-  O167  1  0.20610223  0.76743632  0.78370853  1
  O2-  O168  1  0.55072859  0.07809874  0.29709937  1
  O2-  O169  1  0.53986704  0.09940564  0.77428263  1
  O2-  O170  1  0.55774369  0.44979349  0.28102561  1
  O2-  O171  1  0.55479024  0.43815774  0.78893628  1
  O2-  O172  1  0.56244098  0.77503869  0.28064156  1
  O2-  O173  1  0.53013036  0.76845957  0.78400790  1
  O2-  O174  1  0.87940678  0.11570502  0.30068593  1
  O2-  O175  1  0.85986472  0.08176671  0.80149605  1
  O2-  O176  1  0.93824882  0.46067977  0.24889464  1
  O2-  O177  1  0.89527253  0.42066277  0.76573670  1
  O2-  O178  1  0.88660506  0.78208243  0.28086691  1
  O2-  O179  1  0.90301109  0.78950520  0.78913243  1
  O2-  O180  1  0.23802551  0.12976603  0.46116808  1
  O2-  O181  1  0.23147907  0.13325552  0.95468277  1
  O2-  O182  1  0.23546695  0.43958207  0.48099892  1
  O2-  O183  1  0.22226607  0.47296511  0.99398352  1
  O2-  O184  1  0.24103497  0.82610490  0.46292273  1
  O2-  O185  1  0.20878430  0.78136424  0.98154618  1
  O2-  O186  1  0.54944295  0.11046125  0.48322983  1
  O2-  O187  1  0.53886907  0.09203557  1.02858044  1
  O2-  O188  1  0.56868855  0.45246934  0.46450138  1
  O2-  O189  1  0.56486216  0.45682343  0.96618574  1
  O2-  O190  1  0.54365698  0.77177031  0.46412606  1
  O2-  O191  1  0.55051640  0.76572481  0.98881545  1
  O2-  O192  1  0.88342120  0.07706796  0.49440297  1
  O2-  O193  1  0.85239119  0.09522199  0.99589812  1
  O2-  O194  1  0.86622991  0.45034921  0.48352938  1
  O2-  O195  1  0.89328508  0.43643984  0.95206662  1
  O2-  O196  1  0.86952294  0.77405039  0.45824959  1
  O2-  O197  1  0.89728213  0.78330972  0.96156212  1
  O2-  O198  1  0.05322276  0.10905802  0.06435287  1
  O2-  O199  1  0.11261686  0.20509221  0.49975597  1
  O2-  O200  1  0.06026041  0.57576070  0.06246597  1
  O2-  O201  1  0.08136234  0.51517572  0.53482904  1
  O2-  O202  1  0.08943999  0.92376503  0.04881158  1
  O2-  O203  1  0.08144311  0.87019427  0.53251496  1
  O2-  O204  1  0.44329372  0.23309231  0.01744942  1
  O2-  O205  1  0.44845195  0.22640638  0.52518260  1
  O2-  O206  1  0.44532728  0.56360880  0.03976477  1
  O2-  O207  1  0.45913713  0.55801648  0.53041665  1
  O2-  O208  1  0.44663933  0.88554978  -0.02410621  1
  O2-  O209  1  0.44570191  0.88745213  0.53902067  1
  O2-  O210  1  0.76915189  0.22371750  0.05280525  1
  O2-  O211  1  0.76081543  0.23145089  0.52539826  1
  O2-  O212  1  0.77166262  0.56076200  0.03914910  1
  O2-  O213  1  0.77774682  0.56246298  0.52148568  1
  O2-  O214  1  0.75006916  0.81856668  0.05039754  1
  O2-  O215  1  0.74806176  0.85417171  0.54509974  1
