# generated using pymatgen
data_H2O
_symmetry_space_group_name_H-M   'P 1'
_cell_length_a   13.51772445
_cell_length_b   13.50603788
_cell_length_c   14.69377756
_cell_angle_alpha   89.95300629
_cell_angle_beta   90.00197253
_cell_angle_gamma   120.02013826
_symmetry_Int_Tables_number   1
_chemical_formula_structural   H2O
_chemical_formula_sum   'H144 O72'
_cell_volume   2322.77580143
_cell_formula_units_Z   72
loop_
 _symmetry_equiv_pos_site_id
 _symmetry_equiv_pos_as_xyz
  1  'x, y, z'
loop_
 _atom_type_symbol
 _atom_type_oxidation_number
  H+  1.0
  O2-  -2.0
loop_
 _atom_site_type_symbol
 _atom_site_label
 _atom_site_symmetry_multiplicity
 _atom_site_fract_x
 _atom_site_fract_y
 _atom_site_fract_z
 _atom_site_occupancy
  H+  H0  1  0.69498006  0.83404334  -0.00424180  1
  H+  H1  1  0.18776468  0.04132762  0.48609528  1
  H+  H2  1  0.96958286  0.15507343  0.49326760  1
  H+  H3  1  0.53309757  0.83047619  0.76723658  1
  H+  H4  1  0.08230297  0.56268314  0.58742636  1
  H+  H5  1  0.02494367  0.17421022  0.73631079  1
  H+  H6  1  0.14498669  0.18191406  0.50439074  1
  H+  H7  1  0.52595274  0.37197811  0.49568640  1
  H+  H8  1  0.81520321  0.64362366  0.74606961  1
  H+  H9  1  0.11021605  0.62360056  0.49237870  1
  H+  H10  1  0.38468526  0.22219336  0.25095483  1
  H+  H11  1  0.52019191  0.69625088  0.25304377  1
  H+  H12  1  0.14347885  0.50083494  0.01840552  1
  H+  H13  1  0.04816276  0.53138164  0.23314500  1
  H+  H14  1  0.32388453  0.83296800  0.76505812  1
  H+  H15  1  0.15898493  0.67595678  -0.01266066  1
  H+  H16  1  0.50830120  0.97690087  0.24765209  1
  H+  H17  1  0.19780849  0.72174050  0.75298842  1
  H+  H18  1  0.69338514  0.17092922  0.75438411  1
  H+  H19  1  0.37201233  0.19804657  0.50686301  1
  H+  H20  1  0.20067022  0.37068999  0.48886233  1
  H+  H21  1  0.78121101  0.90220602  0.60280947  1
  H+  H22  1  0.25026083  0.53315958  0.93527296  1
  H+  H23  1  0.71068473  0.85818214  0.24631336  1
  H+  H24  1  0.05529682  0.66535785  0.67588685  1
  H+  H25  1  0.51238849  0.16331895  0.77088674  1
  H+  H26  1  0.30831675  0.48584555  0.25439749  1
  H+  H27  1  0.63465468  0.49258099  0.76529486  1
  H+  H28  1  0.25118116  0.80302938  0.51781771  1
  H+  H29  1  0.84578982  0.36217269  0.99501766  1
  H+  H30  1  0.36945025  0.51550261  0.74465371  1
  H+  H31  1  0.18481868  0.17913295  0.24226459  1
  H+  H32  1  0.84620898  0.15217962  0.49691445  1
  H+  H33  1  0.48304729  0.31255691  0.73748395  1
  H+  H34  1  0.51275123  1.05142036  0.49341525  1
  H+  H35  1  0.69608669  0.20246650  0.25526161  1
  H+  H36  1  0.82377321  0.85113760  0.72900795  1
  H+  H37  1  0.88643920  0.78435703  0.83821102  1
  H+  H38  1  0.16680287  0.86264076  0.74046169  1
  H+  H39  1  0.70682758  0.86121258  0.50115858  1
  H+  H40  1  0.86526358  0.71009498  0.51679205  1
  H+  H41  1  0.95150762  0.80637489  0.28655236  1
  H+  H42  1  0.50297283  0.99512536  0.75939848  1
  H+  H43  1  0.19333333  0.49247959  0.25916323  1
  H+  H44  1  0.50584545  0.85472366  0.02397350  1
  H+  H45  1  0.84978919  0.83144587  0.29219879  1
  H+  H46  1  0.70847458  0.53776171  0.22891956  1
  H+  H47  1  0.52105883  0.68903734  -0.00709991  1
  H+  H48  1  0.19184380  0.35094793  0.75841289  1
  H+  H49  1  0.52299204  0.81747633  0.25840152  1
  H+  H50  1  0.46502478  0.89808251  0.15745437  1
  H+  H51  1  0.80757089  0.28487849  0.53399686  1
  H+  H52  1  0.82067549  0.53029994  0.21233196  1
  H+  H53  1  0.55097791  0.12538635  0.39203151  1
  H+  H54  1  0.12117840  -0.04988215  0.26941233  1
  H+  H55  1  0.89531443  0.78796333  0.42617732  1
  H+  H56  1  0.94892341  0.47364126  0.50376522  1
  H+  H57  1  0.52000435  0.70474242  0.76078700  1
  H+  H58  1  0.50201612  0.63683247  0.50619718  1
  H+  H59  1  0.82157625  0.82817696  0.98402987  1
  H+  H60  1  0.85567244  0.50554267  0.77557314  1
  H+  H61  1  0.70239791  0.84808375  0.73608388  1
  H+  H62  1  -0.02274228  0.82425097  0.75565235  1
  H+  H63  1  0.53823774  0.39388133  0.26787063  1
  H+  H64  1  0.81190895  0.17334574  1.01757531  1
  H+  H65  1  0.49449710  0.52502500  0.24281143  1
  H+  H66  1  0.85480210  0.37795001  0.24459501  1
  H+  H67  1  0.49819726  0.21199531  0.26247756  1
  H+  H68  1  0.30541027  0.28253432  0.93202190  1
  H+  H69  1  0.10401361  0.21840032  0.59417322  1
  H+  H70  1  0.22249811  0.09310001  0.20584410  1
  H+  H71  1  0.16730071  0.64969385  0.24071557  1
  H+  H72  1  0.47990818  0.50895723  0.00986004  1
  H+  H73  1  0.14694660  0.85259805  0.24518205  1
  H+  H74  1  0.81239161  0.19703080  0.25476349  1
  H+  H75  1  0.82767815  -0.00209014  0.50889873  1
  H+  H76  1  0.80841422  0.51180130  0.53302029  1
  H+  H77  1  0.15819545  0.83053781  0.48643041  1
  H+  H78  1  0.63176287  0.47947537  0.98759963  1
  H+  H79  1  0.13974011  0.33007200  0.00474094  1
  H+  H80  1  0.96416081  0.47912641  1.00199327  1
  H+  H81  1  0.01872219  0.55702817  0.73786866  1
  H+  H82  1  0.45662707  0.05934203  0.30076831  1
  H+  H83  1  0.63515816  0.15356273  0.00085463  1
  H+  H84  1  0.50034809  -0.02951774  1.02241509  1
  H+  H85  1  0.36106302  0.51424701  1.00804656  1
  H+  H86  1  0.12372011  0.81962944  0.97018090  1
  H+  H87  1  0.14908761  0.21958422  0.00726815  1
  H+  H88  1  0.37850835  0.51959806  0.50768854  1
  H+  H89  1  0.51672218  0.49435470  0.76279383  1
  H+  H90  1  0.44830772  0.55285759  0.14979866  1
  H+  H91  1  0.54015667  0.81836503  0.47367860  1
  H+  H92  1  0.51535308  0.15088038  0.00772570  1
  H+  H93  1  0.02826391  0.86006247  0.51473948  1
  H+  H94  1  -0.04045147  0.14983191  -0.00914264  1
  H+  H95  1  0.81221114  0.51593908  1.00165282  1
  H+  H96  1  0.15012680  0.31579806  0.23818306  1
  H+  H97  1  0.69043689  0.17083055  0.51332452  1
  H+  H98  1  0.48890079  0.19230169  0.50708697  1
  H+  H99  1  0.84352346  0.14142347  0.76333461  1
  H+  H100  1  0.82225882  0.96012645  -0.00519630  1
  H+  H101  1  0.11704550  -0.08073758  1.02218340  1
  H+  H102  1  0.31684221  0.83242303  0.26402108  1
  H+  H103  1  0.30565806  0.15907431  0.75150988  1
  H+  H104  1  0.32269999  0.19829511  -0.00715448  1
  H+  H105  1  0.82187981  -0.01982715  0.25203353  1
  H+  H106  1  0.83045675  0.68308646  -0.02392164  1
  H+  H107  1  0.38123759  0.81577680  0.45380384  1
  H+  H108  1  0.88264909  0.10324601  0.90136930  1
  H+  H109  1  0.57708256  0.47199732  0.35633471  1
  H+  H110  1  0.90208132  0.48255487  0.31466295  1
  H+  H111  1  0.54972596  0.43769692  0.90072906  1
  H+  H112  1  0.22822526  0.12100267  0.39742642  1
  H+  H113  1  0.15883305  0.97597086  0.73993561  1
  H+  H114  1  0.23121618  0.12953577  0.84138121  1
  H+  H115  1  0.89036030  0.12927559  0.35278908  1
  H+  H116  1  0.24433599  0.44602667  0.39906112  1
  H+  H117  1  0.45578095  0.23642026  0.11366948  1
  H+  H118  1  0.10061010  0.24031995  0.14768209  1
  H+  H119  1  0.44697277  0.23038130  0.64969757  1
  H+  H120  1  0.49262613  0.30421688  0.01904721  1
  H+  H121  1  0.83647553  0.40439157  0.43800670  1
  H+  H122  1  0.58397118  0.78141774  0.38650676  1
  H+  H123  1  0.77007497  0.55545878  0.66404110  1
  H+  H124  1  0.48559668  0.92790899  0.66718309  1
  H+  H125  1  0.11413114  0.55466810  0.10414621  1
  H+  H126  1  0.95542061  0.80421757  0.96622675  1
  H+  H127  1  0.77753162  0.22040821  0.10599005  1
  H+  H128  1  0.45082104  0.56551126  0.65582186  1
  H+  H129  1  -0.03467398  0.17265654  0.26126519  1
  H+  H130  1  0.77089405  0.56227869  0.08639883  1
  H+  H131  1  0.76207315  0.19248078  0.66159207  1
  H+  H132  1  0.85156703  0.02737110  0.75980627  1
  H+  H133  1  0.90727565  0.46696264  0.85694255  1
  H+  H134  1  0.38817611  0.76833500  0.54797367  1
  H+  H135  1  0.69787011  0.52368400  0.52183903  1
  H+  H136  1  0.21807497  0.76309728  0.90376712  1
  H+  H137  1  0.23529571  0.42461823  0.85106972  1
  H+  H138  1  0.56149794  0.77187753  0.90414466  1
  H+  H139  1  0.14194432  0.17080071  0.73145164  1
  H+  H140  1  0.54902725  0.12353057  0.86404336  1
  H+  H141  1  0.22866481  0.79101802  0.34902822  1
  H+  H142  1  0.12411545  0.90877915  0.59566486  1
  H+  H143  1  0.52111424  0.48826564  0.49861996  1
  O2-  O144  1  0.10474423  0.23432213  0.21533051  1
  O2-  O145  1  0.10319614  0.21224116  0.70852313  1
  O2-  O146  1  0.13116799  0.56900593  0.21889373  1
  O2-  O147  1  0.08348583  0.61451946  0.69435371  1
  O2-  O148  1  0.09878213  0.88607850  0.22790548  1
  O2-  O149  1  0.12069609  0.89573058  0.71583910  1
  O2-  O150  1  0.46582102  0.25711793  0.23179020  1
  O2-  O151  1  0.44339107  0.23038123  0.71788282  1
  O2-  O152  1  0.44771448  0.55789215  0.21796589  1
  O2-  O153  1  0.45129570  0.56836147  0.72367064  1
  O2-  O154  1  0.46007969  0.89681297  0.22777130  1
  O2-  O155  1  0.47336104  0.91516517  0.73245748  1
  O2-  O156  1  0.77381910  0.23887325  0.22933921  1
  O2-  O157  1  0.76956477  0.19415227  0.72874300  1
  O2-  O158  1  0.77872245  0.56806337  0.19114027  1
  O2-  O159  1  0.77139829  0.56001273  0.73251314  1
  O2-  O160  1  0.79404096  0.89984077  0.23516274  1
  O2-  O161  1  0.78048653  0.88976267  0.70762372  1
  O2-  O162  1  0.23169843  0.14152881  0.25822812  1
  O2-  O163  1  0.22488172  0.11441113  0.77509594  1
  O2-  O164  1  0.22812441  0.44571444  0.27866557  1
  O2-  O165  1  0.24382652  0.42804167  0.78350724  1
  O2-  O166  1  0.23420114  0.79097949  0.28173437  1
  O2-  O167  1  0.24284909  0.79714492  0.78420447  1
  O2-  O168  1  0.53615133  0.12051432  0.30528511  1
  O2-  O169  1  0.54991309  0.12139187  0.79572793  1
  O2-  O170  1  0.57733733  0.47554019  0.28833338  1
  O2-  O171  1  0.55194414  0.44837985  0.78420751  1
  O2-  O172  1  0.56298669  0.77588077  0.27877244  1
  O2-  O173  1  0.56908302  0.78463608  0.78535612  1
  O2-  O174  1  0.88556667  0.13461868  0.28545240  1
  O2-  O175  1  0.89050445  0.10580018  0.78581930  1
  O2-  O176  1  0.90274331  0.46417048  0.25085698  1
  O2-  O177  1  0.91225884  0.48133494  0.79031484  1
  O2-  O178  1  0.88199306  0.78656597  0.32149641  1
  O2-  O179  1  0.89403499  0.78811852  0.77026545  1
  O2-  O180  1  0.22909808  0.12324395  0.46424243  1
  O2-  O181  1  0.26434147  0.20362362  0.95387626  1
  O2-  O182  1  0.25451137  0.44833865  0.46606739  1
  O2-  O183  1  0.23822787  0.46504195  0.96787752  1
  O2-  O184  1  0.19526903  0.78224143  0.46893120  1
  O2-  O185  1  0.19321650  0.75697335  0.96778285  1
  O2-  O186  1  0.55998189  0.12923667  0.47113391  1
  O2-  O187  1  0.55423895  0.11239210  0.97898789  1
  O2-  O188  1  0.56650764  0.45364683  0.47445657  1
  O2-  O189  1  0.54902707  0.43436357  0.96901255  1
  O2-  O190  1  0.58860779  0.78583804  0.45599997  1
  O2-  O191  1  0.56768286  0.77133893  0.97194397  1
  O2-  O192  1  0.88708970  0.11256830  0.47118338  1
  O2-  O193  1  0.87941083  0.09745539  0.96995213  1
  O2-  O194  1  0.86005104  0.42322206  0.50099359  1
  O2-  O195  1  0.88490572  0.44370800  0.97589714  1
  O2-  O196  1  0.90802970  0.78995306  0.49486378  1
  O2-  O197  1  0.86905089  0.76542149  0.95215500  1
  O2-  O198  1  0.09901435  0.24902841  0.02852805  1
  O2-  O199  1  0.10195800  0.21966869  0.52567326  1
  O2-  O200  1  0.09936938  0.53935449  0.03752729  1
  O2-  O201  1  0.07461595  0.54697544  0.52050208  1
  O2-  O202  1  0.08560654  0.86923435  -0.03029611  1
  O2-  O203  1  0.11715253  0.90888781  0.52804511  1
  O2-  O204  1  0.44839427  0.22536149  0.04616930  1
  O2-  O205  1  0.45063593  0.23441704  0.53257743  1
  O2-  O206  1  0.44481852  0.55376407  0.03279102  1
  O2-  O207  1  0.45810648  0.56170077  0.53637466  1
  O2-  O208  1  0.47031328  0.89521201  0.05297206  1
  O2-  O209  1  0.42444913  0.83762893  0.51080306  1
  O2-  O210  1  0.77569937  0.21801703  0.03838387  1
  O2-  O211  1  0.76834755  0.20007332  0.54154039  1
  O2-  O212  1  0.77015161  0.55742882  0.01649278  1
  O2-  O213  1  0.77549715  0.56033187  0.55117805  1
  O2-  O214  1  0.78170040  0.87520106  0.01018126  1
  O2-  O215  1  0.78316328  0.91286387  0.53328257  1
