# generated using pymatgen
data_H2O
_symmetry_space_group_name_H-M   'P 1'
_cell_length_a   13.51360823
_cell_length_b   13.53664977
_cell_length_c   14.68174353
_cell_angle_alpha   89.98307377
_cell_angle_beta   90.03399509
_cell_angle_gamma   120.04790255
_symmetry_Int_Tables_number   1
_chemical_formula_structural   H2O
_chemical_formula_sum   'H144 O72'
_cell_volume   2324.77469609
_cell_formula_units_Z   72
loop_
 _symmetry_equiv_pos_site_id
 _symmetry_equiv_pos_as_xyz
  1  'x, y, z'
loop_
 _atom_type_symbol
 _atom_type_oxidation_number
  H+  1.0
  O2-  -2.0
loop_
 _atom_site_type_symbol
 _atom_site_label
 _atom_site_symmetry_multiplicity
 _atom_site_fract_x
 _atom_site_fract_y
 _atom_site_fract_z
 _atom_site_occupancy
  H+  H0  1  0.14878718  -0.02861746  0.74706414  1
  H+  H1  1  0.83433893  0.13151171  0.25590442  1
  H+  H2  1  0.81343087  0.84810328  0.50970204  1
  H+  H3  1  -0.03174002  0.14413899  0.49299760  1
  H+  H4  1  0.15118261  0.50614240  0.96638581  1
  H+  H5  1  0.88826316  0.10724739  0.40403659  1
  H+  H6  1  0.14893641  0.29257729  0.51903645  1
  H+  H7  1  0.03055153  0.85052695  0.74260279  1
  H+  H8  1  0.88390696  0.09939060  0.83855261  1
  H+  H9  1  0.48038838  0.84289050  1.00620742  1
  H+  H10  1  0.30107993  0.15352179  0.26644072  1
  H+  H11  1  0.16077643  0.63761274  0.54662346  1
  H+  H12  1  0.48013817  0.18953588  0.23659072  1
  H+  H13  1  0.30199743  0.48679097  0.48841664  1
  H+  H14  1  0.13963261  0.28509487  0.22563254  1
  H+  H15  1  0.36756742  0.18031873  0.51281192  1
  H+  H16  1  0.69677439  0.17400611  0.00318771  1
  H+  H17  1  0.36973492  0.86036312  0.24453803  1
  H+  H18  1  0.81947008  0.63183736  0.01806200  1
  H+  H19  1  0.51525943  0.02700421  0.98704657  1
  H+  H20  1  0.70327672  0.51064148  0.01527064  1
  H+  H21  1  0.82198719  0.18006386  0.51121734  1
  H+  H22  1  0.37828668  0.50721232  1.01353622  1
  H+  H23  1  0.84106613  1.01447366  0.75070413  1
  H+  H24  1  0.96814895  0.81279324  0.99756892  1
  H+  H25  1  0.81338232  0.50770960  0.73995308  1
  H+  H26  1  0.48866298  0.18164540  0.51315300  1
  H+  H27  1  0.14803757  0.16310226  0.00802517  1
  H+  H28  1  0.12983617  0.27583096  0.74835270  1
  H+  H29  1  0.10261511  0.20134835  0.09421520  1
  H+  H30  1  0.51596176  0.14536079  0.98682612  1
  H+  H31  1  0.94609281  0.48093152  0.76921549  1
  H+  H32  1  0.49011757  0.63051968  1.00699478  1
  H+  H33  1  0.69316579  0.48295984  0.51528113  1
  H+  H34  1  0.15067284  0.83502336  1.01299611  1
  H+  H35  1  0.20322920  0.71054360  0.27036065  1
  H+  H36  1  0.21928479  0.43977824  0.14199443  1
  H+  H37  1  0.45420923  0.53823620  0.41958127  1
  H+  H38  1  0.82216313  0.48790814  0.51854052  1
  H+  H39  1  1.15090320  0.62391792  0.95862253  1
  H+  H40  1  0.97179859  0.14871695  0.98184576  1
  H+  H41  1  0.17957214  0.71683613  0.76978212  1
  H+  H42  1  0.97450387  0.48158019  0.51045182  1
  H+  H43  1  0.34403354  0.60271916  0.78825440  1
  H+  H44  1  0.18759715  0.83604284  0.76750692  1
  H+  H45  1  0.52343055  0.66904142  0.25586287  1
  H+  H46  1  1.02019835  0.16842624  0.23858596  1
  H+  H47  1  0.48029271  0.30562580  0.23642914  1
  H+  H48  1  0.85854689  0.35539131  0.50533140  1
  H+  H49  1  0.69592927  0.50670543  0.73569629  1
  H+  H50  1  0.85271198  0.48007340  0.99879384  1
  H+  H51  1  0.25871272  0.79950882  0.35480590  1
  H+  H52  1  0.81709229  0.84491127  0.73905451  1
  H+  H53  1  0.52828436  0.48072610  -0.01032327  1
  H+  H54  1  0.53006871  0.47133310  0.49527158  1
  H+  H55  1  0.29723109  0.81158068  -0.00800741  1
  H+  H56  1  0.63751008  0.15836972  0.49112325  1
  H+  H57  1  0.86151486  0.43024313  0.85359626  1
  H+  H58  1  0.17308721  0.53870854  0.22933038  1
  H+  H59  1  0.51656111  0.34504313  0.49959867  1
  H+  H60  1  0.98172842  0.82998339  0.50322340  1
  H+  H61  1  0.18098240  0.14315912  0.76807727  1
  H+  H62  1  0.19116896  0.34493402  -0.01034052  1
  H+  H63  1  0.17858006  0.14102480  0.26985070  1
  H+  H64  1  0.47712052  0.16905629  0.74237143  1
  H+  H65  1  0.24316589  0.50334360  0.73088188  1
  H+  H66  1  0.62234131  0.81040497  -0.03951350  1
  H+  H67  1  0.41156702  0.52559393  0.72418957  1
  H+  H68  1  0.30213157  0.14706073  0.76597039  1
  H+  H69  1  0.84521126  1.01893415  0.26667882  1
  H+  H70  1  0.80731689  0.96212817  0.51040185  1
  H+  H71  1  0.49530629  0.49874026  0.24152725  1
  H+  H72  1  1.02825598  0.82068541  0.24190336  1
  H+  H73  1  0.48472729  0.29375265  0.00567794  1
  H+  H74  1  0.85151690  0.81644699  0.99151968  1
  H+  H75  1  0.30075647  0.13773855  0.99666688  1
  H+  H76  1  0.64719479  0.47466652  0.26634406  1
  H+  H77  1  0.17439973  0.96716544  0.51577072  1
  H+  H78  1  0.81132626  0.17059562  0.73948127  1
  H+  H79  1  0.86425994  0.79711966  0.27234751  1
  H+  H80  1  0.85353051  0.15239477  0.98222181  1
  H+  H81  1  0.82561394  0.49772271  0.23735964  1
  H+  H82  1  0.45481983  0.79354561  0.74686040  1
  H+  H83  1  0.77236027  0.88054832  0.65158956  1
  H+  H84  1  0.80610888  0.28691559  0.74492714  1
  H+  H85  1  0.11772422  0.53798923  0.79033167  1
  H+  H86  1  0.16243272  0.83889267  0.24530759  1
  H+  H87  1  0.52407729  0.78330729  0.23676703  1
  H+  H88  1  0.81470165  0.29372736  1.00837213  1
  H+  H89  1  0.18740277  0.14209265  0.49794738  1
  H+  H90  1  0.21610433  0.82872966  0.53791609  1
  H+  H91  1  0.81098677  0.28250992  0.23516517  1
  H+  H92  1  0.50880890  0.71189647  0.75018536  1
  H+  H93  1  0.62088519  0.13183001  0.75392069  1
  H+  H94  1  0.52336896  0.35098502  0.76183386  1
  H+  H95  1  0.62477179  0.81637550  0.49300001  1
  H+  H96  1  0.53448585  0.47437301  0.75518802  1
  H+  H97  1  0.22929840  0.10904988  0.40672022  1
  H+  H98  1  1.15287424  0.95579588  1.01934172  1
  H+  H99  1  0.70620303  0.82243999  0.25158632  1
  H+  H100  1  0.63070095  0.15865785  0.25326123  1
  H+  H101  1  0.81917970  -0.02249868  0.98550592  1
  H+  H102  1  0.47242228  0.95410438  0.71428044  1
  H+  H103  1  0.05885616  0.53731750  0.25536783  1
  H+  H104  1  0.85016380  0.69404085  0.75836397  1
  H+  H105  1  0.15249639  0.51687210  0.53412279  1
  H+  H106  1  0.49910484  0.90582107  0.27186690  1
  H+  H107  1  0.96094285  0.36960910  0.30590079  1
  H+  H108  1  0.96637353  0.47494199  0.96998844  1
  H+  H109  1  0.56807145  0.43823340  0.90218348  1
  H+  H110  1  0.30910971  0.47379341  0.21975538  1
  H+  H111  1  0.48872147  0.64305186  0.48407499  1
  H+  H112  1  0.86315708  0.67809945  0.26614128  1
  H+  H113  1  0.11309079  0.86657371  0.14314315  1
  H+  H114  1  0.90782229  0.42393128  0.36863467  1
  H+  H115  1  0.77044338  0.20874224  0.14289071  1
  H+  H116  1  0.46573797  0.54541843  0.14876764  1
  H+  H117  1  0.77546954  0.53298092  0.61392065  1
  H+  H118  1  0.48346188  0.55231002  0.63382861  1
  H+  H119  1  0.01340415  0.15714725  0.74167838  1
  H+  H120  1  0.10223963  0.55105140  0.68015777  1
  H+  H121  1  0.20232472  0.44106477  0.41638906  1
  H+  H122  1  0.38054429  0.85681269  0.64973464  1
  H+  H123  1  0.55461910  0.77889641  0.40063770  1
  H+  H124  1  0.88813495  0.76909904  0.84936848  1
  H+  H125  1  0.55791951  0.12597923  0.40366445  1
  H+  H126  1  0.79837259  0.86184265  0.17273807  1
  H+  H127  1  0.50630354  0.05090867  0.25404804  1
  H+  H128  1  0.78493266  0.54364677  0.15325936  1
  H+  H129  1  0.44140327  0.21586613  0.65551547  1
  H+  H130  1  0.44996950  0.88965088  0.09586497  1
  H+  H131  1  0.44286657  0.21893827  0.09623259  1
  H+  H132  1  0.90679101  0.78091554  0.41576452  1
  H+  H133  1  0.77977580  0.21654317  0.60149136  1
  H+  H134  1  0.24719405  0.43600527  0.90811150  1
  H+  H135  1  0.56802548  0.43355120  0.35588215  1
  H+  H136  1  0.12649017  0.89366399  0.60728643  1
  H+  H137  1  0.10524134  0.20766216  0.60373827  1
  H+  H138  1  0.39436095  0.80810288  0.47666173  1
  H+  H139  1  0.73839802  0.90781181  0.06530019  1
  H+  H140  1  0.54307299  0.09261327  0.84215666  1
  H+  H141  1  0.22014101  0.09491406  0.90899856  1
  H+  H142  1  0.51473271  0.75859727  0.89162114  1
  H+  H143  1  0.22376286  0.78847617  0.90025870  1
  O2-  O144  1  0.09852641  0.20242631  0.21194333  1
  O2-  O145  1  0.09820481  0.19952340  0.72278980  1
  O2-  O146  1  0.13633041  0.58627064  0.23097338  1
  O2-  O147  1  0.08610656  0.56600872  0.74343131  1
  O2-  O148  1  0.10994933  0.86323774  0.21484923  1
  O2-  O149  1  0.11141574  0.89261826  0.72080667  1
  O2-  O150  1  0.43774797  0.22678714  0.21161216  1
  O2-  O151  1  0.44097327  0.21550839  0.72378139  1
  O2-  O152  1  0.45613851  0.53991686  0.21704995  1
  O2-  O153  1  0.49042728  0.55683461  0.70006809  1
  O2-  O154  1  0.45139790  0.90265605  0.22079522  1
  O2-  O155  1  0.45362263  0.88270655  0.68122325  1
  O2-  O156  1  0.76649643  0.20380031  0.21174915  1
  O2-  O157  1  0.76868267  0.20899935  0.71792799  1
  O2-  O158  1  0.78732856  0.54075321  0.22244463  1
  O2-  O159  1  0.77636435  0.54891133  0.71009504  1
  O2-  O160  1  0.79055102  0.86714230  0.23836570  1
  O2-  O161  1  0.77725391  0.88597741  0.71921207  1
  O2-  O162  1  0.22540337  0.11123925  0.29672437  1
  O2-  O163  1  0.22279014  0.10546650  0.79191586  1
  O2-  O164  1  0.22517809  0.44137729  0.20845914  1
  O2-  O165  1  0.29173839  0.51669737  0.78392457  1
  O2-  O166  1  0.24233287  0.79479525  0.28833253  1
  O2-  O167  1  0.22698041  0.79579870  0.79198688  1
  O2-  O168  1  0.55228257  0.12895147  0.27894488  1
  O2-  O169  1  0.53964474  0.09228912  0.77424518  1
  O2-  O170  1  0.56675488  0.44009521  0.28822647  1
  O2-  O171  1  0.56961672  0.43235206  0.78388522  1
  O2-  O172  1  0.56250697  0.75276815  0.27426653  1
  O2-  O173  1  0.45980278  0.73216786  0.78546531  1
  O2-  O174  1  0.88151684  0.10084878  0.28284466  1
  O2-  O175  1  0.88410090  0.09875992  0.77069071  1
  O2-  O176  1  0.91999389  0.41197780  0.30247552  1
  O2-  O177  1  0.86324808  0.43206881  0.78520462  1
  O2-  O178  1  0.90934165  0.75924236  0.28698415  1
  O2-  O179  1  0.89053052  0.77342040  0.78179683  1
  O2-  O180  1  0.23212654  0.10688545  0.47599484  1
  O2-  O181  1  0.21841456  0.09259377  0.97730159  1
  O2-  O182  1  0.21656438  0.44440865  0.48181441  1
  O2-  O183  1  0.23733374  0.42890868  0.97474253  1
  O2-  O184  1  0.25967254  0.78439005  0.54394461  1
  O2-  O185  1  0.21717205  0.77405025  0.96907392  1
  O2-  O186  1  0.55705019  0.12403558  0.47097030  1
  O2-  O187  1  0.55746396  0.10673895  0.96315045  1
  O2-  O188  1  0.56742474  0.42806214  0.47610898  1
  O2-  O189  1  0.56749459  0.43835709  0.97040957  1
  O2-  O190  1  0.54468455  0.77410332  0.46737803  1
  O2-  O191  1  0.53795643  0.76491294  0.95752474  1
  O2-  O192  1  0.88713937  0.10776107  0.47178512  1
  O2-  O193  1  0.89189177  0.11110540  0.95719201  1
  O2-  O194  1  0.89670798  0.43807749  0.48206117  1
  O2-  O195  1  0.88050216  0.43168083  0.97010068  1
  O2-  O196  1  0.90253338  0.79702016  0.48043893  1
  O2-  O197  1  0.88806307  0.77170147  0.97405400  1
  O2-  O198  1  0.10937673  0.20729354  0.02614645  1
  O2-  O199  1  0.10792989  0.21084954  0.53579133  1
  O2-  O200  1  0.10847858  0.54140329  -0.05855394  1
  O2-  O201  1  0.11130458  0.55409214  0.55986231  1
  O2-  O202  1  0.11087663  0.87455026  0.04191665  1
  O2-  O203  1  0.13713782  0.88745129  0.54019446  1
  O2-  O204  1  0.44259041  0.21329612  0.02795549  1
  O2-  O205  1  0.44820603  0.22308759  0.53722214  1
  O2-  O206  1  0.45961903  0.55260149  0.03398526  1
  O2-  O207  1  0.44933476  0.55464252  0.48379112  1
  O2-  O208  1  0.44366382  0.88656050  0.02886792  1
  O2-  O209  1  0.33001560  0.82013889  0.46081704  1
  O2-  O210  1  0.77656762  0.21195552  0.02870728  1
  O2-  O211  1  0.78635206  0.22527406  0.53342119  1
  O2-  O212  1  0.78260895  0.55191046  0.04168822  1
  O2-  O213  1  0.77448629  0.52317653  0.54136424  1
  O2-  O214  1  0.77093244  0.89641619  0.00976503  1
  O2-  O215  1  0.76431109  0.88062404  0.52944928  1
