# generated using pymatgen
data_H2O
_symmetry_space_group_name_H-M   'P 1'
_cell_length_a   13.49858376
_cell_length_b   13.51267486
_cell_length_c   14.68162817
_cell_angle_alpha   89.99294934
_cell_angle_beta   89.96990804
_cell_angle_gamma   119.98897000
_symmetry_Int_Tables_number   1
_chemical_formula_structural   H2O
_chemical_formula_sum   'H144 O72'
_cell_volume   2319.43678863
_cell_formula_units_Z   72
loop_
 _symmetry_equiv_pos_site_id
 _symmetry_equiv_pos_as_xyz
  1  'x, y, z'
loop_
 _atom_type_symbol
 _atom_type_oxidation_number
  H+  1.0
  O2-  -2.0
loop_
 _atom_site_type_symbol
 _atom_site_label
 _atom_site_symmetry_multiplicity
 _atom_site_fract_x
 _atom_site_fract_y
 _atom_site_fract_z
 _atom_site_occupancy
  H+  H0  1  0.83817602  0.82481207  0.98501283  1
  H+  H1  1  0.71293297  0.53903669  0.00698603  1
  H+  H2  1  0.15342461  0.81255733  0.50180773  1
  H+  H3  1  0.47354171  0.62553383  0.49121825  1
  H+  H4  1  0.14088524  0.30653209  0.49893695  1
  H+  H5  1  0.78385269  0.88196829  0.09681195  1
  H+  H6  1  0.17160422  0.68279391  0.99246090  1
  H+  H7  1  0.36350443  0.84072181  0.74086773  1
  H+  H8  1  -0.02167027  0.15579517  -0.01463034  1
  H+  H9  1  1.05877548  0.51571641  0.73192677  1
  H+  H10  1  0.51923557  0.69590393  0.25099821  1
  H+  H11  1  0.23941921  0.77548036  0.36632594  1
  H+  H12  1  0.36103054  0.18202431  1.00113899  1
  H+  H13  1  0.04381000  0.51521356  0.23345667  1
  H+  H14  1  0.86796465  0.92350750  0.49316329  1
  H+  H15  1  0.04347075  0.86221046  -0.02804270  1
  H+  H16  1  0.85375720  0.82791910  0.76195381  1
  H+  H17  1  0.50036926  0.12777176  0.76289489  1
  H+  H18  1  0.15628146  0.85342007  -0.03006058  1
  H+  H19  1  0.02626012  0.17928507  0.50325356  1
  H+  H20  1  0.17236283  0.97341609  0.70918628  1
  H+  H21  1  0.35530401  0.83464775  1.01473364  1
  H+  H22  1  0.48190101  -0.03798755  0.50862799  1
  H+  H23  1  0.46306447  0.51106475  0.74245438  1
  H+  H24  1  0.86092647  0.49560075  0.48880959  1
  H+  H25  1  0.62201720  0.15119160  0.49222003  1
  H+  H26  1  0.96885327  0.14564320  0.75940650  1
  H+  H27  1  0.40472187  0.18152718  0.22546167  1
  H+  H28  1  0.12654693  -0.10288825  0.39062579  1
  H+  H29  1  0.44588844  0.25921553  0.74653993  1
  H+  H30  1  0.17982261  0.70067803  0.75305724  1
  H+  H31  1  0.52205144  1.01968434  0.26277452  1
  H+  H32  1  0.17655072  0.48670510  0.48579363  1
  H+  H33  1  0.54954424  0.61036937  0.68042614  1
  H+  H34  1  0.15160030  0.02834535  0.30537096  1
  H+  H35  1  0.85654590  0.36183551  0.26577772  1
  H+  H36  1  0.28976686  0.79554819  0.49426824  1
  H+  H37  1  0.50821353  0.80182030  0.48332665  1
  H+  H38  1  0.99028145  0.53193919  0.97406240  1
  H+  H39  1  0.56150219  0.45243557  1.08441987  1
  H+  H40  1  0.81912142  0.95767436  0.23516912  1
  H+  H41  1  0.98217906  0.84152204  0.76225981  1
  H+  H42  1  0.51465525  0.13840515  -0.01491868  1
  H+  H43  1  0.47752353  0.51676838  0.21926188  1
  H+  H44  1  0.18350879  0.48686973  0.24985112  1
  H+  H45  1  0.83946922  0.69376242  0.98318006  1
  H+  H46  1  0.53309146  0.14313862  0.25076394  1
  H+  H47  1  0.67541927  0.48139700  0.69890838  1
  H+  H48  1  0.43105538  0.56407459  0.09476920  1
  H+  H49  1  0.86245798  0.46418433  0.75333108  1
  H+  H50  1  0.97476554  0.61163901  0.69776843  1
  H+  H51  1  0.95758891  0.14217692  0.25747125  1
  H+  H52  1  0.85817415  0.48109312  0.25790367  1
  H+  H53  1  0.51273081  0.82310461  0.76758259  1
  H+  H54  1  0.03487330  0.85450865  0.31024146  1
  H+  H55  1  0.69368880  0.52987170  0.73247375  1
  H+  H56  1  0.47859314  0.84306391  1.01583245  1
  H+  H57  1  0.19398822  0.82285783  0.76089230  1
  H+  H58  1  0.15863101  0.64448338  0.50143596  1
  H+  H59  1  0.03654456  0.51749012  0.50692621  1
  H+  H60  1  0.21043094  0.82805413  0.28063726  1
  H+  H61  1  0.81907262  0.96233566  0.74694780  1
  H+  H62  1  0.69978748  0.84793795  0.00913353  1
  H+  H63  1  0.17803304  0.49830472  -0.00864705  1
  H+  H64  1  0.83399282  0.33417910  0.76259686  1
  H+  H65  1  0.84510311  0.66466018  0.50530093  1
  H+  H66  1  0.89878251  0.66534169  0.73501315  1
  H+  H67  1  0.19189445  0.38442758  0.98359543  1
  H+  H68  1  0.50834565  0.01777160  0.99175752  1
  H+  H69  1  0.35727826  0.51403199  0.23784508  1
  H+  H70  1  0.52758434  0.81788320  0.25409278  1
  H+  H71  1  0.29186146  0.47912954  0.47829276  1
  H+  H72  1  0.53638232  0.37459858  0.21516449  1
  H+  H73  1  0.70131084  0.84494604  0.75721106  1
  H+  H74  1  0.86346977  0.03314689  0.98872099  1
  H+  H75  1  0.48152213  -0.03984520  0.74045803  1
  H+  H76  1  0.13746320  0.31060785  0.23607015  1
  H+  H77  1  0.12445144  0.18722507  0.24169981  1
  H+  H78  1  0.83215540  0.63992522  0.24459054  1
  H+  H79  1  0.48486943  0.29778273  0.00704337  1
  H+  H80  1  0.35710909  0.52726758  0.00126785  1
  H+  H81  1  0.14689814  0.18125934  0.76661704  1
  H+  H82  1  0.84339630  0.55172969  -0.01191537  1
  H+  H83  1  0.21947854  0.75917729  0.90249412  1
  H+  H84  1  0.78068594  0.21022207  0.16938640  1
  H+  H85  1  0.25264525  0.14777859  0.26733586  1
  H+  H86  1  0.16205210  0.03358160  0.81527145  1
  H+  H87  1  0.82285889  0.17125254  1.02406644  1
  H+  H88  1  0.83683331  0.13160039  0.26766636  1
  H+  H89  1  0.51724364  0.70315079  0.99667301  1
  H+  H90  1  0.37758451  0.84895011  0.25531828  1
  H+  H91  1  0.70161901  0.83822590  0.23212164  1
  H+  H92  1  0.53795308  0.48430554  0.49153752  1
  H+  H93  1  0.81137417  0.29696089  0.50581101  1
  H+  H94  1  0.51172391  0.70512672  0.77223757  1
  H+  H95  1  0.19516864  0.05329913  0.98048570  1
  H+  H96  1  0.17085425  0.18086162  0.50521341  1
  H+  H97  1  0.87592618  0.77628851  0.35893239  1
  H+  H98  1  0.56609598  0.44036484  0.78810347  1
  H+  H99  1  0.68921282  0.16078513  0.73539307  1
  H+  H100  1  0.25146842  0.49632756  0.75070470  1
  H+  H101  1  0.45293364  0.15757818  0.51722039  1
  H+  H102  1  0.30089129  0.16034451  0.51034279  1
  H+  H103  1  0.84017039  0.12488792  0.49017505  1
  H+  H104  1  0.64937138  0.49808397  0.21642475  1
  H+  H105  1  0.16138699  0.19956646  1.00640657  1
  H+  H106  1  0.32966587  0.14331453  0.75887785  1
  H+  H107  1  0.85247790  0.81291239  0.26056248  1
  H+  H108  1  0.13576046  0.29531207  0.76000301  1
  H+  H109  1  0.80813750  0.57652775  0.14844989  1
  H+  H110  1  0.40716337  0.17810572  0.61339463  1
  H+  H111  1  0.12249326  0.87825923  0.63229237  1
  H+  H112  1  0.55327960  0.76560087  0.39618653  1
  H+  H113  1  0.70402032  0.16682696  0.02752318  1
  H+  H114  1  0.80998073  0.16383882  0.73321280  1
  H+  H115  1  0.03851424  0.45629632  0.04641806  1
  H+  H116  1  0.42656749  0.54267120  0.57750474  1
  H+  H117  1  0.12192345  0.55414098  0.14322355  1
  H+  H118  1  0.23567409  0.13869136  0.89666484  1
  H+  H119  1  0.55762388  0.78630145  0.91004139  1
  H+  H120  1  0.21642440  0.44395513  0.34257545  1
  H+  H121  1  0.54333693  0.10685312  0.40471289  1
  H+  H122  1  0.51154488  0.49786233  1.01170791  1
  H+  H123  1  0.10231217  0.57304297  0.63132690  1
  H+  H124  1  0.48161094  0.40872047  0.86898247  1
  H+  H125  1  0.89486902  0.44706864  0.40243822  1
  H+  H126  1  0.76967169  0.21365588  0.59159856  1
  H+  H127  1  0.10837297  0.82225093  0.12359739  1
  H+  H128  1  0.84063008  0.59326722  0.59380421  1
  H+  H129  1  0.88309472  0.10573056  0.84324334  1
  H+  H130  1  0.88871584  0.78919730  0.88552925  1
  H+  H131  1  0.44512360  0.88385685  0.15840965  1
  H+  H132  1  0.89744838  0.46905821  0.89225074  1
  H+  H133  1  0.46308694  0.21476132  0.12793697  1
  H+  H134  1  0.11781036  0.86235601  0.16242813  1
  H+  H135  1  0.55098763  0.09407334  0.84902166  1
  H+  H136  1  0.03702910  0.83096267  0.51002831  1
  H+  H137  1  0.66099296  0.50109673  0.50479893  1
  H+  H138  1  0.88223068  0.08973675  0.40191692  1
  H+  H139  1  0.20512503  0.45768568  0.85097855  1
  H+  H140  1  0.11089420  0.23557279  0.09151025  1
  H+  H141  1  0.44849403  0.88209116  0.59623361  1
  H+  H142  1  0.70211833  0.17286820  0.25934316  1
  H+  H143  1  0.21724779  0.13584140  0.41500092  1
  O2-  O144  1  0.09205286  0.23004742  0.21095262  1
  O2-  O145  1  0.09953659  0.21379458  0.74292993  1
  O2-  O146  1  0.12345788  0.54922267  0.21141009  1
  O2-  O147  1  0.08735392  0.58743969  0.69802519  1
  O2-  O148  1  0.11780750  0.90611857  0.32456296  1
  O2-  O149  1  0.12465435  0.89048778  0.70148823  1
  O2-  O150  1  0.47923233  0.22326547  0.19674052  1
  O2-  O151  1  0.41174751  0.17826408  0.73021658  1
  O2-  O152  1  0.43596072  0.55923537  0.20981315  1
  O2-  O153  1  0.47266185  0.57732227  0.70594744  1
  O2-  O154  1  0.45747618  0.88782834  0.22548610  1
  O2-  O155  1  0.44434706  0.87907285  0.71795238  1
  O2-  O156  1  0.78369161  0.21501823  0.23803195  1
  O2-  O157  1  0.76856253  0.20378754  0.71084240  1
  O2-  O158  1  0.79469304  0.56261130  0.21463197  1
  O2-  O159  1  0.89607855  0.60170375  0.70013237  1
  O2-  O160  1  0.78309394  0.87842820  0.20886933  1
  O2-  O161  1  0.78057309  0.87807218  0.73436154  1
  O2-  O162  1  0.18221146  0.11597269  0.30195693  1
  O2-  O163  1  0.21742234  0.11315222  0.80160266  1
  O2-  O164  1  0.22154269  0.44235101  0.27442199  1
  O2-  O165  1  0.18319221  0.44434639  0.78465413  1
  O2-  O166  1  0.25808045  0.79573280  0.29823011  1
  O2-  O167  1  0.22782856  0.77690712  0.78413138  1
  O2-  O168  1  0.56188270  0.10090324  0.28693444  1
  O2-  O169  1  0.54871829  0.09374847  0.78070621  1
  O2-  O170  1  0.56583544  0.45615437  0.20041598  1
  O2-  O171  1  0.48477898  0.40822003  0.80245649  1
  O2-  O172  1  0.56854112  0.77611286  0.27275874  1
  O2-  O173  1  0.55233919  0.78388422  0.79653273  1
  O2-  O174  1  0.87964283  0.09023503  0.28289113  1
  O2-  O175  1  0.88299322  0.10197150  0.77560949  1
  O2-  O176  1  0.89969930  0.44418456  0.28354983  1
  O2-  O177  1  0.87942030  0.41261077  0.78909812  1
  O2-  O178  1  0.88854404  0.77263225  0.29122658  1
  O2-  O179  1  0.90376764  0.79523776  0.78764584  1
  O2-  O180  1  0.21753139  0.13618469  0.48282144  1
  O2-  O181  1  0.23772918  0.13763370  0.97038228  1
  O2-  O182  1  0.20950281  0.44051387  0.45860441  1
  O2-  O183  1  0.23010068  0.46566308  0.96372462  1
  O2-  O184  1  0.21161597  0.75478152  0.46888414  1
  O2-  O185  1  0.21663580  0.76267806  0.97047574  1
  O2-  O186  1  0.54012824  0.10777966  0.47249378  1
  O2-  O187  1  0.55482486  0.09690972  0.96653336  1
  O2-  O188  1  0.58217209  0.44484143  0.48647076  1
  O2-  O189  1  0.55690308  0.45654519  1.01595076  1
  O2-  O190  1  0.54194213  0.75479657  0.46288874  1
  O2-  O191  1  0.56220432  0.78606474  0.97844304  1
  O2-  O192  1  0.88611365  0.09021022  0.46985592  1
  O2-  O193  1  0.89611048  0.11217312  0.96568173  1
  O2-  O194  1  0.89193881  0.44472872  0.47037060  1
  O2-  O195  1  0.91594283  0.51912411  0.94731875  1
  O2-  O196  1  0.90036522  0.79955770  0.46950561  1
  O2-  O197  1  0.87935169  0.78247619  0.95770297  1
  O2-  O198  1  0.11594489  0.23708537  0.02365251  1
  O2-  O199  1  0.10749157  0.22686324  0.52375236  1
  O2-  O200  1  0.10017067  0.53193289  0.02883574  1
  O2-  O201  1  0.11661455  0.55770050  0.53040826  1
  O2-  O202  1  0.12572351  0.90604721  -0.04025476  1
  O2-  O203  1  0.12007605  0.86595733  0.52272699  1
  O2-  O204  1  0.44525088  0.21529187  0.02198885  1
  O2-  O205  1  0.40504283  0.18608473  0.54600077  1
  O2-  O206  1  0.43870714  0.56528393  0.02654568  1
  O2-  O207  1  0.42983849  0.54127563  0.51084485  1
  O2-  O208  1  0.43557429  0.88089144  0.03781796  1
  O2-  O209  1  0.44774661  0.88096015  0.52857866  1
  O2-  O210  1  0.78042390  0.20385208  0.05584598  1
  O2-  O211  1  0.76781873  0.21455853  0.52360508  1
  O2-  O212  1  0.79623968  0.58803823  0.01922989  1
  O2-  O213  1  0.81557318  0.58467756  0.52897578  1
  O2-  O214  1  0.78274586  0.88277414  0.02763301  1
  O2-  O215  1  0.84079287  0.84730586  0.52011264  1
