# generated using pymatgen
data_H2O
_symmetry_space_group_name_H-M   'P 1'
_cell_length_a   13.52692060
_cell_length_b   13.52774512
_cell_length_c   14.70626828
_cell_angle_alpha   89.97021438
_cell_angle_beta   90.03132352
_cell_angle_gamma   120.03502972
_symmetry_Int_Tables_number   1
_chemical_formula_structural   H2O
_chemical_formula_sum   'H144 O72'
_cell_volume   2329.72135017
_cell_formula_units_Z   72
loop_
 _symmetry_equiv_pos_site_id
 _symmetry_equiv_pos_as_xyz
  1  'x, y, z'
loop_
 _atom_type_symbol
 _atom_type_oxidation_number
  H+  1.0
  O2-  -2.0
loop_
 _atom_site_type_symbol
 _atom_site_label
 _atom_site_symmetry_multiplicity
 _atom_site_fract_x
 _atom_site_fract_y
 _atom_site_fract_z
 _atom_site_occupancy
  H+  H0  1  0.51759874  0.71019121  0.50012908  1
  H+  H1  1  0.51534891  0.35118607  0.49992485  1
  H+  H2  1  0.36087801  0.19027978  0.73979906  1
  H+  H3  1  0.94918592  0.49161160  0.48816135  1
  H+  H4  1  0.25594767  0.76443469  0.27773250  1
  H+  H5  1  0.70043023  0.84823306  0.01775165  1
  H+  H6  1  0.83083716  -0.04258773  0.73221725  1
  H+  H7  1  0.14817479  0.65246807  0.73503897  1
  H+  H8  1  0.52224214  0.69396532  0.24765770  1
  H+  H9  1  0.37301493  0.86351152  0.74873359  1
  H+  H10  1  0.18100153  0.47378684  0.99040802  1
  H+  H11  1  0.88589172  0.11148907  0.40124702  1
  H+  H12  1  0.84077064  0.03271725  0.49036846  1
  H+  H13  1  0.50614263  0.16305261  0.50140573  1
  H+  H14  1  0.34445076  0.81262043  0.99199442  1
  H+  H15  1  0.81147847  0.62772717  0.25120178  1
  H+  H16  1  0.03666429  0.85049164  0.74722851  1
  H+  H17  1  0.53556866  0.42691125  0.41133457  1
  H+  H18  1  0.17658544  0.35457136  0.25863766  1
  H+  H19  1  0.09588847  0.90905533  0.10231057  1
  H+  H20  1  0.17544385  0.98068681  0.52117857  1
  H+  H21  1  -0.04593407  0.82271089  -0.01152236  1
  H+  H22  1  0.16869330  0.68267533  0.50198412  1
  H+  H23  1  0.50986864  0.14291924  0.25765892  1
  H+  H24  1  0.15023274  0.30644045  0.01828124  1
  H+  H25  1  0.51305418  0.82621566  0.50600569  1
  H+  H26  1  0.49803292  0.14268314  -0.01641115  1
  H+  H27  1  0.47916807  0.19026975  0.74475064  1
  H+  H28  1  0.37589538  0.51279577  0.50510834  1
  H+  H29  1  0.35392417  0.16270923  0.22246873  1
  H+  H30  1  0.33812185  0.16123912  0.48638455  1
  H+  H31  1  0.83837961  0.48015742  0.25238598  1
  H+  H32  1  1.02388244  0.53835505  0.73961277  1
  H+  H33  1  0.47598880  0.45111393  0.27003721  1
  H+  H34  1  0.49650704  0.97912141  -0.00195461  1
  H+  H35  1  0.12673856  0.87407337  0.00738163  1
  H+  H36  1  0.19063149  0.83074660  0.76872561  1
  H+  H37  1  0.51774922  0.04173291  0.75576118  1
  H+  H38  1  0.53421470  0.82323469  0.99821686  1
  H+  H39  1  0.47597187  0.33292743  0.26772316  1
  H+  H40  1  0.63122090  0.16509220  0.75109541  1
  H+  H41  1  0.85111041  1.02126992  -0.00171706  1
  H+  H42  1  0.80859616  0.52304445  0.73651835  1
  H+  H43  1  0.84699788  0.02548313  0.26250830  1
  H+  H44  1  0.80799343  0.29174792  0.24500184  1
  H+  H45  1  0.84238684  0.35974935  0.98592347  1
  H+  H46  1  0.09077869  0.55384433  0.61312789  1
  H+  H47  1  0.50957880  0.37157948  0.75976110  1
  H+  H48  1  0.82365454  0.09896651  0.78285329  1
  H+  H49  1  0.47608328  0.52126130  0.74650068  1
  H+  H50  1  0.80045973  0.19081896  0.49820705  1
  H+  H51  1  0.17381540  0.03178671  0.75732177  1
  H+  H52  1  0.11239271  0.60638707  0.21591429  1
  H+  H53  1  0.36465155  0.19703260  0.99698984  1
  H+  H54  1  0.69998330  0.84192022  0.24114086  1
  H+  H55  1  0.85033703  0.69682747  0.75412423  1
  H+  H56  1  0.54412177  0.10925988  0.41346727  1
  H+  H57  1  0.22296326  0.42762951  0.90737074  1
  H+  H58  1  0.78172977  0.22207282  0.10010331  1
  H+  H59  1  0.22828461  0.80439822  1.01176982  1
  H+  H60  1  0.17148464  0.47165304  0.25481488  1
  H+  H61  1  0.96179073  0.82029181  0.27270084  1
  H+  H62  1  0.67650074  0.18485353  0.50063099  1
  H+  H63  1  0.50259161  -0.01163325  0.24170529  1
  H+  H64  1  0.13827468  0.16503448  0.72977023  1
  H+  H65  1  0.18104870  0.35187203  0.76795982  1
  H+  H66  1  0.20224766  0.48757916  0.48247718  1
  H+  H67  1  0.50637365  0.70266780  0.77505596  1
  H+  H68  1  0.84203540  0.38532899  0.74773899  1
  H+  H69  1  0.48761552  0.31014353  0.00178827  1
  H+  H70  1  0.87680340  0.44890098  0.84474138  1
  H+  H71  1  1.01614694  0.16553759  0.73658156  1
  H+  H72  1  0.63178181  0.14862807  0.26649980  1
  H+  H73  1  0.14479709  0.86849233  0.23633155  1
  H+  H74  1  0.83018782  0.22918263  0.70801896  1
  H+  H75  1  0.48858377  0.63737262  0.01133183  1
  H+  H76  1  0.15671018  0.61998328  -0.00003986  1
  H+  H77  1  0.10632940  0.21804030  0.31765310  1
  H+  H78  1  0.81569524  0.84470494  0.01155823  1
  H+  H79  1  0.29496342  0.47306815  0.76947676  1
  H+  H80  1  0.36071858  0.51533515  0.23643409  1
  H+  H81  1  0.00046954  0.48789315  0.22801208  1
  H+  H82  1  0.80933253  0.17343581  0.24756256  1
  H+  H83  1  0.78684474  0.88618574  0.15678799  1
  H+  H84  1  0.62704431  0.49134807  0.75650079  1
  H+  H85  1  1.00779454  0.17562430  0.51186533  1
  H+  H86  1  0.13484342  0.29628608  0.51434708  1
  H+  H87  1  0.51970609  0.49028215  -0.01017685  1
  H+  H88  1  0.18326276  0.17126700  -0.01468014  1
  H+  H89  1  0.81251777  0.82090121  0.49076834  1
  H+  H90  1  0.51722742  0.82495813  0.77822568  1
  H+  H91  1  0.88297553  0.44580418  0.34082934  1
  H+  H92  1  0.83307218  0.84296211  0.72256958  1
  H+  H93  1  0.84239503  0.81691670  0.26620872  1
  H+  H94  1  0.67919498  0.51276950  0.50589781  1
  H+  H95  1  0.15151388  0.85386399  0.53018662  1
  H+  H96  1  -0.03569129  0.14739898  0.26114559  1
  H+  H97  1  0.84399834  0.69563949  0.98791522  1
  H+  H98  1  0.81106869  0.68772124  0.49214945  1
  H+  H99  1  0.35888719  0.85433709  0.52362087  1
  H+  H100  1  0.95904647  0.47712647  0.97662906  1
  H+  H101  1  -0.03070535  0.14309704  -0.00203403  1
  H+  H102  1  0.14254416  0.98487626  0.23680417  1
  H+  H103  1  0.23543931  0.78334979  0.85080674  1
  H+  H104  1  0.80618378  0.53009381  0.50134583  1
  H+  H105  1  0.17838287  0.05323257  0.98380218  1
  H+  H106  1  0.06537553  0.45330778  0.54197861  1
  H+  H107  1  0.81512646  0.51794824  0.00689825  1
  H+  H108  1  0.36859930  0.51697460  0.00878067  1
  H+  H109  1  0.56441367  0.77744605  0.90948313  1
  H+  H110  1  0.09479851  0.53445231  0.08310427  1
  H+  H111  1  0.21403771  0.15389402  0.48398561  1
  H+  H112  1  0.21099244  0.12242878  0.83983678  1
  H+  H113  1  0.31989248  0.88699429  0.31634186  1
  H+  H114  1  0.88630217  0.77520246  0.84376543  1
  H+  H115  1  0.89606172  0.09551955  0.86555837  1
  H+  H116  1  0.86464440  0.77567237  0.39992407  1
  H+  H117  1  0.45043674  0.89941984  0.66004471  1
  H+  H118  1  0.08917875  0.21045540  0.62152981  1
  H+  H119  1  0.52765021  0.81448832  0.24860075  1
  H+  H120  1  0.48448183  0.90942868  0.09170020  1
  H+  H121  1  0.68512092  0.85415450  0.50936700  1
  H+  H122  1  0.49172978  0.51243880  0.51302578  1
  H+  H123  1  0.82281410  0.18343297  1.01293682  1
  H+  H124  1  0.43743526  0.55958877  0.65803726  1
  H+  H125  1  0.69935156  0.52167421  0.00630442  1
  H+  H126  1  0.83074776  0.37468834  0.47948139  1
  H+  H127  1  0.11159674  0.22393448  0.10554984  1
  H+  H128  1  0.47533097  0.97734781  0.51902569  1
  H+  H129  1  0.20526954  0.77144955  0.42095052  1
  H+  H130  1  0.23204295  0.11620761  0.33436619  1
  H+  H131  1  0.44655212  0.22207425  0.59126621  1
  H+  H132  1  0.17758624  0.15783920  0.25334612  1
  H+  H133  1  0.44101016  0.20932423  0.13803545  1
  H+  H134  1  0.77351279  0.55749754  0.15921109  1
  H+  H135  1  0.76597896  0.24589791  0.62546888  1
  H+  H136  1  0.54212906  0.10848033  0.89462376  1
  H+  H137  1  0.55750597  0.45291173  0.89880534  1
  H+  H138  1  0.38859047  0.88844823  0.19504465  1
  H+  H139  1  0.12265938  0.90028060  0.66128948  1
  H+  H140  1  0.78105616  0.89250635  0.59201380  1
  H+  H141  1  0.76712925  0.56153137  0.64691831  1
  H+  H142  1  0.21550542  0.43012909  0.39283000  1
  H+  H143  1  0.44241262  0.54954049  0.14927611  1
  O2-  O144  1  0.10942867  0.22156110  0.25132857  1
  O2-  O145  1  0.09286567  0.20342167  0.70552780  1
  O2-  O146  1  0.08161012  0.52617517  0.20122111  1
  O2-  O147  1  0.09976810  0.57466039  0.70912366  1
  O2-  O148  1  0.09907820  0.90151424  0.21415254  1
  O2-  O149  1  0.11972389  0.89712460  0.73070441  1
  O2-  O150  1  0.43606956  0.19687478  0.20532043  1
  O2-  O151  1  0.44235174  0.23394859  0.72226030  1
  O2-  O152  1  0.44194011  0.55157962  0.21723781  1
  O2-  O153  1  0.43185609  0.55816866  0.72545222  1
  O2-  O154  1  0.46563695  0.90788073  0.21245632  1
  O2-  O155  1  0.45428189  0.90440410  0.72804465  1
  O2-  O156  1  0.76559679  0.21033305  0.22516719  1
  O2-  O157  1  0.77314315  0.25089930  0.69474273  1
  O2-  O158  1  0.77595414  0.54958089  0.22594564  1
  O2-  O159  1  0.76709232  0.56277972  0.71477803  1
  O2-  O160  1  0.78513593  0.88572242  0.22483251  1
  O2-  O161  1  0.80002671  0.88773928  0.69546991  1
  O2-  O162  1  0.21859587  0.11118001  0.26735849  1
  O2-  O163  1  0.20751705  0.11614730  0.77177712  1
  O2-  O164  1  0.21698161  0.43934812  0.28008465  1
  O2-  O165  1  0.21900606  0.42561688  0.79912036  1
  O2-  O166  1  0.24324274  0.82426671  0.30198158  1
  O2-  O167  1  0.23183108  0.78822863  0.78394659  1
  O2-  O168  1  0.54964372  0.10501397  0.28695595  1
  O2-  O169  1  0.55361215  0.12343114  0.77711628  1
  O2-  O170  1  0.48086913  0.39337324  0.30807358  1
  O2-  O171  1  0.54845963  0.45234185  0.78283241  1
  O2-  O172  1  0.56991612  0.77584786  0.26533534  1
  O2-  O173  1  0.54925198  0.77908110  0.80357686  1
  O2-  O174  1  0.88320710  0.10617900  0.28537668  1
  O2-  O175  1  0.89282491  0.09600232  0.79525733  1
  O2-  O176  1  0.87963439  0.43791936  0.27320969  1
  O2-  O177  1  0.88243312  0.46179314  0.77693037  1
  O2-  O178  1  0.88199560  0.77730928  0.29535644  1
  O2-  O179  1  0.89667849  0.77761310  0.77641589  1
  O2-  O180  1  0.25254877  0.11535347  0.45902664  1
  O2-  O181  1  0.22063877  0.13074577  0.95677965  1
  O2-  O182  1  0.21644094  0.42688659  0.46217063  1
  O2-  O183  1  0.22470961  0.43413608  0.97644491  1
  O2-  O184  1  0.20888073  0.76476382  0.48734080  1
  O2-  O185  1  0.25976838  0.76811133  0.97380248  1
  O2-  O186  1  0.54843744  0.11362046  0.48069257  1
  O2-  O187  1  0.52771628  0.09335448  0.96075937  1
  O2-  O188  1  0.55305809  0.43587489  0.47852633  1
  O2-  O189  1  0.56105064  0.45096323  0.96692749  1
  O2-  O190  1  0.55899719  0.79224477  0.48431366  1
  O2-  O191  1  0.56885467  0.77641682  0.97892413  1
  O2-  O192  1  0.88526084  0.11492825  0.46990633  1
  O2-  O193  1  0.89141875  0.10028160  0.97052523  1
  O2-  O194  1  0.87301578  0.45601018  0.45827104  1
  O2-  O195  1  0.87715838  0.43935399  0.95910195  1
  O2-  O196  1  0.85046767  0.77141223  0.46898037  1
  O2-  O197  1  0.87712715  0.77507017  0.96177563  1
  O2-  O198  1  0.10804250  0.22344283  0.03888803  1
  O2-  O199  1  0.08884559  0.21707172  0.54060883  1
  O2-  O200  1  0.10311081  0.53904566  0.01559343  1
  O2-  O201  1  0.08268816  0.53245269  0.54225790  1
  O2-  O202  1  0.09197582  0.91537877  0.03365997  1
  O2-  O203  1  0.12677269  0.90671006  0.55270169  1
  O2-  O204  1  0.44310474  0.22834426  0.02187285  1
  O2-  O205  1  0.45264605  0.22237840  0.52452366  1
  O2-  O206  1  0.44879406  0.55550067  0.03183160  1
  O2-  O207  1  0.45224373  0.55557020  0.53258247  1
  O2-  O208  1  0.47099540  0.89868327  0.02527126  1
  O2-  O209  1  0.43950052  0.89699306  0.54359210  1
  O2-  O210  1  0.79394323  0.23361344  0.03370114  1
  O2-  O211  1  0.76266761  0.23394748  0.51740675  1
  O2-  O212  1  0.77963283  0.56225081  0.03035147  1
  O2-  O213  1  0.76272467  0.56547892  0.52669936  1
  O2-  O214  1  0.78252915  0.88924100  0.03936618  1
  O2-  O215  1  0.77205340  0.89324711  0.52278191  1
