# generated using pymatgen
data_H2O
_symmetry_space_group_name_H-M   'P 1'
_cell_length_a   13.52975783
_cell_length_b   13.51094667
_cell_length_c   14.68893645
_cell_angle_alpha   90.05314649
_cell_angle_beta   90.02993541
_cell_angle_gamma   120.03150527
_symmetry_Int_Tables_number   1
_chemical_formula_structural   H2O
_chemical_formula_sum   'H144 O72'
_cell_volume   2324.65417910
_cell_formula_units_Z   72
loop_
 _symmetry_equiv_pos_site_id
 _symmetry_equiv_pos_as_xyz
  1  'x, y, z'
loop_
 _atom_type_symbol
 _atom_type_oxidation_number
  H+  1.0
  O2-  -2.0
loop_
 _atom_site_type_symbol
 _atom_site_label
 _atom_site_symmetry_multiplicity
 _atom_site_fract_x
 _atom_site_fract_y
 _atom_site_fract_z
 _atom_site_occupancy
  H+  H0  1  0.17827432  0.80079851  0.25255566  1
  H+  H1  1  0.84015195  0.01866639  0.48065970  1
  H+  H2  1  0.17962556  1.01593982  0.24986393  1
  H+  H3  1  0.18299147  0.68179413  0.25025564  1
  H+  H4  1  0.29009620  0.80867127  -0.00640632  1
  H+  H5  1  0.69223777  0.53234987  0.01301150  1
  H+  H6  1  0.44990712  0.19034939  0.69775111  1
  H+  H7  1  -0.01128141  0.46214003  -0.00451074  1
  H+  H8  1  0.50609600  0.15477430  0.23965114  1
  H+  H9  1  0.96649785  0.82362662  0.99138301  1
  H+  H10  1  0.42080703  0.53365570  0.08680241  1
  H+  H11  1  0.81045743  0.00169704  0.25377140  1
  H+  H12  1  0.51183655  0.69528290  1.02374386  1
  H+  H13  1  0.71125650  0.16669913  0.74770573  1
  H+  H14  1  0.82574914  0.51491565  0.77334677  1
  H+  H15  1  0.53343903  0.81850576  0.69309257  1
  H+  H16  1  0.13662250  0.19373771  0.48519453  1
  H+  H17  1  0.11340222  0.82510019  0.73280752  1
  H+  H18  1  0.83716478  0.64720887  0.50560611  1
  H+  H19  1  0.82727602  0.96812479  0.73166475  1
  H+  H20  1  0.52370110  0.42697520  0.47364699  1
  H+  H21  1  0.70666992  0.85426419  0.49556387  1
  H+  H22  1  0.14907731  -0.04412965  1.01084003  1
  H+  H23  1  0.51479022  0.03912913  0.48146623  1
  H+  H24  1  0.39906966  0.25989811  0.01562846  1
  H+  H25  1  0.76923998  0.20539235  0.14686582  1
  H+  H26  1  0.87162208  0.34655944  0.48069684  1
  H+  H27  1  0.53794854  1.00975359  0.73040094  1
  H+  H28  1  0.68889420  0.84004269  0.23316561  1
  H+  H29  1  0.40301135  0.36632961  0.30514088  1
  H+  H30  1  0.85288531  0.81585461  0.25549190  1
  H+  H31  1  0.53203908  0.36872615  0.97998880  1
  H+  H32  1  0.88827353  0.79108260  0.90101930  1
  H+  H33  1  0.64152898  0.80511856  0.70899440  1
  H+  H34  1  0.80620538  0.65190050  0.01759618  1
  H+  H35  1  0.70171910  0.18283660  0.50996235  1
  H+  H36  1  0.34666520  0.49851654  -0.00462564  1
  H+  H37  1  0.13866563  0.83193157  0.01341772  1
  H+  H38  1  0.37122697  0.51201261  0.73104508  1
  H+  H39  1  0.47293847  -0.03537349  1.01031953  1
  H+  H40  1  0.35869230  0.51180174  0.23483185  1
  H+  H41  1  0.19688751  0.35531172  0.26275271  1
  H+  H42  1  0.80814122  0.13340121  0.25464148  1
  H+  H43  1  0.52003406  0.14965645  -0.02127818  1
  H+  H44  1  0.36289070  0.84727821  0.24027543  1
  H+  H45  1  0.17396683  0.05671748  0.48525559  1
  H+  H46  1  0.48748662  0.62376168  0.69764128  1
  H+  H47  1  0.85294172  0.35268080  0.76440796  1
  H+  H48  1  0.28177207  0.13637186  0.75185743  1
  H+  H49  1  0.85115881  0.69422003  0.25881234  1
  H+  H50  1  0.86000605  0.14600539  0.75937071  1
  H+  H51  1  0.51139025  0.69276585  0.24132935  1
  H+  H52  1  0.30337053  0.12072255  0.99035368  1
  H+  H53  1  0.36097087  0.16249514  0.21398675  1
  H+  H54  1  0.53375704  0.14580082  0.53689703  1
  H+  H55  1  0.84679186  0.69621049  0.77517834  1
  H+  H56  1  0.16634163  0.61433884  0.51344291  1
  H+  H57  1  0.81016780  0.16663319  0.50695326  1
  H+  H58  1  0.53989357  0.83217365  0.46955502  1
  H+  H59  1  0.51544218  0.81356006  0.24672156  1
  H+  H60  1  0.81965276  0.85422911  1.01197858  1
  H+  H61  1  0.51059002  0.81253039  1.03196273  1
  H+  H62  1  0.68494262  0.17797139  0.23365469  1
  H+  H63  1  0.19369346  0.37212730  0.74889366  1
  H+  H64  1  0.02053643  0.49353663  0.74472772  1
  H+  H65  1  0.15651826  0.17811407  0.22962564  1
  H+  H66  1  -0.01731060  0.84249994  0.47915469  1
  H+  H67  1  0.55472088  0.14390927  0.77143095  1
  H+  H68  1  0.85215129  0.36584039  0.24762479  1
  H+  H69  1  0.12048657  0.38732063  0.92835293  1
  H+  H70  1  0.02990495  0.83874554  0.23981008  1
  H+  H71  1  0.14148955  0.66407606  0.76046741  1
  H+  H72  1  -0.04673762  0.14593497  0.47024569  1
  H+  H73  1  0.43141142  0.89167906  0.10255846  1
  H+  H74  1  0.47210182  0.23760625  0.47615251  1
  H+  H75  1  0.00384418  0.84072972  0.73790411  1
  H+  H76  1  0.51780565  0.48020951  0.74557860  1
  H+  H77  1  0.25755608  0.52906684  0.52494064  1
  H+  H78  1  0.50519684  0.47230694  0.97788235  1
  H+  H79  1  0.85674721  0.02932962  0.99229877  1
  H+  H80  1  1.04099804  0.19065273  0.73287642  1
  H+  H81  1  0.21906422  0.10624986  0.33221530  1
  H+  H82  1  0.39361343  0.88492419  0.85249057  1
  H+  H83  1  0.16050662  0.61863640  1.01919891  1
  H+  H84  1  0.84272124  0.81434599  0.75525813  1
  H+  H85  1  0.28733601  0.17830785  0.47099053  1
  H+  H86  1  0.38104684  0.85291744  0.48878774  1
  H+  H87  1  0.17284204  0.76795422  0.46685926  1
  H+  H88  1  0.23107659  0.75341842  0.38006267  1
  H+  H89  1  0.72537156  0.53340713  0.49385289  1
  H+  H90  1  0.18116229  0.00556107  0.75852498  1
  H+  H91  1  0.03887693  0.50888478  0.24110552  1
  H+  H92  1  0.56366956  0.09639770  0.90027849  1
  H+  H93  1  0.16914141  0.50258771  0.01257626  1
  H+  H94  1  -0.02294317  0.14801160  -0.00977814  1
  H+  H95  1  -0.00218481  0.45307567  0.47923145  1
  H+  H96  1  0.39772255  0.83160488  0.84791940  1
  H+  H97  1  0.47841730  0.97075327  0.24222386  1
  H+  H98  1  0.18178103  0.90937652  0.52710070  1
  H+  H99  1  0.90244911  0.79234314  0.39001515  1
  H+  H100  1  0.12940806  0.30657745  0.49076143  1
  H+  H101  1  0.25007924  0.78690068  0.76484885  1
  H+  H102  1  0.69889937  0.85110496  0.02931871  1
  H+  H103  1  0.82597499  0.52717808  0.24256484  1
  H+  H104  1  0.70747249  0.51406277  0.76200833  1
  H+  H105  1  0.86692088  0.34713588  -0.00665504  1
  H+  H106  1  0.47598384  0.31754786  0.72036064  1
  H+  H107  1  0.82938626  0.85918563  0.49626967  1
  H+  H108  1  0.10686918  0.23484068  0.63973225  1
  H+  H109  1  0.10230084  0.90548551  0.60773924  1
  H+  H110  1  0.85299335  0.09020129  0.35095707  1
  H+  H111  1  0.41863699  0.88400957  0.70552390  1
  H+  H112  1  0.47131066  0.91100862  0.57232691  1
  H+  H113  1  0.23533450  0.44595281  0.84187592  1
  H+  H114  1  0.81794340  0.16468893  0.01035968  1
  H+  H115  1  0.22691462  0.08283795  0.90098382  1
  H+  H116  1  0.52219037  0.77551520  0.86969742  1
  H+  H117  1  0.12112858  0.22767271  0.14699695  1
  H+  H118  1  0.57498982  0.78299021  0.38578945  1
  H+  H119  1  0.12751216  0.54211145  0.15929010  1
  H+  H120  1  0.19942109  0.75746709  0.91010139  1
  H+  H121  1  0.54640707  0.13101818  0.33670279  1
  H+  H122  1  0.54731411  0.43386117  0.83703866  1
  H+  H123  1  0.42783550  0.25914961  0.57161269  1
  H+  H124  1  0.57995280  0.82849202  0.87103972  1
  H+  H125  1  0.14891910  0.50869422  0.74418793  1
  H+  H126  1  0.79447316  0.89598677  0.63776670  1
  H+  H127  1  0.56915933  0.46532103  0.37654799  1
  H+  H128  1  0.11988945  0.54137120  0.60588867  1
  H+  H129  1  0.90290697  0.42761381  0.85600435  1
  H+  H130  1  0.39107771  0.48558002  0.59803967  1
  H+  H131  1  0.16082972  0.29880250  -0.00114656  1
  H+  H132  1  0.69924547  0.16709488  1.00864454  1
  H+  H133  1  0.10735945  0.87550838  0.15003696  1
  H+  H134  1  0.44447884  0.21426752  0.11939249  1
  H+  H135  1  0.47107247  0.50860975  0.22180129  1
  H+  H136  1  0.90004050  0.10427150  0.84634329  1
  H+  H137  1  0.78016074  0.89253537  0.14986866  1
  H+  H138  1  0.19598886  0.47011581  0.28070386  1
  H+  H139  1  0.78617689  0.21386218  0.65551242  1
  H+  H140  1  0.15778467  0.17681828  1.00388055  1
  H+  H141  1  0.90394391  0.43550047  0.33811452  1
  H+  H142  1  0.77587493  0.56765223  0.16137616  1
  H+  H143  1  0.47036944  0.32698066  0.24098053  1
  O2-  O144  1  0.12309127  0.22672912  0.21458963  1
  O2-  O145  1  0.11836492  0.23856372  0.70618634  1
  O2-  O146  1  0.12270596  0.54849121  0.22706916  1
  O2-  O147  1  0.10211825  0.54213958  0.72065794  1
  O2-  O148  1  0.11157159  0.87532356  0.21840931  1
  O2-  O149  1  0.08471810  0.87572274  0.71063723  1
  O2-  O150  1  0.44218341  0.20821510  0.19450489  1
  O2-  O151  1  0.42446695  0.24420391  0.68341678  1
  O2-  O152  1  0.43552908  0.55436092  0.20210857  1
  O2-  O153  1  0.44475954  0.53711315  0.69759832  1
  O2-  O154  1  0.44368505  0.89116498  0.21820008  1
  O2-  O155  1  0.49457614  0.93052807  0.68041540  1
  O2-  O156  1  0.76666454  0.20794062  0.21578444  1
  O2-  O157  1  0.79225445  0.21511991  0.72316965  1
  O2-  O158  1  0.78678047  0.57071743  0.22896438  1
  O2-  O159  1  0.79041830  0.56379868  0.77093279  1
  O2-  O160  1  0.77329130  0.88899454  0.21879269  1
  O2-  O161  1  0.78923678  0.88888937  0.70569717  1
  O2-  O162  1  0.22423170  0.09943900  0.26515038  1
  O2-  O163  1  0.24353389  0.07046321  0.79262375  1
  O2-  O164  1  0.24232289  0.43346491  0.29115504  1
  O2-  O165  1  0.23612772  0.45308250  0.77276684  1
  O2-  O166  1  0.22368452  0.76452715  0.27278021  1
  O2-  O167  1  0.17096621  0.74564112  0.78454814  1
  O2-  O168  1  0.54754584  0.11721244  0.27138766  1
  O2-  O169  1  0.58356990  0.09287608  0.78584618  1
  O2-  O170  1  0.47703710  0.39533056  0.27578048  1
  O2-  O171  1  0.55077453  0.43279259  0.76877772  1
  O2-  O172  1  0.55621106  0.77282222  0.26590815  1
  O2-  O173  1  0.55703383  0.76098544  0.70327290  1
  O2-  O174  1  0.84301364  0.08539144  0.28061993  1
  O2-  O175  1  0.90025852  0.10380402  0.77835647  1
  O2-  O176  1  0.89695875  0.44491956  0.27073998  1
  O2-  O177  1  0.89647392  0.43310373  0.78741766  1
  O2-  O178  1  0.89633508  0.77998287  0.27835075  1
  O2-  O179  1  0.88740411  0.78256325  0.78564084  1
  O2-  O180  1  0.20635604  0.12873316  0.44958924  1
  O2-  O181  1  0.22249544  0.08698544  0.96941998  1
  O2-  O182  1  0.33514715  0.54481603  0.50460720  1
  O2-  O183  1  0.19850232  0.42063775  0.95108518  1
  O2-  O184  1  0.23313528  0.75227364  0.44987123  1
  O2-  O185  1  0.20698454  0.76073630  0.97725642  1
  O2-  O186  1  0.55169325  0.12595237  0.47780608  1
  O2-  O187  1  0.55710057  0.10330082  0.96813858  1
  O2-  O188  1  0.58687824  0.48966806  0.44067088  1
  O2-  O189  1  0.55627240  0.44512731  0.95257553  1
  O2-  O190  1  0.58408370  0.79490881  0.45260313  1
  O2-  O191  1  0.55834614  0.77670398  1.04087111  1
  O2-  O192  1  0.87088625  0.09883061  0.45233942  1
  O2-  O193  1  0.89648310  0.10894676  0.96677709  1
  O2-  O194  1  0.92798063  0.40995348  0.44251711  1
  O2-  O195  1  0.91332478  0.42299055  0.96459114  1
  O2-  O196  1  0.90278485  0.80084317  0.45831489  1
  O2-  O197  1  0.88637988  0.79194892  0.96926770  1
  O2-  O198  1  0.11846598  0.21765797  0.02532094  1
  O2-  O199  1  0.08956479  0.22672951  0.50976061  1
  O2-  O200  1  0.12922546  0.54049243  0.04445624  1
  O2-  O201  1  0.13681055  0.53731364  0.53985628  1
  O2-  O202  1  0.10167508  0.87578658  0.03534006  1
  O2-  O203  1  0.11980762  0.92415241  0.53970564  1
  O2-  O204  1  0.44590477  0.22486279  0.02617138  1
  O2-  O205  1  0.42133640  0.26117226  0.50334463  1
  O2-  O206  1  0.42568153  0.53423695  0.01848328  1
  O2-  O207  1  0.34402442  0.44963612  0.54062463  1
  O2-  O208  1  0.42710098  0.88494543  0.03453724  1
  O2-  O209  1  0.46248997  0.90553338  0.50336829  1
  O2-  O210  1  0.77724563  0.20350200  0.03614097  1
  O2-  O211  1  0.77883864  0.21230686  0.53597124  1
  O2-  O212  1  0.76442361  0.57595212  0.04712134  1
  O2-  O213  1  0.80060906  0.56671163  0.52431648  1
  O2-  O214  1  0.78397245  0.89775522  0.03909663  1
  O2-  O215  1  0.78804793  0.89810924  0.52113811  1
