# generated using pymatgen
data_H2O
_symmetry_space_group_name_H-M   'P 1'
_cell_length_a   13.52799350
_cell_length_b   13.53117306
_cell_length_c   14.72674366
_cell_angle_alpha   89.91249335
_cell_angle_beta   90.04546579
_cell_angle_gamma   119.96126210
_symmetry_Int_Tables_number   1
_chemical_formula_structural   H2O
_chemical_formula_sum   'H144 O72'
_cell_volume   2335.47423550
_cell_formula_units_Z   72
loop_
 _symmetry_equiv_pos_site_id
 _symmetry_equiv_pos_as_xyz
  1  'x, y, z'
loop_
 _atom_type_symbol
 _atom_type_oxidation_number
  H+  1.0
  O2-  -2.0
loop_
 _atom_site_type_symbol
 _atom_site_label
 _atom_site_symmetry_multiplicity
 _atom_site_fract_x
 _atom_site_fract_y
 _atom_site_fract_z
 _atom_site_occupancy
  H+  H0  1  0.15311137  0.52126842  0.75030960  1
  H+  H1  1  0.21729873  0.77914245  0.41137912  1
  H+  H2  1  0.48117781  0.82540131  0.74051314  1
  H+  H3  1  0.06321370  0.18218956  0.49201289  1
  H+  H4  1  0.31830970  0.16228033  0.25737573  1
  H+  H5  1  0.14392318  0.31760391  0.72038376  1
  H+  H6  1  0.19635035  0.49956658  0.93980348  1
  H+  H7  1  0.82091307  0.79650634  0.26103847  1
  H+  H8  1  0.71373841  0.17977020  0.25143386  1
  H+  H9  1  0.61130138  0.49353124  0.49552614  1
  H+  H10  1  0.29390206  0.80359210  0.26803253  1
  H+  H11  1  -0.02170171  0.84449746  0.50178799  1
  H+  H12  1  0.69156867  0.85988717  0.24595777  1
  H+  H13  1  0.79744556  0.62329937  0.23321123  1
  H+  H14  1  0.20861818  0.15699552  0.47703651  1
  H+  H15  1  0.83000617  0.48352908  0.99673532  1
  H+  H16  1  0.85348970  0.70866032  0.77981360  1
  H+  H17  1  0.13409465  0.86848975  0.04840623  1
  H+  H18  1  0.85841146  0.43991185  0.42300585  1
  H+  H19  1  0.68626429  0.51613626  0.00589210  1
  H+  H20  1  0.80106888  0.30175408  0.01547534  1
  H+  H21  1  0.80288876  -0.03134809  1.01381049  1
  H+  H22  1  0.85386698  0.16819178  0.77202403  1
  H+  H23  1  0.13859685  0.63436223  0.04650986  1
  H+  H24  1  0.31001372  0.48332488  0.74956157  1
  H+  H25  1  0.79992430  0.18246685  0.01253696  1
  H+  H26  1  0.49993328  0.80766141  0.49981080  1
  H+  H27  1  0.79433934  -0.01901810  0.73433895  1
  H+  H28  1  0.51769604  0.37338064  0.75350790  1
  H+  H29  1  0.18848715  0.37444373  0.48133044  1
  H+  H30  1  0.45608056  0.23009818  0.59260633  1
  H+  H31  1  0.86438317  0.15473511  0.26002154  1
  H+  H32  1  0.78717931  0.52322899  0.49917724  1
  H+  H33  1  0.15831927  0.14974445  -0.02558856  1
  H+  H34  1  0.28488285  0.48868220  0.24527835  1
  H+  H35  1  0.15135687  0.98116795  0.73296754  1
  H+  H36  1  0.49248402  0.20093754  0.73936577  1
  H+  H37  1  0.65182506  0.14051158  0.48911565  1
  H+  H38  1  0.13298793  0.63206280  0.50388888  1
  H+  H39  1  0.15543904  0.64090599  0.74854362  1
  H+  H40  1  0.50981717  0.70456930  0.98397572  1
  H+  H41  1  0.89115123  0.46393646  0.86146271  1
  H+  H42  1  0.80493710  0.85052569  0.01571573  1
  H+  H43  1  0.82678724  0.16432851  0.49768514  1
  H+  H44  1  0.58701111  0.09795030  0.76618969  1
  H+  H45  1  0.48845414  0.96582314  0.50871635  1
  H+  H46  1  0.15383415  0.29642626  0.23701438  1
  H+  H47  1  0.81466229  0.84726189  0.49406433  1
  H+  H48  1  0.47174952  0.51457037  -0.00553050  1
  H+  H49  1  0.63821222  0.49188457  0.76287872  1
  H+  H50  1  0.97049797  0.82521361  0.77495475  1
  H+  H51  1  0.62964100  0.82304462  0.75299386  1
  H+  H52  1  0.47195352  0.93830612  0.74282890  1
  H+  H53  1  0.32859406  0.17098618  0.97726554  1
  H+  H54  1  0.50709028  0.35328346  0.27157678  1
  H+  H55  1  0.50211839  0.15075658  0.98946452  1
  H+  H56  1  0.50291756  0.51973646  0.23124306  1
  H+  H57  1  -0.02117903  0.50998993  0.77594949  1
  H+  H58  1  0.38396862  0.18673290  0.49971850  1
  H+  H59  1  0.62507624  0.15669386  0.99962614  1
  H+  H60  1  0.53771033  0.15188674  0.49479947  1
  H+  H61  1  0.81906250  0.52666865  0.75787742  1
  H+  H62  1  0.95101436  0.15095977  0.99692275  1
  H+  H63  1  0.30384869  0.81648459  0.73736443  1
  H+  H64  1  0.47456153  0.85154568  0.00571117  1
  H+  H65  1  0.20829715  0.12132650  0.83197291  1
  H+  H66  1  0.29456753  0.81791718  0.49966568  1
  H+  H67  1  0.10742320  0.22146205  0.09667046  1
  H+  H68  1  0.49572001  0.16991681  0.26388785  1
  H+  H69  1  0.18071121  0.16021489  0.73779213  1
  H+  H70  1  0.13787170  0.30229585  1.00911679  1
  H+  H71  1  0.49191291  0.64064655  0.74453247  1
  H+  H72  1  0.85998615  0.33866791  0.75660210  1
  H+  H73  1  0.86813981  0.72109211  0.50731549  1
  H+  H74  1  0.17444745  0.68551243  0.28007053  1
  H+  H75  1  0.29062952  0.81861134  1.02143096  1
  H+  H76  1  0.95539813  0.14085073  0.77075824  1
  H+  H77  1  0.51880030  0.02989262  0.26818293  1
  H+  H78  1  0.88070698  0.03759200  0.48305992  1
  H+  H79  1  0.14003580  0.51753485  0.50079531  1
  H+  H80  1  0.75835073  0.89185650  0.42262136  1
  H+  H81  1  0.15301900  0.86400761  0.73119657  1
  H+  H82  1  0.83923156  0.70339177  1.00341450  1
  H+  H83  1  0.85987322  0.03425832  0.25885133  1
  H+  H84  1  0.37012335  0.19429606  0.73169372  1
  H+  H85  1  0.68883728  0.50005353  0.23182113  1
  H+  H86  1  0.98231607  0.47173620  0.46705524  1
  H+  H87  1  0.74015984  0.23275060  0.75139193  1
  H+  H88  1  0.30089289  0.48975009  -0.01764029  1
  H+  H89  1  0.48210136  0.85105562  0.24586510  1
  H+  H90  1  0.47091324  0.51151978  0.52058594  1
  H+  H91  1  0.50655320  0.36488172  0.49650924  1
  H+  H92  1  0.15399660  0.86056702  0.50921463  1
  H+  H93  1  0.51624383  0.70220287  0.26696626  1
  H+  H94  1  0.20098450  0.03431045  0.47789981  1
  H+  H95  1  0.03312572  0.25381356  0.66075807  1
  H+  H96  1  0.62856659  0.82298504  0.98999105  1
  H+  H97  1  0.12889984  0.51077833  0.05344843  1
  H+  H98  1  0.82750670  0.27891251  0.48388521  1
  H+  H99  1  -0.05362262  0.48161734  0.00749086  1
  H+  H100  1  0.03878380  0.17437017  0.24089197  1
  H+  H101  1  0.47668509  0.63941680  0.52210294  1
  H+  H102  1  0.76543497  0.89216043  0.15454560  1
  H+  H103  1  0.49249479  0.36230659  -0.01951332  1
  H+  H104  1  0.12272405  0.82713878  0.27158445  1
  H+  H105  1  0.47362317  0.96947381  0.00826946  1
  H+  H106  1  1.01491762  0.86189089  1.03067990  1
  H+  H107  1  0.61786321  0.80331444  0.49599006  1
  H+  H108  1  0.88869404  0.78671947  0.91777763  1
  H+  H109  1  0.43981776  0.55700832  0.08446129  1
  H+  H110  1  0.78266298  0.21870902  0.15990670  1
  H+  H111  1  0.48918054  0.23059535  0.17480244  1
  H+  H112  1  0.19225028  0.16538707  0.25664608  1
  H+  H113  1  0.54011216  0.44233314  0.35291448  1
  H+  H114  1  0.78343612  0.56641933  0.66826099  1
  H+  H115  1  0.15987381  0.46926250  0.25728136  1
  H+  H116  1  0.56303968  0.10521407  0.36024590  1
  H+  H117  1  0.17864487  0.77242820  0.95970741  1
  H+  H118  1  0.23771736  0.11961768  0.35384374  1
  H+  H119  1  0.49445182  0.52027864  0.74308633  1
  H+  H120  1  0.44485537  0.88368454  0.59628319  1
  H+  H121  1  0.55505274  0.77947618  0.84778237  1
  H+  H122  1  0.91886518  0.11608500  0.39443899  1
  H+  H123  1  0.74994944  0.91500128  0.64048738  1
  H+  H124  1  0.44945485  0.56092127  0.62293197  1
  H+  H125  1  0.14170364  0.22795477  0.57915604  1
  H+  H126  1  0.44383637  0.89188334  0.15692336  1
  H+  H127  1  0.76244225  0.55070769  0.09741501  1
  H+  H128  1  0.24587351  0.80832293  0.82960150  1
  H+  H129  1  0.92948980  0.78608765  0.28254564  1
  H+  H130  1  0.54425852  0.44575318  0.89557296  1
  H+  H131  1  0.08463124  0.88371477  0.19653677  1
  H+  H132  1  0.38546104  0.20535749  0.07167243  1
  H+  H133  1  0.22907280  0.42979288  0.83570255  1
  H+  H134  1  0.53953888  0.76995445  0.36056105  1
  H+  H135  1  0.11968008  0.91050645  0.59490087  1
  H+  H136  1  0.57220886  0.14495932  0.86058059  1
  H+  H137  1  0.57831108  0.62826056  0.17469062  1
  H+  H138  1  0.95894267  0.44482167  0.32173504  1
  H+  H139  1  0.87303096  0.10923059  0.90837862  1
  H+  H140  1  0.08861470  0.55152449  0.17588517  1
  H+  H141  1  0.15539711  0.03082859  0.98013660  1
  H+  H142  1  0.21473993  0.45025049  0.39497758  1
  H+  H143  1  0.90338715  0.57190998  0.54903896  1
  O2-  O144  1  0.12042548  0.21505358  0.21719676  1
  O2-  O145  1  0.08963829  0.24114086  0.69216816  1
  O2-  O146  1  0.09069010  0.54059104  0.24344369  1
  O2-  O147  1  0.10679895  0.55794031  0.74038840  1
  O2-  O148  1  0.07568057  0.86313257  0.26106766  1
  O2-  O149  1  0.10933232  0.90098344  0.71090528  1
  O2-  O150  1  0.45701993  0.21346643  0.23589460  1
  O2-  O151  1  0.45061840  0.23564695  0.70973635  1
  O2-  O152  1  0.50000316  0.58311976  0.19701388  1
  O2-  O153  1  0.45235202  0.56013162  0.71936301  1
  O2-  O154  1  0.44156927  0.89142106  0.22435500  1
  O2-  O155  1  0.43927175  0.86466992  0.71272697  1
  O2-  O156  1  0.79138468  0.21314808  0.22623766  1
  O2-  O157  1  0.81989748  0.25684541  0.73728035  1
  O2-  O158  1  0.76366181  0.54591344  0.20309249  1
  O2-  O159  1  0.77291489  0.56183404  0.73454381  1
  O2-  O160  1  0.77064699  0.89504878  0.22249840  1
  O2-  O161  1  0.74612648  0.90446482  0.70602593  1
  O2-  O162  1  0.23823059  0.12830571  0.28172431  1
  O2-  O163  1  0.22347004  0.12672850  0.76494725  1
  O2-  O164  1  0.20972242  0.43462343  0.26908240  1
  O2-  O165  1  0.22846266  0.44005601  0.76919562  1
  O2-  O166  1  0.21752720  0.76721589  0.29728679  1
  O2-  O167  1  0.22743700  0.79250144  0.76549440  1
  O2-  O168  1  0.55944554  0.10989802  0.29192394  1
  O2-  O169  1  0.58393119  0.16197064  0.79303596  1
  O2-  O170  1  0.53925196  0.43549886  0.28590612  1
  O2-  O171  1  0.55442629  0.45179465  0.78031151  1
  O2-  O172  1  0.54710691  0.77939547  0.29327534  1
  O2-  O173  1  0.54960932  0.77220664  0.77965563  1
  O2-  O174  1  0.90744037  0.11459028  0.28075737  1
  O2-  O175  1  0.87641315  0.10942861  0.79211796  1
  O2-  O176  1  0.96677619  0.47175254  0.25712377  1
  O2-  O177  1  0.89546130  0.47122658  0.79380412  1
  O2-  O178  1  0.84445957  0.74387388  0.28628652  1
  O2-  O179  1  0.89670886  0.78545061  0.80708568  1
  O2-  O180  1  0.24653875  0.11449047  0.45117512  1
  O2-  O181  1  0.19359343  0.10653505  0.94765592  1
  O2-  O182  1  0.21301768  0.45313108  0.46173428  1
  O2-  O183  1  0.21918675  0.44477342  0.95873223  1
  O2-  O184  1  0.21377008  0.78175009  0.47933028  1
  O2-  O185  1  0.20414066  0.77488613  1.02194417  1
  O2-  O186  1  0.56659505  0.10212716  0.47231732  1
  O2-  O187  1  0.54665139  0.11442393  0.97012801  1
  O2-  O188  1  0.53277849  0.44648651  0.47481398  1
  O2-  O189  1  0.53672009  0.44409218  0.96342950  1
  O2-  O190  1  0.53447540  0.75913962  0.48064857  1
  O2-  O191  1  0.54917846  0.78525101  0.96293523  1
  O2-  O192  1  0.92712418  0.11774311  0.46269784  1
  O2-  O193  1  0.87016593  0.11006976  0.97645085  1
  O2-  O194  1  0.91091798  0.41124441  0.43078908  1
  O2-  O195  1  0.87138092  0.44208581  0.97699077  1
  O2-  O196  1  0.89402455  0.80108929  0.49314025  1
  O2-  O197  1  0.88073431  0.78593496  0.98629763  1
  O2-  O198  1  0.09924595  0.22181157  0.02925098  1
  O2-  O199  1  0.14571633  0.22450274  0.51224536  1
  O2-  O200  1  0.08786398  0.55208506  0.06364077  1
  O2-  O201  1  0.08887251  0.54888180  0.51678633  1
  O2-  O202  1  0.09544828  0.91353750  0.05242248  1
  O2-  O203  1  0.12265543  0.91148997  0.52675222  1
  O2-  O204  1  0.40644926  0.21064034  0.00779285  1
  O2-  O205  1  0.46275220  0.23450355  0.52469630  1
  O2-  O206  1  0.43173048  0.55618767  0.01734661  1
  O2-  O207  1  0.44130772  0.55888540  0.55086961  1
  O2-  O208  1  0.43341909  0.88941546  0.03155191  1
  O2-  O209  1  0.44277628  0.88375940  0.52883537  1
  O2-  O210  1  0.75858922  0.22067728  0.03711476  1
  O2-  O211  1  0.78198427  0.20195466  0.51136697  1
  O2-  O212  1  0.76610844  0.55532709  0.02767266  1
  O2-  O213  1  0.83230585  0.57436612  0.54799084  1
  O2-  O214  1  0.76033116  0.88796376  0.03609980  1
  O2-  O215  1  0.76437130  0.88544355  0.48819845  1
