# generated using pymatgen
data_H2O
_symmetry_space_group_name_H-M   'P 1'
_cell_length_a   13.52393121
_cell_length_b   13.52696761
_cell_length_c   14.69637153
_cell_angle_alpha   89.95315519
_cell_angle_beta   90.05071912
_cell_angle_gamma   119.99354633
_symmetry_Int_Tables_number   1
_chemical_formula_structural   H2O
_chemical_formula_sum   'H144 O72'
_cell_volume   2328.47825130
_cell_formula_units_Z   72
loop_
 _symmetry_equiv_pos_site_id
 _symmetry_equiv_pos_as_xyz
  1  'x, y, z'
loop_
 _atom_type_symbol
 _atom_type_oxidation_number
  H+  1.0
  O2-  -2.0
loop_
 _atom_site_type_symbol
 _atom_site_label
 _atom_site_symmetry_multiplicity
 _atom_site_fract_x
 _atom_site_fract_y
 _atom_site_fract_z
 _atom_site_occupancy
  H+  H0  1  0.12236916  0.79298866  0.23366315  1
  H+  H1  1  0.17461612  1.02121557  0.76129850  1
  H+  H2  1  0.48167092  0.26879354  0.27448101  1
  H+  H3  1  0.19789855  0.70205481  1.00846508  1
  H+  H4  1  0.50016589  1.00299530  0.25778096  1
  H+  H5  1  0.67816252  0.86210077  0.73153860  1
  H+  H6  1  0.17285543  0.17951236  0.02660803  1
  H+  H7  1  -0.01970067  0.49201769  0.74398658  1
  H+  H8  1  0.04593152  0.19235482  0.72028150  1
  H+  H9  1  0.84847744  0.48937458  1.00009654  1
  H+  H10  1  0.16379953  0.19378291  0.70842444  1
  H+  H11  1  0.26830673  0.47872855  0.98215675  1
  H+  H12  1  0.15456873  0.51840050  0.72707921  1
  H+  H13  1  0.35966606  0.84794504  0.76277072  1
  H+  H14  1  0.09759964  0.20999882  0.57195224  1
  H+  H15  1  0.83378078  0.13529602  0.24967690  1
  H+  H16  1  0.18684501  0.03457508  0.48817092  1
  H+  H17  1  0.55817963  0.86288647  0.49348057  1
  H+  H18  1  0.85542648  0.81405462  0.47472617  1
  H+  H19  1  0.01622119  0.51324466  0.48750229  1
  H+  H20  1  0.69671009  0.83543310  0.23813175  1
  H+  H21  1  0.22244502  0.76950815  0.85938159  1
  H+  H22  1  0.13266351  0.28802142  0.48645416  1
  H+  H23  1  0.50810048  0.50517537  -0.01371849  1
  H+  H24  1  0.49005680  0.52292869  0.73500998  1
  H+  H25  1  0.76622243  0.54501105  0.10491069  1
  H+  H26  1  0.77980347  0.94287931  0.03018967  1
  H+  H27  1  0.63403701  0.48405924  0.75655299  1
  H+  H28  1  0.13685332  0.09395441  0.82045509  1
  H+  H29  1  0.54917854  1.03465785  0.49306380  1
  H+  H30  1  0.21112225  0.43285992  0.57168128  1
  H+  H31  1  0.12910660  0.23165491  0.13429110  1
  H+  H32  1  0.19199861  0.81615559  0.99899767  1
  H+  H33  1  0.87123766  0.42737071  0.68609954  1
  H+  H34  1  0.82270343  0.29015811  0.75203701  1
  H+  H35  1  0.51888483  0.35935708  0.50545680  1
  H+  H36  1  0.87253725  0.04802435  0.76491923  1
  H+  H37  1  0.81878105  0.30950365  1.01648019  1
  H+  H38  1  0.76436133  0.86401732  0.11354614  1
  H+  H39  1  0.86747172  0.16175296  0.75715123  1
  H+  H40  1  0.49188591  0.84967511  0.98856449  1
  H+  H41  1  0.81602473  0.95698046  0.23704503  1
  H+  H42  1  0.34298010  0.87355772  0.53259283  1
  H+  H43  1  0.13542829  0.68494642  0.46549947  1
  H+  H44  1  0.05488264  0.82864872  0.73418843  1
  H+  H45  1  0.36905442  0.18779076  0.74538761  1
  H+  H46  1  0.82038360  0.52594213  0.74006292  1
  H+  H47  1  0.51712715  0.67686764  0.46857967  1
  H+  H48  1  0.68674742  0.15608599  0.24258879  1
  H+  H49  1  0.14805783  0.31839006  0.22981952  1
  H+  H50  1  0.35417958  0.82487908  0.22319328  1
  H+  H51  1  0.08021413  0.22308072  0.01201216  1
  H+  H52  1  0.91609443  0.08593122  0.97714726  1
  H+  H53  1  0.84676091  0.37579932  0.44119370  1
  H+  H54  1  0.31444057  0.14071046  1.01766234  1
  H+  H55  1  0.76963426  0.87012724  0.57220461  1
  H+  H56  1  0.63326294  0.48043865  0.49566246  1
  H+  H57  1  0.47671008  0.83570970  0.22813609  1
  H+  H58  1  0.16392701  0.20106707  0.24557948  1
  H+  H59  1  0.50581415  0.81314124  0.76281097  1
  H+  H60  1  0.20632600  0.45388547  0.88982990  1
  H+  H61  1  0.00384586  0.81290707  0.24369631  1
  H+  H62  1  0.50872247  0.39055675  0.19166383  1
  H+  H63  1  0.95712211  0.14254980  0.24858994  1
  H+  H64  1  0.84774712  0.81539927  0.99931592  1
  H+  H65  1  0.85325249  0.81172575  0.25700523  1
  H+  H66  1  0.52282037  0.16103971  0.76459273  1
  H+  H67  1  0.03140588  0.85988089  0.51532442  1
  H+  H68  1  0.03452749  0.84449845  0.01444677  1
  H+  H69  1  0.16568245  0.69509846  0.16387559  1
  H+  H70  1  0.13854774  0.84885625  0.50404148  1
  H+  H71  1  0.80551430  0.62085233  0.24406735  1
  H+  H72  1  0.16835880  0.48330375  0.49750488  1
  H+  H73  1  0.51414530  0.36688051  0.76070538  1
  H+  H74  1  0.63742768  0.49802259  0.98959379  1
  H+  H75  1  0.47625375  0.14938425  0.25709228  1
  H+  H76  1  0.49918550  -0.01591006  0.98992933  1
  H+  H77  1  0.51490632  0.69440271  0.23123666  1
  H+  H78  1  0.19239500  0.37273784  0.73797784  1
  H+  H79  1  0.81913278  0.52111865  0.49131874  1
  H+  H80  1  0.80225489  0.50614688  0.26539452  1
  H+  H81  1  0.48732095  0.50413141  0.50981652  1
  H+  H82  1  0.35738641  0.84999707  0.49137059  1
  H+  H83  1  0.91108597  0.84029224  0.74277017  1
  H+  H84  1  0.77095155  0.21152592  0.15832726  1
  H+  H85  1  0.51751192  0.04043721  0.77082623  1
  H+  H86  1  0.61706924  0.47876645  0.24511137  1
  H+  H87  1  0.64331505  0.15060922  0.99444808  1
  H+  H88  1  0.19482599  0.81681025  0.76669442  1
  H+  H89  1  0.36677469  0.85286694  -0.00621588  1
  H+  H90  1  0.82171300  0.18318348  0.48215320  1
  H+  H91  1  0.47532476  0.62879498  0.99586181  1
  H+  H92  1  0.37132467  0.51268250  0.50697985  1
  H+  H93  1  0.62342591  0.80293517  -0.00739263  1
  H+  H94  1  0.48441770  0.17346097  1.02880642  1
  H+  H95  1  0.83239126  0.20077090  0.00860655  1
  H+  H96  1  0.18505910  0.15107266  0.48251935  1
  H+  H97  1  1.04161769  0.53947036  1.04903570  1
  H+  H98  1  0.81166748  0.63202254  1.01953403  1
  H+  H99  1  0.30959326  0.49266163  0.74448080  1
  H+  H100  1  0.45507819  0.56260830  0.64285536  1
  H+  H101  1  0.46528552  0.51400403  0.22122924  1
  H+  H102  1  0.86130674  0.69904547  0.48089757  1
  H+  H103  1  0.64128598  0.78682773  0.45708082  1
  H+  H104  1  0.48426383  0.16951147  0.51562196  1
  H+  H105  1  0.29526030  0.16002486  0.25955174  1
  H+  H106  1  0.95306184  0.13198399  0.47062362  1
  H+  H107  1  0.81091365  0.95499541  0.48665612  1
  H+  H108  1  0.78764851  0.55814535  0.58722801  1
  H+  H109  1  0.44397583  0.21831143  0.65452202  1
  H+  H110  1  0.13266062  0.54613279  0.12279370  1
  H+  H111  1  0.87208322  0.09184024  0.38340991  1
  H+  H112  1  0.88439760  0.77905412  0.90874831  1
  H+  H113  1  0.20168112  0.77882013  0.39040840  1
  H+  H114  1  0.54574424  0.08355663  0.34843676  1
  H+  H115  1  0.52447533  0.88118714  0.58941417  1
  H+  H116  1  0.15497364  0.63601507  0.73726492  1
  H+  H117  1  0.70359049  0.17612376  0.74765596  1
  H+  H118  1  0.79601929  0.23645219  0.56862691  1
  H+  H119  1  0.64272999  0.16058937  0.47532450  1
  H+  H120  1  0.43644745  0.54732905  0.08446700  1
  H+  H121  1  0.93744266  0.16192887  0.89248529  1
  H+  H122  1  0.35147828  0.52564464  0.21482919  1
  H+  H123  1  0.73753072  0.96665486  0.66640901  1
  H+  H124  1  0.24170039  0.10481850  0.92485798  1
  H+  H125  1  0.44255748  0.20145854  0.12187171  1
  H+  H126  1  0.21625066  0.46344795  0.32191852  1
  H+  H127  1  0.89659566  0.77250730  0.34703802  1
  H+  H128  1  0.09756420  0.86162884  0.15097400  1
  H+  H129  1  0.36795673  0.17444762  0.51290550  1
  H+  H130  1  0.17479876  0.65248195  0.25635304  1
  H+  H131  1  0.51389269  0.69791181  0.75289248  1
  H+  H132  1  0.55996415  0.45910470  0.89241430  1
  H+  H133  1  0.42510995  0.90443366  0.67300636  1
  H+  H134  1  0.55307403  0.76142042  0.32549067  1
  H+  H135  1  0.55466249  0.77381142  0.89638424  1
  H+  H136  1  0.15554042  0.96139881  0.02419701  1
  H+  H137  1  0.12431703  0.88928880  0.64383734  1
  H+  H138  1  0.56388513  0.12105617  0.90483743  1
  H+  H139  1  0.21804955  0.12817287  0.34729340  1
  H+  H140  1  0.80650692  0.63664374  0.73655298  1
  H+  H141  1  0.08971996  0.55557822  0.58157790  1
  H+  H142  1  0.90842628  0.46035987  0.92023397  1
  H+  H143  1  0.78890620  0.79583256  0.77373504  1
  O2-  O144  1  0.11705263  0.23556240  0.21238124  1
  O2-  O145  1  0.12190446  0.23243406  0.68885264  1
  O2-  O146  1  0.14619020  0.51174148  0.23104666  1
  O2-  O147  1  0.11203777  0.55893283  0.70923964  1
  O2-  O148  1  0.09012169  0.84574135  0.21944900  1
  O2-  O149  1  0.13021853  0.88805742  0.71421188  1
  O2-  O150  1  0.43927850  0.19715959  0.24044947  1
  O2-  O151  1  0.44811702  0.22635247  0.72337186  1
  O2-  O152  1  0.43183095  0.55825787  0.19267943  1
  O2-  O153  1  0.45323441  0.56593401  0.71148502  1
  O2-  O154  1  0.43574981  0.87672824  0.21078210  1
  O2-  O155  1  0.44010004  0.89526167  0.73668121  1
  O2-  O156  1  0.76856284  0.19663254  0.22422701  1
  O2-  O157  1  0.78440924  0.21220254  0.72616262  1
  O2-  O158  1  0.76525326  0.53948941  0.22530490  1
  O2-  O159  1  0.77283262  0.55696188  0.71527094  1
  O2-  O160  1  0.77976590  0.87428346  0.21809802  1
  O2-  O161  1  0.75359073  0.91384012  0.70025534  1
  O2-  O162  1  0.21726586  0.13972127  0.28025086  1
  O2-  O163  1  0.20215763  0.09914639  0.78766189  1
  O2-  O164  1  0.21354208  0.45699531  0.25534635  1
  O2-  O165  1  0.22625113  0.45295206  0.75872931  1
  O2-  O166  1  0.19010504  0.72581805  0.22665352  1
  O2-  O167  1  0.22920201  0.77213032  0.79128580  1
  O2-  O168  1  0.54324020  0.08463212  0.28055749  1
  O2-  O169  1  0.56335876  0.12186773  0.78948762  1
  O2-  O170  1  0.53157950  0.43816448  0.24608529  1
  O2-  O171  1  0.55507495  0.44808580  0.78255182  1
  O2-  O172  1  0.56017419  0.77269345  0.25772660  1
  O2-  O173  1  0.55246768  0.77762880  0.77986382  1
  O2-  O174  1  0.87788483  0.09434586  0.26962617  1
  O2-  O175  1  0.91810004  0.13053406  0.77820223  1
  O2-  O176  1  0.88774571  0.48472554  0.33961809  1
  O2-  O177  1  0.89358279  0.44754725  0.74972236  1
  O2-  O178  1  0.89321852  0.76970808  0.27763192  1
  O2-  O179  1  0.85232224  0.78105249  0.78115663  1
  O2-  O180  1  0.23060007  0.11450510  0.46489309  1
  O2-  O181  1  0.23218679  0.10085903  0.99126344  1
  O2-  O182  1  0.21059837  0.43986576  0.50552153  1
  O2-  O183  1  0.19312932  0.45310613  0.95550657  1
  O2-  O184  1  0.14475778  0.75630722  0.43820123  1
  O2-  O185  1  0.23455508  0.77843681  0.97586149  1
  O2-  O186  1  0.55955703  0.10688610  0.46624053  1
  O2-  O187  1  0.56167451  0.10870534  0.97243072  1
  O2-  O188  1  0.55005353  0.43858728  0.48338898  1
  O2-  O189  1  0.55845138  0.46529440  0.96163043  1
  O2-  O190  1  0.56008379  0.75366182  0.43817230  1
  O2-  O191  1  0.54606143  0.77198450  0.96439465  1
  O2-  O192  1  0.87088944  0.09147436  0.45210669  1
  O2-  O193  1  0.94033109  0.16454100  0.96070907  1
  O2-  O194  1  0.88416342  0.46057101  0.43600713  1
  O2-  O195  1  0.89616653  0.45398526  0.98590937  1
  O2-  O196  1  0.90308053  0.77949020  0.45693386  1
  O2-  O197  1  0.89048606  0.77830037  0.97564881  1
  O2-  O198  1  0.14495905  0.23120078  0.04955377  1
  O2-  O199  1  0.09513941  0.20612442  0.50418256  1
  O2-  O200  1  0.11729713  0.59148606  0.07546304  1
  O2-  O201  1  0.09492531  0.55181077  0.51454203  1
  O2-  O202  1  0.11233334  0.87833585  0.04192322  1
  O2-  O203  1  0.11197461  0.89651504  0.53839960  1
  O2-  O204  1  0.43760462  0.20416148  0.05429270  1
  O2-  O205  1  0.44502731  0.20895743  0.54205159  1
  O2-  O206  1  0.44376151  0.54773738  0.01540471  1
  O2-  O207  1  0.45145473  0.55296581  0.52803881  1
  O2-  O208  1  0.45347991  0.89607275  0.00449406  1
  O2-  O209  1  0.57043102  0.92458669  0.53772865  1
  O2-  O210  1  0.77969382  0.22612792  0.03074139  1
  O2-  O211  1  0.79140289  0.23410893  0.50202647  1
  O2-  O212  1  0.76559531  0.54995002  0.03658954  1
  O2-  O213  1  0.78423586  0.56379486  0.52041105  1
  O2-  O214  1  0.75756851  0.86380170  0.04326642  1
  O2-  O215  1  0.77697485  0.87231778  0.50555192  1
