# generated using pymatgen
data_H2O
_symmetry_space_group_name_H-M   'P 1'
_cell_length_a   13.52655742
_cell_length_b   13.52835858
_cell_length_c   14.70525304
_cell_angle_alpha   90.02515640
_cell_angle_beta   89.98272411
_cell_angle_gamma   119.97346607
_symmetry_Int_Tables_number   1
_chemical_formula_structural   H2O
_chemical_formula_sum   'H144 O72'
_cell_volume   2331.04969869
_cell_formula_units_Z   72
loop_
 _symmetry_equiv_pos_site_id
 _symmetry_equiv_pos_as_xyz
  1  'x, y, z'
loop_
 _atom_type_symbol
 _atom_type_oxidation_number
  H+  1.0
  O2-  -2.0
loop_
 _atom_site_type_symbol
 _atom_site_label
 _atom_site_symmetry_multiplicity
 _atom_site_fract_x
 _atom_site_fract_y
 _atom_site_fract_z
 _atom_site_occupancy
  H+  H0  1  0.48078135  0.20462812  0.58169307  1
  H+  H1  1  0.02697196  0.51836635  0.52906391  1
  H+  H2  1  0.86674758  0.33853221  0.26891941  1
  H+  H3  1  0.47619575  0.64476274  0.02310509  1
  H+  H4  1  0.51262302  0.81850167  -0.00592056  1
  H+  H5  1  0.14330165  0.63856924  0.52751068  1
  H+  H6  1  0.15226787  0.95604870  0.01086138  1
  H+  H7  1  0.85738457  0.97905578  0.76456372  1
  H+  H8  1  0.27449919  0.79165381  0.26543470  1
  H+  H9  1  0.50213964  0.48979477  0.26035106  1
  H+  H10  1  0.17461469  0.92733639  0.14884198  1
  H+  H11  1  0.87281815  0.12972293  0.34869354  1
  H+  H12  1  0.78051892  0.53774773  0.67523863  1
  H+  H13  1  0.18323013  0.52214650  0.98030816  1
  H+  H14  1  0.85245430  0.86249740  0.49827103  1
  H+  H15  1  0.82415517  0.46012173  0.76993406  1
  H+  H16  1  0.79324986  0.54504266  0.08504610  1
  H+  H17  1  0.78348216  0.82174894  0.22787054  1
  H+  H18  1  0.42849223  0.80492399  0.21365641  1
  H+  H19  1  0.12962478  0.30755608  0.98017320  1
  H+  H20  1  0.18257986  0.15124048  0.98785261  1
  H+  H21  1  0.89019868  0.43299606  0.41014461  1
  H+  H22  1  0.49371069  0.32062077  0.22454908  1
  H+  H23  1  -0.00417341  0.84349442  0.75228207  1
  H+  H24  1  0.60394961  0.11998059  0.98460555  1
  H+  H25  1  0.37997455  0.52194637  0.75433926  1
  H+  H26  1  0.19117027  -0.00887858  0.53873407  1
  H+  H27  1  0.83579673  0.45822222  0.49984601  1
  H+  H28  1  0.83434041  0.76497554  0.77706553  1
  H+  H29  1  -0.03754831  0.80654049  -0.00656863  1
  H+  H30  1  0.47007078  0.82695169  0.75403104  1
  H+  H31  1  0.51659126  0.68884521  0.77093569  1
  H+  H32  1  0.04133934  0.19345057  -0.06984984  1
  H+  H33  1  0.35764471  0.18906640  0.73785118  1
  H+  H34  1  0.19129440  0.82308712  0.50227541  1
  H+  H35  1  0.44251122  0.54882529  0.41053805  1
  H+  H36  1  0.87164142  0.20529380  0.53312463  1
  H+  H37  1  0.35249232  0.53353722  0.02149154  1
  H+  H38  1  0.57021734  0.78532306  0.40656063  1
  H+  H39  1  0.46607653  0.15160051  0.47719115  1
  H+  H40  1  0.79568861  0.81348689  0.48337429  1
  H+  H41  1  0.08175273  0.20332994  0.60133704  1
  H+  H42  1  0.14280424  0.17398216  0.52463688  1
  H+  H43  1  0.67278124  0.88140852  0.54380736  1
  H+  H44  1  0.23971089  0.44979581  0.67545126  1
  H+  H45  1  0.70492808  0.16670266  0.74152013  1
  H+  H46  1  0.62932649  0.81376915  0.76684621  1
  H+  H47  1  0.46896390  0.64106610  0.24629342  1
  H+  H48  1  0.14465156  0.61810008  0.24574720  1
  H+  H49  1  0.22648758  0.06663852  0.24897532  1
  H+  H50  1  0.49198860  0.29356667  -0.00532426  1
  H+  H51  1  0.16131117  0.64636688  0.77296185  1
  H+  H52  1  0.17636704  0.50080605  0.50588605  1
  H+  H53  1  0.68358116  0.41957373  0.18562109  1
  H+  H54  1  0.28640085  0.81782625  0.81128283  1
  H+  H55  1  0.64360410  0.82607153  0.25273977  1
  H+  H56  1  0.82048091  0.85943384  0.00255779  1
  H+  H57  1  0.15439520  0.18660489  0.74835705  1
  H+  H58  1  0.53481027  1.00698446  0.23952307  1
  H+  H59  1  0.30260254  0.15182594  0.99191233  1
  H+  H60  1  0.38408428  0.20314467  0.20765468  1
  H+  H61  1  0.85028299  0.71485493  0.28188911  1
  H+  H62  1  0.45207799  0.94687441  -0.00081809  1
  H+  H63  1  0.84289950  0.44204408  0.25546725  1
  H+  H64  1  0.66539985  0.13411957  0.47923071  1
  H+  H65  1  0.49484767  0.13566174  0.98145326  1
  H+  H66  1  0.16941116  0.48300772  0.24481874  1
  H+  H67  1  0.29502149  0.48724495  0.25367143  1
  H+  H68  1  0.70243776  0.85894158  1.00427060  1
  H+  H69  1  0.55618366  0.86164419  0.29079435  1
  H+  H70  1  -0.01132321  0.15450069  0.78747578  1
  H+  H71  1  0.80777298  0.58782203  0.51716182  1
  H+  H72  1  0.48947253  0.84676874  0.50260744  1
  H+  H73  1  0.33196077  0.16489677  0.51035067  1
  H+  H74  1  0.11915650  0.57672960  0.67749193  1
  H+  H75  1  0.14620588  0.30125153  0.74111971  1
  H+  H76  1  0.93203084  0.75605694  0.50562961  1
  H+  H77  1  0.64438140  0.46485728  0.98968940  1
  H+  H78  1  0.55352877  0.10141937  0.83395661  1
  H+  H79  1  0.44260672  0.99307865  0.44854611  1
  H+  H80  1  0.95471380  0.13153200  0.48210612  1
  H+  H81  1  0.07339205  0.90093131  0.50679609  1
  H+  H82  1  0.97942552  0.84120998  0.22049412  1
  H+  H83  1  -0.03139443  0.79136103  0.19076381  1
  H+  H84  1  0.02985956  0.49890097  0.23022492  1
  H+  H85  1  0.49932289  0.52259026  0.76201152  1
  H+  H86  1  0.65899381  0.17932124  0.50366890  1
  H+  H87  1  0.72694848  0.53240859  0.23762073  1
  H+  H88  1  0.15037239  0.19912213  0.24953833  1
  H+  H89  1  0.52135706  0.37012289  0.76395298  1
  H+  H90  1  0.51802686  1.02071841  0.75004766  1
  H+  H91  1  0.81993419  1.04315434  0.49649572  1
  H+  H92  1  0.30116164  0.80924603  0.49889951  1
  H+  H93  1  0.51574097  0.35208636  0.48564841  1
  H+  H94  1  0.87846719  0.32491779  0.54182677  1
  H+  H95  1  0.50581137  0.46687881  0.48875948  1
  H+  H96  1  0.83946194  1.07044237  0.04762720  1
  H+  H97  1  0.35143520  0.51724296  0.48672897  1
  H+  H98  1  0.82236601  0.32118240  0.76454991  1
  H+  H99  1  0.83367394  0.62861914  0.76600102  1
  H+  H100  1  0.28541950  0.95272469  0.20458088  1
  H+  H101  1  0.83212741  0.62753584  0.99761992  1
  H+  H102  1  0.51458855  0.69634275  0.48732301  1
  H+  H103  1  0.87121119  0.14414323  0.81338479  1
  H+  H104  1  0.16501647  0.34547706  0.25376815  1
  H+  H105  1  0.68125784  0.48568917  0.52325704  1
  H+  H106  1  0.16299094  0.03815653  0.76552706  1
  H+  H107  1  0.90958213  0.92206689  0.70477073  1
  H+  H108  1  0.82110122  0.44006894  0.99198966  1
  H+  H109  1  0.42863002  0.56555897  0.15375568  1
  H+  H110  1  0.14117151  0.83151219  0.02579512  1
  H+  H111  1  0.66338971  0.10523329  0.26544402  1
  H+  H112  1  0.76970261  0.70372611  0.35913142  1
  H+  H113  1  0.76746573  0.88152729  0.13952314  1
  H+  H114  1  0.19904851  0.45017245  0.41503066  1
  H+  H115  1  0.56072408  0.43479469  0.90657323  1
  H+  H116  1  0.83608690  0.17316041  0.17417942  1
  H+  H117  1  0.21145918  0.74930122  0.36110408  1
  H+  H118  1  0.47895772  0.92224818  0.58102754  1
  H+  H119  1  0.02952022  0.20201748  0.25265165  1
  H+  H120  1  0.13562764  0.61481766  0.08978367  1
  H+  H121  1  0.76671025  0.93508146  0.62326172  1
  H+  H122  1  -0.03954907  0.17874462  0.05215684  1
  H+  H123  1  0.22989478  0.11217959  0.43816933  1
  H+  H124  1  0.29584460  0.17404254  0.31836872  1
  H+  H125  1  0.22584711  0.47900982  0.89850397  1
  H+  H126  1  0.97735808  0.71283721  0.42666686  1
  H+  H127  1  0.45620953  0.22026719  0.08463698  1
  H+  H128  1  0.64572460  0.48260576  0.77251418  1
  H+  H129  1  0.81665220  0.22437163  0.66996546  1
  H+  H130  1  0.88976849  0.75748409  0.89955502  1
  H+  H131  1  0.37059193  0.81539153  0.68915767  1
  H+  H132  1  0.55461180  0.77714156  0.90858439  1
  H+  H133  1  0.88261576  0.28364152  0.02188644  1
  H+  H134  1  0.07777262  0.90129836  0.66418315  1
  H+  H135  1  0.22465865  0.11294187  0.85427593  1
  H+  H136  1  0.84691204  0.39866558  0.86132070  1
  H+  H137  1  0.39733704  0.28037659  0.66247363  1
  H+  H138  1  0.33975467  0.81803249  0.01309140  1
  H+  H139  1  0.54401148  0.44450360  0.34532060  1
  H+  H140  1  0.49748054  0.07263425  0.36389545  1
  H+  H141  1  0.18957711  0.50074426  0.74662622  1
  H+  H142  1  0.41792740  0.87390058  0.13274093  1
  H+  H143  1  0.19955970  0.75726443  0.89238642  1
  O2-  O144  1  0.11154639  0.24266617  0.23191448  1
  O2-  O145  1  0.10560137  0.21823584  0.72629036  1
  O2-  O146  1  0.11087108  0.54387537  0.20965691  1
  O2-  O147  1  0.13281042  0.56982471  0.74258968  1
  O2-  O148  1  0.21561194  0.95653343  0.20855063  1
  O2-  O149  1  0.04978678  0.91956390  0.71972127  1
  O2-  O150  1  0.46667840  0.24349627  0.19708834  1
  O2-  O151  1  0.42688158  0.24312332  0.70176055  1
  O2-  O152  1  0.42693106  0.56121725  0.22498393  1
  O2-  O153  1  0.46243359  0.56667657  0.74019245  1
  O2-  O154  1  0.41456069  0.86808504  0.20234447  1
  O2-  O155  1  0.42644701  0.86553517  0.73367870  1
  O2-  O156  1  0.82299100  0.18582679  0.23995208  1
  O2-  O157  1  0.79063371  0.21450673  0.73681805  1
  O2-  O158  1  0.75420381  0.48911723  0.20152951  1
  O2-  O159  1  0.78269739  0.53754336  0.74236571  1
  O2-  O160  1  0.75901039  0.87531441  0.20761001  1
  O2-  O161  1  0.83526209  0.91587899  0.72011105  1
  O2-  O162  1  0.23645191  0.14312734  0.27225751  1
  O2-  O163  1  0.22325287  0.11613292  0.78610553  1
  O2-  O164  1  0.21139299  0.44289721  0.27373390  1
  O2-  O165  1  0.22722771  0.44902197  0.74091386  1
  O2-  O166  1  0.20158877  0.73738330  0.29446762  1
  O2-  O167  1  0.20503486  0.76875569  0.82434770  1
  O2-  O168  1  0.58209315  0.06950856  0.28173747  1
  O2-  O169  1  0.56638920  0.10112145  0.76775008  1
  O2-  O170  1  0.54174010  0.44761622  0.27809026  1
  O2-  O171  1  0.56321755  0.44749342  0.79137712  1
  O2-  O172  1  0.56663527  0.79521645  0.28818157  1
  O2-  O173  1  0.55139290  0.77377998  0.79042073  1
  O2-  O174  1  0.89151887  0.14012135  0.28099781  1
  O2-  O175  1  0.92226877  0.11497371  0.83072158  1
  O2-  O176  1  0.89514624  0.41956014  0.28466724  1
  O2-  O177  1  0.85617572  0.40778506  0.79318586  1
  O2-  O178  1  0.77033414  0.69065817  0.29377944  1
  O2-  O179  1  0.88682672  0.73844844  0.79520847  1
  O2-  O180  1  0.24515479  0.12443503  0.50317073  1
  O2-  O181  1  0.22107333  0.10810941  0.97076708  1
  O2-  O182  1  0.22014111  0.46565073  0.47936115  1
  O2-  O183  1  0.21254509  0.46995727  0.96396061  1
  O2-  O184  1  0.21955787  0.77217082  0.48019899  1
  O2-  O185  1  0.20150466  0.74704098  1.00535235  1
  O2-  O186  1  0.44029789  0.05434258  0.41363092  1
  O2-  O187  1  0.52720862  0.08530926  0.95922261  1
  O2-  O188  1  0.55414505  0.43457774  0.46873711  1
  O2-  O189  1  0.56254556  0.42264483  0.97321239  1
  O2-  O190  1  0.55703737  0.77981025  0.47368252  1
  O2-  O191  1  0.55839807  0.78210167  0.97631863  1
  O2-  O192  1  0.87676743  0.10869456  0.45792719  1
  O2-  O193  1  0.87888323  0.15074587  1.06798467  1
  O2-  O194  1  0.89515456  0.44090488  0.47729345  1
  O2-  O195  1  0.81571394  0.36680430  0.96889185  1
  O2-  O196  1  0.90941201  0.71269415  0.44911523  1
  O2-  O197  1  0.88365577  0.76468088  0.96944693  1
  O2-  O198  1  0.08725176  0.22325992  -0.01377593  1
  O2-  O199  1  0.08264799  0.19312405  0.53477734  1
  O2-  O200  1  0.13894843  0.62185675  0.02264910  1
  O2-  O201  1  0.10616113  0.56036909  0.55403870  1
  O2-  O202  1  0.11168346  0.88338310  0.04518330  1
  O2-  O203  1  0.13554898  0.90664091  0.54425455  1
  O2-  O204  1  0.44448406  0.21055298  0.01704565  1
  O2-  O205  1  0.46462184  0.21359327  0.51809076  1
  O2-  O206  1  0.42762862  0.56891786  0.05203685  1
  O2-  O207  1  0.43744952  0.54889517  0.47674454  1
  O2-  O208  1  0.42435297  0.86991027  0.02698402  1
  O2-  O209  1  0.44647698  0.88671851  0.52248316  1
  O2-  O210  1  0.91283806  0.36643324  0.01276776  1
  O2-  O211  1  0.87877565  0.26347090  0.57803625  1
  O2-  O212  1  0.79563171  0.54497353  0.01800346  1
  O2-  O213  1  0.75985445  0.51493663  0.54876341  1
  O2-  O214  1  0.78292840  0.90122497  0.02670237  1
  O2-  O215  1  0.72885531  0.95326931  0.57332968  1
