# generated using pymatgen
data_H2O
_symmetry_space_group_name_H-M   'P 1'
_cell_length_a   13.50749028
_cell_length_b   13.51262571
_cell_length_c   14.68802493
_cell_angle_alpha   90.06922822
_cell_angle_beta   89.93042107
_cell_angle_gamma   120.01795728
_symmetry_Int_Tables_number   1
_chemical_formula_structural   H2O
_chemical_formula_sum   'H144 O72'
_cell_volume   2321.29002480
_cell_formula_units_Z   72
loop_
 _symmetry_equiv_pos_site_id
 _symmetry_equiv_pos_as_xyz
  1  'x, y, z'
loop_
 _atom_type_symbol
 _atom_type_oxidation_number
  H+  1.0
  O2-  -2.0
loop_
 _atom_site_type_symbol
 _atom_site_label
 _atom_site_symmetry_multiplicity
 _atom_site_fract_x
 _atom_site_fract_y
 _atom_site_fract_z
 _atom_site_occupancy
  H+  H0  1  0.95927447  0.80260295  0.47991880  1
  H+  H1  1  0.83580064  0.72058672  0.98347116  1
  H+  H2  1  0.97718506  0.81460157  0.24873229  1
  H+  H3  1  0.70409615  0.87226172  1.02808232  1
  H+  H4  1  0.95426795  0.15422328  0.24179380  1
  H+  H5  1  0.49031585  0.55425039  0.00376700  1
  H+  H6  1  0.69994140  0.85037746  0.73442193  1
  H+  H7  1  0.83942677  0.80500302  0.47907732  1
  H+  H8  1  0.70308786  0.52881388  0.74149136  1
  H+  H9  1  0.18563259  0.82649169  0.76043711  1
  H+  H10  1  0.18083111  0.69927270  0.25019699  1
  H+  H11  1  0.02916862  0.52545768  0.74507423  1
  H+  H12  1  0.14869854  0.52393814  0.74699917  1
  H+  H13  1  -0.01623421  0.47142281  0.00431515  1
  H+  H14  1  0.68546571  0.50864159  0.51264323  1
  H+  H15  1  0.12491827  0.95682365  0.23687220  1
  H+  H16  1  0.47881582  0.29355404  0.52962424  1
  H+  H17  1  0.82074296  0.85568121  0.73754698  1
  H+  H18  1  0.50972920  1.01980261  0.76996509  1
  H+  H19  1  0.50817276  0.83723591  1.00252002  1
  H+  H20  1  0.49681065  0.26259162  0.02873122  1
  H+  H21  1  0.44320656  0.88666715  0.66006031  1
  H+  H22  1  0.83078506  0.04349670  0.25182764  1
  H+  H23  1  0.15240978  0.28659708  0.24360333  1
  H+  H24  1  -0.04256795  0.49871200  0.49775092  1
  H+  H25  1  0.98103793  0.16999631  0.48952507  1
  H+  H26  1  0.13361952  0.84141781  0.00944469  1
  H+  H27  1  0.35373777  0.50613579  0.73867526  1
  H+  H28  1  0.35797496  0.83192341  0.52789126  1
  H+  H29  1  0.64583941  0.48956474  0.99309592  1
  H+  H30  1  0.47729606  0.83515200  0.52709096  1
  H+  H31  1  0.15050640  0.18367473  0.75314768  1
  H+  H32  1  0.49089938  0.97394142  0.24192297  1
  H+  H33  1  0.03864522  0.86021221  0.73742284  1
  H+  H34  1  0.84149204  0.22161427  1.00965753  1
  H+  H35  1  0.36572157  0.85315416  0.75111945  1
  H+  H36  1  0.84820977  1.03330562  0.76587456  1
  H+  H37  1  0.07635512  0.55904119  0.12384830  1
  H+  H38  1  0.17311207  0.36424590  0.76079195  1
  H+  H39  1  0.50922632  0.47324189  0.25984962  1
  H+  H40  1  0.31624590  0.47237707  0.26573031  1
  H+  H41  1  0.80295663  0.63019537  0.50349036  1
  H+  H42  1  0.81481616  0.51344494  0.24789171  1
  H+  H43  1  0.33520331  0.82877094  0.02112456  1
  H+  H44  1  0.64093093  0.16257461  0.24738033  1
  H+  H45  1  0.85249872  0.15424516  0.76761911  1
  H+  H46  1  0.85843810  0.37786737  0.76321964  1
  H+  H47  1  0.51731456  0.15034755  0.25646284  1
  H+  H48  1  0.82219641  0.19875886  0.22153395  1
  H+  H49  1  0.18256780  0.70630983  0.76232861  1
  H+  H50  1  0.46464174  0.28592072  0.24438820  1
  H+  H51  1  0.19767257  0.46464599  0.28838078  1
  H+  H52  1  0.28819106  0.49946172  0.98944248  1
  H+  H53  1  0.05085800  0.44031219  0.54952199  1
  H+  H54  1  0.47213680  0.62511676  0.73377938  1
  H+  H55  1  1.02892170  0.17841782  0.74968766  1
  H+  H56  1  0.69686957  0.83166835  0.50452794  1
  H+  H57  1  0.84397091  0.68425896  0.25309807  1
  H+  H58  1  0.34604431  0.16378966  0.24438280  1
  H+  H59  1  0.17698682  0.81271601  0.26164498  1
  H+  H60  1  0.50088913  0.11925985  0.99702508  1
  H+  H61  1  0.51071124  0.41207156  0.98577891  1
  H+  H62  1  0.29193818  0.13697021  0.99661049  1
  H+  H63  1  0.43928889  0.55862975  0.15221932  1
  H+  H64  1  0.50922508  0.46872743  0.49753813  1
  H+  H65  1  0.50538937  0.80962544  0.26438070  1
  H+  H66  1  0.96278746  0.82672506  0.99107983  1
  H+  H67  1  0.13835683  0.95038509  0.50165093  1
  H+  H68  1  0.03450750  0.19497320  0.00858911  1
  H+  H69  1  0.50558933  0.81281909  0.75480574  1
  H+  H70  1  0.13903692  0.96386302  0.01130747  1
  H+  H71  1  0.88770848  0.76583691  0.35071293  1
  H+  H72  1  0.51700372  0.69051366  0.49577259  1
  H+  H73  1  0.62395133  0.46809805  0.26084028  1
  H+  H74  1  0.48661496  -0.00687633  0.99154098  1
  H+  H75  1  0.85603211  0.70901662  0.75450474  1
  H+  H76  1  0.12816664  0.51591026  0.19500469  1
  H+  H77  1  0.80657271  0.84942136  0.25409177  1
  H+  H78  1  0.82148434  0.87232375  1.01934852  1
  H+  H79  1  0.47653283  0.66217476  1.00992601  1
  H+  H80  1  0.20170811  0.48217074  0.49851831  1
  H+  H81  1  0.70749862  0.18584438  0.75603834  1
  H+  H82  1  0.88900817  0.45259442  0.35673554  1
  H+  H83  1  0.15979821  0.13133845  0.24648114  1
  H+  H84  1  0.96571576  0.49423593  0.26373898  1
  H+  H85  1  0.37636932  0.50930774  0.51278983  1
  H+  H86  1  0.17527402  0.14043516  0.49017583  1
  H+  H87  1  0.82442461  0.32204254  0.23646537  1
  H+  H88  1  0.83525753  0.49001462  0.49476691  1
  H+  H89  1  0.79858380  0.26211745  0.11099367  1
  H+  H90  1  0.52399165  0.14981962  0.49172155  1
  H+  H91  1  0.81570293  0.30984488  0.52656604  1
  H+  H92  1  0.16924041  0.29526672  0.52386643  1
  H+  H93  1  0.51204654  0.48250647  0.75575121  1
  H+  H94  1  0.30876361  0.15385871  0.77143658  1
  H+  H95  1  0.88875424  0.12325411  0.90798924  1
  H+  H96  1  0.36844088  0.85775252  0.24959343  1
  H+  H97  1  0.62199930  0.80724049  0.26706430  1
  H+  H98  1  0.18927220  0.03684097  0.75969092  1
  H+  H99  1  0.83090778  0.56207039  0.00750889  1
  H+  H100  1  0.20755441  0.77504389  0.90321485  1
  H+  H101  1  0.47869956  0.63087981  0.24456829  1
  H+  H102  1  0.17100573  0.67778033  0.49241281  1
  H+  H103  1  0.87197248  0.18154152  0.48878853  1
  H+  H104  1  0.14812135  0.68530055  -0.01579633  1
  H+  H105  1  0.78894362  0.43075571  0.02125169  1
  H+  H106  1  0.70295855  0.18951034  0.52054290  1
  H+  H107  1  0.85598736  0.49473845  0.75714026  1
  H+  H108  1  0.14007247  0.83270873  0.50837203  1
  H+  H109  1  0.21514720  0.75938997  0.40625022  1
  H+  H110  1  0.89476061  0.79293349  0.84088491  1
  H+  H111  1  0.51683193  0.14608808  0.78082487  1
  H+  H112  1  0.21829814  0.10615188  0.90520132  1
  H+  H113  1  0.21411129  0.44739855  0.84739411  1
  H+  H114  1  0.43277821  0.18856394  0.11422112  1
  H+  H115  1  0.11044055  0.22162184  0.14776288  1
  H+  H116  1  0.53659545  0.75478251  0.83559852  1
  H+  H117  1  0.57421928  0.12865338  0.40044223  1
  H+  H118  1  0.53868301  0.08371377  0.88832241  1
  H+  H119  1  0.77971648  0.22592292  0.66327550  1
  H+  H120  1  0.77886805  0.56598247  0.65172772  1
  H+  H121  1  0.36499044  0.18522149  0.56811117  1
  H+  H122  1  0.60099698  0.87922845  0.92591792  1
  H+  H123  1  0.15067674  0.18964613  0.00708797  1
  H+  H124  1  0.56688051  0.46736338  0.84688164  1
  H+  H125  1  0.77188852  0.53571833  0.15329816  1
  H+  H126  1  0.78310632  0.87673280  0.58800796  1
  H+  H127  1  0.18760132  0.08473525  0.33772107  1
  H+  H128  1  0.45160163  0.54649072  0.60233812  1
  H+  H129  1  0.46722571  0.22385198  0.67780125  1
  H+  H130  1  0.54247165  0.41975809  0.40992014  1
  H+  H131  1  0.12252616  0.21340226  0.61113316  1
  H+  H132  1  0.17795467  0.37412877  0.99071125  1
  H+  H133  1  0.28293134  0.13109544  0.45355822  1
  H+  H134  1  0.11595068  0.50441228  -0.00359603  1
  H+  H135  1  0.10735582  0.54531068  0.61702745  1
  H+  H136  1  0.08627116  0.87499740  0.14641272  1
  H+  H137  1  0.11477149  0.89270518  0.64796308  1
  H+  H138  1  0.77146915  0.89204622  0.16594583  1
  H+  H139  1  0.49975764  0.30586645  0.76348592  1
  H+  H140  1  0.54518587  0.76967558  0.40825280  1
  H+  H141  1  0.23840835  0.43208858  0.41350596  1
  H+  H142  1  0.42193305  0.87910477  0.11017819  1
  H+  H143  1  0.85228594  1.05723450  0.00376268  1
  O2-  O144  1  0.10643812  0.21011345  0.21537819  1
  O2-  O145  1  0.10991906  0.22170030  0.72717369  1
  O2-  O146  1  0.09277858  0.56338662  0.19213271  1
  O2-  O147  1  0.11250277  0.56714811  0.72214367  1
  O2-  O148  1  0.08359989  0.87311814  0.21550853  1
  O2-  O149  1  0.11993465  0.89971688  0.71575402  1
  O2-  O150  1  0.42691342  0.20470634  0.22254306  1
  O2-  O151  1  0.46173993  0.22296260  0.74565973  1
  O2-  O152  1  0.44142130  0.55040857  0.21933767  1
  O2-  O153  1  0.43490228  0.54276277  0.71642629  1
  O2-  O154  1  0.44550051  0.89196300  0.22113445  1
  O2-  O155  1  0.44739132  0.89301679  0.73043106  1
  O2-  O156  1  0.78531612  0.24787277  0.20204314  1
  O2-  O157  1  0.78605759  0.22649658  0.73219244  1
  O2-  O158  1  0.77460723  0.55218260  0.21999812  1
  O2-  O159  1  0.78371310  0.57069527  0.71958208  1
  O2-  O160  1  0.76130310  0.88366650  0.23350927  1
  O2-  O161  1  0.78092169  0.89686821  0.71586130  1
  O2-  O162  1  0.19528367  0.08527700  0.27000454  1
  O2-  O163  1  0.22671401  0.11428302  0.78928407  1
  O2-  O164  1  0.23896736  0.42344063  0.29647453  1
  O2-  O165  1  0.21563185  0.44668101  0.77937120  1
  O2-  O166  1  0.21934922  0.77448976  0.28159936  1
  O2-  O167  1  0.22367846  0.78605761  0.78764183  1
  O2-  O168  1  0.56339217  0.11456590  0.27380802  1
  O2-  O169  1  0.55024209  0.09753321  0.80284356  1
  O2-  O170  1  0.54331680  0.42726882  0.28233018  1
  O2-  O171  1  0.55967061  0.45062874  0.78063104  1
  O2-  O172  1  0.53979111  0.76375433  0.28655651  1
  O2-  O173  1  0.54434369  0.76702584  0.76978718  1
  O2-  O174  1  0.87142648  0.12490805  0.23537093  1
  O2-  O175  1  0.89028890  0.11202402  0.79263636  1
  O2-  O176  1  0.88662602  0.45201258  0.28809836  1
  O2-  O177  1  0.90188912  0.46051721  0.77813708  1
  O2-  O178  1  0.88882118  0.76639609  0.27808275  1
  O2-  O179  1  0.89790079  0.79174899  0.77356814  1
  O2-  O180  1  0.19959147  0.09028418  0.45496997  1
  O2-  O181  1  0.21275954  0.10328483  0.97366103  1
  O2-  O182  1  0.23958701  0.43832403  0.48126451  1
  O2-  O183  1  0.20901782  0.45348403  0.96627483  1
  O2-  O184  1  0.20961364  0.75831217  0.47376547  1
  O2-  O185  1  0.19915108  0.76817344  0.97159481  1
  O2-  O186  1  0.57944407  0.13003458  0.46750294  1
  O2-  O187  1  0.53348185  0.07453485  0.96711679  1
  O2-  O188  1  0.54472190  0.42151863  0.47748078  1
  O2-  O189  1  0.57424306  0.48600442  0.96751315  1
  O2-  O190  1  0.55183891  0.77164240  0.47579165  1
  O2-  O191  1  0.56600453  0.82032427  0.97286206  1
  O2-  O192  1  0.92671940  0.17504133  0.44840158  1
  O2-  O193  1  0.89212861  0.13497887  0.97607930  1
  O2-  O194  1  0.88050212  0.45432910  0.47107140  1
  O2-  O195  1  0.84623079  0.37314803  0.99350277  1
  O2-  O196  1  0.88162884  0.76486615  0.45104839  1
  O2-  O197  1  0.88408974  0.79987185  0.96474557  1
  O2-  O198  1  0.11564541  0.23436512  0.03047597  1
  O2-  O199  1  0.13322412  0.21429513  0.54359991  1
  O2-  O200  1  0.06547998  0.53495071  0.01583735  1
  O2-  O201  1  0.09947299  0.52354157  0.54883366  1
  O2-  O202  1  0.09440378  0.88274409  0.03381204  1
  O2-  O203  1  0.09772364  0.87214625  0.52813542  1
  O2-  O204  1  0.43883309  0.18504913  0.04508137  1
  O2-  O205  1  0.44693915  0.21646104  0.56014259  1
  O2-  O206  1  0.44054135  0.58180473  0.02910841  1
  O2-  O207  1  0.45769591  0.54844908  0.53417414  1
  O2-  O208  1  0.41711337  0.87290303  0.04122589  1
  O2-  O209  1  0.43415501  0.86857148  0.55630167  1
  O2-  O210  1  0.79745606  0.25860203  0.03501681  1
  O2-  O211  1  0.77974485  0.23175629  0.55192690  1
  O2-  O212  1  0.76513130  0.49664120  0.03561747  1
  O2-  O213  1  0.76670769  0.55374207  0.53370691  1
  O2-  O214  1  0.78449142  0.91181239  0.04935499  1
  O2-  O215  1  0.77825685  0.86121168  0.52190067  1
