# generated using pymatgen
data_H2O
_symmetry_space_group_name_H-M   'P 1'
_cell_length_a   13.50270801
_cell_length_b   13.49811593
_cell_length_c   14.68658368
_cell_angle_alpha   89.97429315
_cell_angle_beta   89.96558903
_cell_angle_gamma   119.96469904
_symmetry_Int_Tables_number   1
_chemical_formula_structural   H2O
_chemical_formula_sum   'H144 O72'
_cell_volume   2318.99376455
_cell_formula_units_Z   72
loop_
 _symmetry_equiv_pos_site_id
 _symmetry_equiv_pos_as_xyz
  1  'x, y, z'
loop_
 _atom_type_symbol
 _atom_type_oxidation_number
  H+  1.0
  O2-  -2.0
loop_
 _atom_site_type_symbol
 _atom_site_label
 _atom_site_symmetry_multiplicity
 _atom_site_fract_x
 _atom_site_fract_y
 _atom_site_fract_z
 _atom_site_occupancy
  H+  H0  1  0.03012967  0.83361608  0.01373579  1
  H+  H1  1  0.62445219  0.47058096  0.28230519  1
  H+  H2  1  0.36900527  0.85322501  0.50543361  1
  H+  H3  1  0.20097133  0.37036114  0.25475461  1
  H+  H4  1  0.51595595  0.69114972  0.26796139  1
  H+  H5  1  0.16877076  0.52962762  0.24538021  1
  H+  H6  1  0.15615748  0.28598614  0.74542034  1
  H+  H7  1  0.02873368  0.50836246  0.01277995  1
  H+  H8  1  0.18882852  0.82437359  -0.00661931  1
  H+  H9  1  0.35655696  0.16570198  0.24683804  1
  H+  H10  1  0.86007459  0.36225319  0.47359157  1
  H+  H11  1  0.75710245  0.20500911  0.09253272  1
  H+  H12  1  0.81215412  -0.00067869  0.26790710  1
  H+  H13  1  0.15571122  0.63338016  0.49144056  1
  H+  H14  1  0.96212646  0.80215487  0.25554687  1
  H+  H15  1  0.97165165  0.14021370  0.75312185  1
  H+  H16  1  0.38288469  0.63719176  0.07952265  1
  H+  H17  1  0.63259221  0.15101977  -0.01504549  1
  H+  H18  1  0.51302334  0.69365809  0.48640159  1
  H+  H19  1  -0.03099483  0.80941959  0.48638369  1
  H+  H20  1  0.51459618  0.81411969  0.49293744  1
  H+  H21  1  0.48539780  0.50726637  0.25772728  1
  H+  H22  1  0.51683936  0.15872336  0.26991735  1
  H+  H23  1  0.53960352  0.83227831  0.98984043  1
  H+  H24  1  0.64900685  0.15137586  0.49248572  1
  H+  H25  1  0.15315653  0.84308861  0.23797697  1
  H+  H26  1  0.51116308  0.15053539  0.75828298  1
  H+  H27  1  0.34823828  0.15848412  0.01254604  1
  H+  H28  1  0.95481757  0.15327290  0.97792605  1
  H+  H29  1  0.06532303  0.20747043  0.20858104  1
  H+  H30  1  0.84883269  0.80523128  0.48772953  1
  H+  H31  1  0.14357078  0.29257507  0.51057683  1
  H+  H32  1  0.17472450  0.47328957  0.99103384  1
  H+  H33  1  0.49497499  0.45307827  -0.00375917  1
  H+  H34  1  0.17693226  0.46422387  0.75977452  1
  H+  H35  1  0.19374660  0.15909995  0.51550839  1
  H+  H36  1  0.69811292  0.83808312  0.51013305  1
  H+  H37  1  0.17961596  0.47766446  0.48299118  1
  H+  H38  1  0.30918528  0.13912623  0.75372768  1
  H+  H39  1  0.15489618  0.96409491  0.51861032  1
  H+  H40  1  0.79665832  0.61851111  0.24169691  1
  H+  H41  1  0.49045918  0.33296480  -0.00609111  1
  H+  H42  1  0.02874646  0.16870107  0.51276182  1
  H+  H43  1  0.85946021  0.36965852  0.76377467  1
  H+  H44  1  0.47762077  0.84000315  0.24652222  1
  H+  H45  1  0.79359929  0.60255827  0.01587790  1
  H+  H46  1  0.84764191  0.35635453  0.99541908  1
  H+  H47  1  0.36388510  0.84190098  0.74202006  1
  H+  H48  1  0.84239621  0.69379417  0.74810449  1
  H+  H49  1  0.92407786  0.11760716  0.27968091  1
  H+  H50  1  0.69699159  0.50684060  0.73765669  1
  H+  H51  1  0.26387631  0.13950942  0.43853995  1
  H+  H52  1  0.36835152  0.51118795  0.25720282  1
  H+  H53  1  0.19908330  0.72585209  0.82897688  1
  H+  H54  1  0.49348448  0.29372736  0.74550286  1
  H+  H55  1  0.10617116  0.53982619  0.62804646  1
  H+  H56  1  0.81975435  0.84220430  0.73610831  1
  H+  H57  1  0.81747435  0.51195734  0.74172747  1
  H+  H58  1  0.18824181  0.70633179  0.26111179  1
  H+  H59  1  0.30532488  0.82588174  0.25912620  1
  H+  H60  1  0.88581114  0.76398354  0.34600044  1
  H+  H61  1  1.03542060  0.51385084  0.48415128  1
  H+  H62  1  0.81110003  0.83688308  0.24706101  1
  H+  H63  1  0.49368113  -0.03034203  1.01014334  1
  H+  H64  1  0.03250362  0.50617575  0.72173590  1
  H+  H65  1  0.50815175  0.19410915  0.51409411  1
  H+  H66  1  0.68873882  0.83232648  0.24503365  1
  H+  H67  1  0.48477410  0.50610370  0.46707952  1
  H+  H68  1  0.37947434  0.84971345  0.01575536  1
  H+  H69  1  0.47080808  0.28757294  0.25491905  1
  H+  H70  1  0.71664596  0.18553481  0.73819903  1
  H+  H71  1  0.17732348  0.07770010  0.32355208  1
  H+  H72  1  0.42999380  0.20130721  0.10218605  1
  H+  H73  1  0.39635006  0.60026279  0.66249914  1
  H+  H74  1  0.50382000  0.01817917  0.76516584  1
  H+  H75  1  0.18896087  0.81754015  0.48910347  1
  H+  H76  1  0.82322178  0.17427231  0.51068724  1
  H+  H77  1  0.79128631  0.16540795  0.24233674  1
  H+  H78  1  0.29584759  0.47060157  0.48461292  1
  H+  H79  1  0.44631221  0.89233614  0.59572148  1
  H+  H80  1  0.80475060  0.17688151  -0.00039006  1
  H+  H81  1  0.52573164  0.03399833  0.49047437  1
  H+  H82  1  0.67545634  0.48244606  1.00863179  1
  H+  H83  1  0.72325019  0.85162116  1.00758671  1
  H+  H84  1  0.65070663  0.16487007  0.25927620  1
  H+  H85  1  0.14672451  0.83119543  0.73639670  1
  H+  H86  1  0.84371312  0.47111082  0.99945017  1
  H+  H87  1  0.35210277  0.51209001  0.74104102  1
  H+  H88  1  0.50710865  0.46871748  0.76018431  1
  H+  H89  1  0.29505612  0.48163194  0.99993337  1
  H+  H90  1  0.83347815  0.18451138  0.73457209  1
  H+  H91  1  0.80069557  0.29407380  0.23657318  1
  H+  H92  1  0.53455795  0.71384322  0.99337387  1
  H+  H93  1  0.14826875  0.62441938  0.00479875  1
  H+  H94  1  0.84950991  0.02503806  0.74908255  1
  H+  H95  1  0.14955176  0.29111085  0.99004885  1
  H+  H96  1  0.16545336  0.17917688  0.21838679  1
  H+  H97  1  0.16865088  0.00549967  0.23706029  1
  H+  H98  1  0.82228150  0.61862121  0.50194252  1
  H+  H99  1  0.84608454  0.01381589  0.50287081  1
  H+  H100  1  0.50739588  0.14325298  0.98784247  1
  H+  H101  1  0.81908673  0.45711248  0.24726186  1
  H+  H102  1  0.51586860  0.70412938  0.76238778  1
  H+  H103  1  0.77694131  0.87489880  0.59989010  1
  H+  H104  1  0.54201456  0.37411993  0.43320612  1
  H+  H105  1  0.18048880  0.67254300  0.73158232  1
  H+  H106  1  0.70281590  0.84798950  0.73783209  1
  H+  H107  1  0.48797497  0.85299013  0.74667744  1
  H+  H108  1  0.15544414  0.95433560  0.74022832  1
  H+  H109  1  0.23120927  0.78723047  0.39676527  1
  H+  H110  1  0.22332736  0.09544945  0.89503415  1
  H+  H111  1  0.12493490  0.56426189  0.15783244  1
  H+  H112  1  0.18984476  0.13830786  0.75426786  1
  H+  H113  1  0.10888219  0.87593678  0.60010642  1
  H+  H114  1  0.44798818  0.88590475  0.15776514  1
  H+  H115  1  0.11620366  0.21253542  0.65355107  1
  H+  H116  1  0.56460887  0.78467104  0.85040637  1
  H+  H117  1  0.53977689  0.42778142  0.85122174  1
  H+  H118  1  0.85567499  0.47812793  0.47538706  1
  H+  H119  1  0.22197947  0.43444499  0.35166367  1
  H+  H120  1  0.74344123  0.53298785  0.15573429  1
  H+  H121  1  0.87656590  0.42720544  0.32929154  1
  H+  H122  1  0.56872375  0.12497240  0.36296142  1
  H+  H123  1  0.11146455  0.87647399  0.14445018  1
  H+  H124  1  0.22115217  0.43546988  0.85317498  1
  H+  H125  1  0.78532955  0.88079021  0.10320008  1
  H+  H126  1  0.11787102  0.21285795  0.07577505  1
  H+  H127  1  0.54766826  0.10646247  0.86061955  1
  H+  H128  1  0.89128530  0.73895603  0.09005275  1
  H+  H129  1  0.39435026  0.20087191  0.52881209  1
  H+  H130  1  0.14548475  0.95872342  0.00286640  1
  H+  H131  1  0.17517929  0.13691517  -0.02245401  1
  H+  H132  1  0.79033860  0.22791983  0.59377284  1
  H+  H133  1  0.47248143  0.22548718  0.65094266  1
  H+  H134  1  0.43709520  0.57102486  0.12344744  1
  H+  H135  1  0.55712759  0.77702763  0.35250504  1
  H+  H136  1  0.96037750  0.80980692  0.75152339  1
  H+  H137  1  0.78423415  0.53915724  0.58878704  1
  H+  H138  1  0.84809451  0.79897978  1.02220991  1
  H+  H139  1  0.87868880  0.11871045  0.88924413  1
  H+  H140  1  0.27250903  0.84719741  0.91278065  1
  H+  H141  1  0.89720146  0.44826780  0.85224087  1
  H+  H142  1  0.87056805  0.08818332  0.41328569  1
  H+  H143  1  0.46016318  0.52596611  0.56880082  1
  O2-  O144  1  0.14553934  0.23671594  0.19392773  1
  O2-  O145  1  0.11810264  0.20640533  0.72133845  1
  O2-  O146  1  0.13516730  0.57584233  0.22416322  1
  O2-  O147  1  0.11124138  0.53785154  0.69642573  1
  O2-  O148  1  0.10816819  0.87957502  0.21248431  1
  O2-  O149  1  0.11021187  0.87507913  0.71556000  1
  O2-  O150  1  0.43826967  0.20977543  0.22778472  1
  O2-  O151  1  0.46194645  0.21447935  0.71966703  1
  O2-  O152  1  0.44966855  0.55080439  0.23342056  1
  O2-  O153  1  0.42427954  0.56560093  0.70646412  1
  O2-  O154  1  0.43676848  0.87931627  0.22436282  1
  O2-  O155  1  0.44609963  0.89369920  0.72608270  1
  O2-  O156  1  0.75331995  0.20646074  0.21698616  1
  O2-  O157  1  0.79501703  0.22945547  0.71528275  1
  O2-  O158  1  0.74619075  0.53684078  0.22371183  1
  O2-  O159  1  0.77568333  0.54738390  0.71320345  1
  O2-  O160  1  0.77116602  0.87784869  0.22473657  1
  O2-  O161  1  0.78143729  0.88651398  0.71252991  1
  O2-  O162  1  0.20628477  0.08927250  0.26133064  1
  O2-  O163  1  0.22976960  0.09704064  0.77710282  1
  O2-  O164  1  0.23401846  0.44629836  0.28401214  1
  O2-  O165  1  0.22195537  0.43051712  0.78488566  1
  O2-  O166  1  0.22352201  0.78874728  0.28206936  1
  O2-  O167  1  0.21783021  0.74852573  0.76520209  1
  O2-  O168  1  0.56703221  0.12823100  0.29311725  1
  O2-  O169  1  0.54618703  0.10223905  0.78789994  1
  O2-  O170  1  0.54216898  0.42550191  0.30641801  1
  O2-  O171  1  0.54545846  0.42853610  0.78327175  1
  O2-  O172  1  0.55668009  0.77402101  0.28439029  1
  O2-  O173  1  0.55757987  0.78513812  0.78216186  1
  O2-  O174  1  0.84313875  0.08013635  0.29409698  1
  O2-  O175  1  0.88946751  0.10709753  0.76957076  1
  O2-  O176  1  0.85788858  0.41347155  0.26306173  1
  O2-  O177  1  0.89962575  0.45080768  0.78429647  1
  O2-  O178  1  0.88152039  0.76249421  0.27732752  1
  O2-  O179  1  0.87941641  0.77400110  0.77026748  1
  O2-  O180  1  0.24389129  0.12431264  0.50274816  1
  O2-  O181  1  0.21763073  0.09494014  0.96311009  1
  O2-  O182  1  0.21427334  0.42905244  0.46563886  1
  O2-  O183  1  0.22000538  0.43706808  0.96915563  1
  O2-  O184  1  0.23317077  0.78179595  0.46524709  1
  O2-  O185  1  0.23966530  0.79647035  0.96519560  1
  O2-  O186  1  0.56768924  0.11565655  0.46938646  1
  O2-  O187  1  0.55059490  0.10834587  0.95946130  1
  O2-  O188  1  0.55427673  0.44651495  0.40555608  1
  O2-  O189  1  0.53155745  0.41370532  0.96884679  1
  O2-  O190  1  0.55646901  0.77572292  0.46941277  1
  O2-  O191  1  0.57709249  0.79008859  0.96470637  1
  O2-  O192  1  0.88633809  0.09539670  0.47973915  1
  O2-  O193  1  0.87682252  0.12854383  0.95611021  1
  O2-  O194  1  0.89796533  0.44066405  0.44768881  1
  O2-  O195  1  0.89098376  0.43847439  0.97628543  1
  O2-  O196  1  0.89007793  0.76782021  0.46111176  1
  O2-  O197  1  0.88660425  0.74869875  1.02465043  1
  O2-  O198  1  0.10912670  0.20891804  0.00871894  1
  O2-  O199  1  0.10944444  0.21304142  0.53562029  1
  O2-  O200  1  0.11201973  0.54693595  0.03021321  1
  O2-  O201  1  0.11459951  0.55152536  0.51138418  1
  O2-  O202  1  0.11403187  0.87942448  0.02842667  1
  O2-  O203  1  0.11229465  0.88125222  0.53177596  1
  O2-  O204  1  0.43007572  0.20039925  0.03444750  1
  O2-  O205  1  0.47801938  0.24249330  0.53988362  1
  O2-  O206  1  0.41777079  0.59150637  0.06226255  1
  O2-  O207  1  0.44678179  0.53869024  0.50542176  1
  O2-  O208  1  0.46130994  0.89024221  0.03371185  1
  O2-  O209  1  0.45041060  0.89334479  0.52845714  1
  O2-  O210  1  0.75806284  0.21193750  0.02517985  1
  O2-  O211  1  0.78489641  0.21937872  0.52623269  1
  O2-  O212  1  0.75296000  0.52095841  0.03628164  1
  O2-  O213  1  0.78793952  0.53785929  0.52148052  1
  O2-  O214  1  0.79789604  0.87671735  0.03707906  1
  O2-  O215  1  0.77908212  0.87583036  0.53108368  1
