# generated using pymatgen
data_H2O
_symmetry_space_group_name_H-M   'P 1'
_cell_length_a   13.49403167
_cell_length_b   13.49715279
_cell_length_c   14.68559038
_cell_angle_alpha   89.99710531
_cell_angle_beta   90.01796638
_cell_angle_gamma   119.92369180
_symmetry_Int_Tables_number   1
_chemical_formula_structural   H2O
_chemical_formula_sum   'H144 O72'
_cell_volume   2318.13826972
_cell_formula_units_Z   72
loop_
 _symmetry_equiv_pos_site_id
 _symmetry_equiv_pos_as_xyz
  1  'x, y, z'
loop_
 _atom_type_symbol
 _atom_type_oxidation_number
  H+  1.0
  O2-  -2.0
loop_
 _atom_site_type_symbol
 _atom_site_label
 _atom_site_symmetry_multiplicity
 _atom_site_fract_x
 _atom_site_fract_y
 _atom_site_fract_z
 _atom_site_occupancy
  H+  H0  1  0.44837661  0.58163615  0.52589562  1
  H+  H1  1  0.51726048  0.14351133  0.74742307  1
  H+  H2  1  0.80838900  0.29377515  0.24518774  1
  H+  H3  1  0.85457992  0.69688482  0.25310312  1
  H+  H4  1  0.44565011  0.68227038  0.44819540  1
  H+  H5  1  0.07449268  0.84128025  0.02551198  1
  H+  H6  1  0.81979246  0.29799528  0.50296460  1
  H+  H7  1  0.63819272  0.15432256  0.48924925  1
  H+  H8  1  0.85673305  0.48047650  0.48765835  1
  H+  H9  1  0.29960427  0.80730597  0.25973191  1
  H+  H10  1  0.71920241  0.87918387  0.49565347  1
  H+  H11  1  0.54180931  0.77527941  0.87976348  1
  H+  H12  1  0.50267158  0.98567950  0.72998958  1
  H+  H13  1  0.88480048  0.76532160  0.39330557  1
  H+  H14  1  0.27478301  0.45065083  0.50558702  1
  H+  H15  1  0.31547400  0.83182025  0.76854153  1
  H+  H16  1  0.51211796  0.15290720  0.25873160  1
  H+  H17  1  0.13267349  -0.04798008  0.51188313  1
  H+  H18  1  0.03969025  0.54292641  0.73909678  1
  H+  H19  1  0.34478908  0.47781307  1.02810003  1
  H+  H20  1  0.56909152  0.80820195  0.98121718  1
  H+  H21  1  0.68818399  0.53768929  0.74690760  1
  H+  H22  1  0.82399299  0.86857430  0.73861509  1
  H+  H23  1  0.95962803  0.14285361  0.25726090  1
  H+  H24  1  0.53128760  0.36789618  0.49609387  1
  H+  H25  1  0.50030104  0.47413427  0.76557689  1
  H+  H26  1  0.84131316  0.68546007  0.48155597  1
  H+  H27  1  0.49646143  0.67532637  0.43602090  1
  H+  H28  1  0.39399568  0.20785209  0.47022698  1
  H+  H29  1  0.85212886  0.81523434  0.25368065  1
  H+  H30  1  0.49829588  0.97276360  0.02127761  1
  H+  H31  1  0.16793504  0.47136472  0.50379797  1
  H+  H32  1  0.81888772  0.68736449  0.99029260  1
  H+  H33  1  0.15271210  0.63905879  0.50537113  1
  H+  H34  1  0.34178808  0.20206832  0.24445605  1
  H+  H35  1  0.83904058  0.14080258  0.26024693  1
  H+  H36  1  0.50249194  0.85342959  0.72139219  1
  H+  H37  1  0.13767455  0.16941390  0.24395002  1
  H+  H38  1  0.51546860  0.54070184  0.25182614  1
  H+  H39  1  0.47306846  0.96135341  0.25036111  1
  H+  H40  1  0.87586847  1.05848503  0.75064956  1
  H+  H41  1  0.16330557  0.46531355  0.98486653  1
  H+  H42  1  0.81193002  0.17545114  0.50297433  1
  H+  H43  1  0.21632674  0.81461238  1.01004023  1
  H+  H44  1  1.01388286  0.16543746  0.50581837  1
  H+  H45  1  0.77854816  0.21630371  0.15771168  1
  H+  H46  1  0.15296351  0.84764664  0.74597914  1
  H+  H47  1  0.85772695  0.19758836  0.01609995  1
  H+  H48  1  0.16418920  0.34629200  -0.01429586  1
  H+  H49  1  0.74276078  0.43088327  0.58501247  1
  H+  H50  1  0.63686304  0.14231834  0.74794732  1
  H+  H51  1  0.97540995  0.48401740  0.48518015  1
  H+  H52  1  0.15300028  0.34915299  0.26758939  1
  H+  H53  1  0.52561034  0.37849766  0.27402496  1
  H+  H54  1  0.02599381  0.16619329  0.00700763  1
  H+  H55  1  0.75909874  0.84154307  -0.00138611  1
  H+  H56  1  0.10473802  0.54589708  0.15171154  1
  H+  H57  1  0.82606321  0.51520739  0.23417896  1
  H+  H58  1  0.55618466  0.87790038  0.46775378  1
  H+  H59  1  0.77570357  0.55677792  0.09707180  1
  H+  H60  1  0.18407191  0.81661244  0.48749105  1
  H+  H61  1  0.84640155  0.35091016  0.75446893  1
  H+  H62  1  0.19779643  1.03373306  -0.00087855  1
  H+  H63  1  0.98292925  0.18994656  0.76315263  1
  H+  H64  1  0.49297684  0.18289716  0.49944764  1
  H+  H65  1  0.11158181  0.56810613  0.59774668  1
  H+  H66  1  0.30899130  0.14141378  0.76858263  1
  H+  H67  1  0.47360692  0.48089914  0.52597381  1
  H+  H68  1  0.90328973  0.81985220  1.00901749  1
  H+  H69  1  0.15259510  0.62430095  0.00979354  1
  H+  H70  1  0.18331423  0.02591589  0.27318772  1
  H+  H71  1  0.44423375  0.22169630  0.09243383  1
  H+  H72  1  0.52280049  0.82401018  0.24907977  1
  H+  H73  1  0.64615545  0.48478528  0.51192760  1
  H+  H74  1  0.82037366  0.96258440  0.23556584  1
  H+  H75  1  0.84898810  0.03198952  0.48880748  1
  H+  H76  1  0.19961720  0.71309242  0.76755536  1
  H+  H77  1  0.81147431  0.51870145  0.00484189  1
  H+  H78  1  0.51581238  0.70475683  0.73693515  1
  H+  H79  1  0.36598090  0.18011092  0.00444332  1
  H+  H80  1  0.25648615  0.11953679  0.52971614  1
  H+  H81  1  1.02491798  0.51652167  1.00478147  1
  H+  H82  1  0.83332128  0.02719897  0.98595158  1
  H+  H83  1  0.36295510  0.85479274  0.50771190  1
  H+  H84  1  0.63151609  0.48160754  -0.01186596  1
  H+  H85  1  0.51494091  0.14230674  -0.01442408  1
  H+  H86  1  0.39757633  0.84322464  0.02219327  1
  H+  H87  1  0.47956398  0.97946232  0.50939481  1
  H+  H88  1  0.15115808  0.13778985  0.50171616  1
  H+  H89  1  0.03655833  0.84559683  0.24758566  1
  H+  H90  1  0.38834527  0.31062566  0.18116406  1
  H+  H91  1  0.62991744  0.15203482  0.25788258  1
  H+  H92  1  0.71066258  0.51934943  0.24194747  1
  H+  H93  1  0.88831653  0.11220178  0.89812257  1
  H+  H94  1  0.13454557  0.50215507  0.24562045  1
  H+  H95  1  0.96458631  0.47553435  0.25180870  1
  H+  H96  1  0.15463776  0.84183742  0.25322929  1
  H+  H97  1  0.45964567  0.47457447  0.02511838  1
  H+  H98  1  0.02281027  0.82840001  0.50921928  1
  H+  H99  1  0.18924285  1.02574524  0.76641625  1
  H+  H100  1  0.82053027  0.84785526  0.50449121  1
  H+  H101  1  0.81722497  0.18005225  0.73504311  1
  H+  H102  1  0.70171405  0.84644701  0.23304390  1
  H+  H103  1  0.51837006  0.35831478  0.98523022  1
  H+  H104  1  0.44590016  0.89096086  0.15677304  1
  H+  H105  1  0.13178732  0.28026294  0.51815347  1
  H+  H106  1  0.85408343  0.37216516  0.99415438  1
  H+  H107  1  0.97125976  0.82965597  0.76479925  1
  H+  H108  1  0.14874320  0.17321846  0.00885257  1
  H+  H109  1  0.53046055  0.70803402  0.25546127  1
  H+  H110  1  0.60145069  0.84837378  0.37666042  1
  H+  H111  1  0.14667597  0.52684278  0.73748308  1
  H+  H112  1  0.22816787  0.10504655  0.90479039  1
  H+  H113  1  0.17854302  0.68765328  0.26002742  1
  H+  H114  1  0.80678233  0.66159970  0.74308860  1
  H+  H115  1  0.55039986  0.43749823  0.84898355  1
  H+  H116  1  0.18665801  0.42335171  0.35859225  1
  H+  H117  1  0.21281719  0.10459629  0.36207191  1
  H+  H118  1  0.93210243  0.30250018  0.07838151  1
  H+  H119  1  0.18608389  0.41509248  0.84852844  1
  H+  H120  1  0.13749516  0.89223695  0.11945508  1
  H+  H121  1  0.78945639  0.90403627  0.64508692  1
  H+  H122  1  0.44684241  0.22444923  0.65016519  1
  H+  H123  1  0.75910376  0.89353216  0.09461950  1
  H+  H124  1  0.88760730  0.43876598  0.34182998  1
  H+  H125  1  0.88350041  0.79284653  0.85010496  1
  H+  H126  1  0.77408973  0.21383021  0.64333662  1
  H+  H127  1  0.64094150  0.82502032  0.73330485  1
  H+  H128  1  0.10285651  0.20774163  0.15085864  1
  H+  H129  1  0.24230274  0.77732148  0.91466587  1
  H+  H130  1  0.58029581  0.45647361  0.36289929  1
  H+  H131  1  0.87787076  0.43880640  0.89963432  1
  H+  H132  1  0.95895682  0.38894594  0.80422573  1
  H+  H133  1  0.42037223  0.52583643  0.66363450  1
  H+  H134  1  0.34585248  0.50468178  0.75167366  1
  H+  H135  1  0.45013452  0.89903656  0.63193066  1
  H+  H136  1  0.10786128  0.87717312  0.65438484  1
  H+  H137  1  0.55613234  0.11493017  0.40040734  1
  H+  H138  1  0.49001585  0.30207950  0.73974432  1
  H+  H139  1  0.77378096  0.54938061  0.62809782  1
  H+  H140  1  0.87964955  0.10594974  0.39725387  1
  H+  H141  1  0.44814808  0.54912079  0.16694138  1
  H+  H142  1  0.22669834  0.77657553  0.39908381  1
  H+  H143  1  0.54860244  0.09518942  0.89962339  1
  O2-  O144  1  0.09648618  0.20706283  0.21884142  1
  O2-  O145  1  0.11606064  0.31362147  0.74255992  1
  O2-  O146  1  0.10035075  0.54872472  0.21931902  1
  O2-  O147  1  0.11986557  0.58045759  0.71766353  1
  O2-  O148  1  0.11948440  0.88786197  0.23004893  1
  O2-  O149  1  0.10875108  0.88303589  0.72210322  1
  O2-  O150  1  0.41213203  0.26107911  0.21143428  1
  O2-  O151  1  0.45451329  0.22100948  0.71654055  1
  O2-  O152  1  0.47313331  0.57794414  0.23012226  1
  O2-  O153  1  0.42598534  0.54510931  0.72987758  1
  O2-  O154  1  0.43533594  0.88246619  0.22650027  1
  O2-  O155  1  0.45968916  0.89944358  0.70399969  1
  O2-  O156  1  0.76452537  0.21168308  0.22457541  1
  O2-  O157  1  0.76970309  0.21330451  0.71151428  1
  O2-  O158  1  0.78830391  0.55910513  0.21303084  1
  O2-  O159  1  0.76684722  0.58097524  0.72098838  1
  O2-  O160  1  0.78361826  0.88332767  0.21035232  1
  O2-  O161  1  0.78389631  0.90803656  0.71305075  1
  O2-  O162  1  0.21740992  0.10698551  0.29442856  1
  O2-  O163  1  0.23200751  0.10165681  0.79609591  1
  O2-  O164  1  0.18167529  0.42722985  0.29151344  1
  O2-  O165  1  0.18410749  0.42471057  0.77927826  1
  O2-  O166  1  0.21886751  0.76793340  0.28421785  1
  O2-  O167  1  0.23752581  0.79204443  0.79379714  1
  O2-  O168  1  0.55027933  0.11440035  0.28497618  1
  O2-  O169  1  0.55363561  0.09728163  0.76655265  1
  O2-  O170  1  0.58253800  0.45618370  0.29503343  1
  O2-  O171  1  0.54776758  0.43849556  0.78031827  1
  O2-  O172  1  0.57205715  0.79317742  0.27116349  1
  O2-  O173  1  0.55648445  0.78901874  0.74678764  1
  O2-  O174  1  0.87940227  0.10011920  0.28148989  1
  O2-  O175  1  0.90172874  0.13409773  0.77976483  1
  O2-  O176  1  0.88259674  0.43456641  0.27402097  1
  O2-  O177  1  0.90839629  0.41858908  0.78774027  1
  O2-  O178  1  0.89350771  0.77637030  0.27901141  1
  O2-  O179  1  0.88939887  0.79829201  0.78258755  1
  O2-  O180  1  0.19723395  0.09515253  0.48323047  1
  O2-  O181  1  0.22893980  0.11185274  0.97411045  1
  O2-  O182  1  0.19645492  0.42042256  0.48141505  1
  O2-  O183  1  0.20044958  0.42413947  0.95769618  1
  O2-  O184  1  0.22964517  0.78024849  0.46766947  1
  O2-  O185  1  0.24145120  0.76432199  0.98141492  1
  O2-  O186  1  0.55565530  0.11575287  0.46878026  1
  O2-  O187  1  0.55343863  0.09942888  0.96637437  1
  O2-  O188  1  0.56948991  0.45118039  0.48115505  1
  O2-  O189  1  0.55276252  0.43849461  0.96235796  1
  O2-  O190  1  0.62552006  0.89131581  0.43575617  1
  O2-  O191  1  0.51825823  0.74492134  0.94135766  1
  O2-  O192  1  0.88060599  0.11177781  0.46543412  1
  O2-  O193  1  0.88769339  0.10857949  0.96593798  1
  O2-  O194  1  0.89487216  0.44088180  0.46105369  1
  O2-  O195  1  0.87863381  0.44877726  0.96694435  1
  O2-  O196  1  0.88478135  0.76506325  0.46218638  1
  O2-  O197  1  0.84679375  0.76751125  0.96587621  1
  O2-  O198  1  0.10505725  0.20976180  0.03269629  1
  O2-  O199  1  0.09258709  0.19673984  0.53146480  1
  O2-  O200  1  0.10272851  0.54290682  0.02985433  1
  O2-  O201  1  0.10878273  0.55949230  0.53026198  1
  O2-  O202  1  0.14921052  0.89402729  0.05098830  1
  O2-  O203  1  0.10286918  0.87139089  0.53258570  1
  O2-  O204  1  0.44813324  0.21884811  0.02560462  1
  O2-  O205  1  0.45114018  0.22559994  0.51781350  1
  O2-  O206  1  0.40103090  0.47215888  0.06720836  1
  O2-  O207  1  0.41822756  0.50419061  0.54991353  1
  O2-  O208  1  0.46794469  0.89817982  0.05428050  1
  O2-  O209  1  0.44277686  0.89953927  0.53406774  1
  O2-  O210  1  0.85498607  0.25987419  0.05322839  1
  O2-  O211  1  0.77314855  0.21832945  0.52652507  1
  O2-  O212  1  0.77117173  0.55864574  0.02893344  1
  O2-  O213  1  0.76721809  0.50860712  0.56452250  1
  O2-  O214  1  0.74650600  0.89978126  0.02816217  1
  O2-  O215  1  0.79086145  0.89574220  0.53036429  1
