# generated using pymatgen
data_H2O
_symmetry_space_group_name_H-M   'P 1'
_cell_length_a   13.50855200
_cell_length_b   13.51132904
_cell_length_c   14.69494936
_cell_angle_alpha   90.00581023
_cell_angle_beta   90.09659844
_cell_angle_gamma   119.98811241
_symmetry_Int_Tables_number   1
_chemical_formula_structural   H2O
_chemical_formula_sum   'H144 O72'
_cell_volume   2323.04022570
_cell_formula_units_Z   72
loop_
 _symmetry_equiv_pos_site_id
 _symmetry_equiv_pos_as_xyz
  1  'x, y, z'
loop_
 _atom_type_symbol
 _atom_type_oxidation_number
  H+  1.0
  O2-  -2.0
loop_
 _atom_site_type_symbol
 _atom_site_label
 _atom_site_symmetry_multiplicity
 _atom_site_fract_x
 _atom_site_fract_y
 _atom_site_fract_z
 _atom_site_occupancy
  H+  H0  1  0.48476301  0.95113336  0.51322076  1
  H+  H1  1  0.82950315  0.56178831  0.25208723  1
  H+  H2  1  0.47637872  0.29296886  0.27126242  1
  H+  H3  1  0.44276782  0.22269480  0.65380365  1
  H+  H4  1  0.63635042  0.15120016  0.76755353  1
  H+  H5  1  0.50990458  0.47457140  0.75985435  1
  H+  H6  1  0.85066871  0.36743239  0.47710132  1
  H+  H7  1  0.50940766  0.31987479  -0.00387554  1
  H+  H8  1  0.84350182  0.36275095  0.77855153  1
  H+  H9  1  0.87716339  0.02002782  0.98999819  1
  H+  H10  1  0.64291620  0.46975467  -0.00874673  1
  H+  H11  1  0.35319206  0.50864826  0.25225701  1
  H+  H12  1  0.94750528  0.49933717  0.25910048  1
  H+  H13  1  0.16157752  0.12631704  0.26646111  1
  H+  H14  1  0.80501521  0.81903757  0.01703491  1
  H+  H15  1  0.15432444  0.51490210  0.51587142  1
  H+  H16  1  0.10035547  0.28470326  0.50013070  1
  H+  H17  1  0.36018569  0.17219408  0.27238773  1
  H+  H18  1  0.81543795  0.95365289  0.49951142  1
  H+  H19  1  0.78128838  0.56859547  0.10022323  1
  H+  H20  1  0.52465480  1.04374573  -0.00099984  1
  H+  H21  1  0.84598188  0.80737043  0.75572075  1
  H+  H22  1  0.19831414  0.03434400  0.99495589  1
  H+  H23  1  -0.02966767  0.48437914  0.48738385  1
  H+  H24  1  0.18633882  0.69543449  0.49729708  1
  H+  H25  1  0.52705929  1.03352754  0.27866838  1
  H+  H26  1  0.51136587  0.48715732  0.26258464  1
  H+  H27  1  0.10048267  0.54407719  0.16555472  1
  H+  H28  1  0.23965282  0.48494962  0.81740963  1
  H+  H29  1  0.79769495  0.22992168  0.67022656  1
  H+  H30  1  0.82105044  0.83775448  0.50541629  1
  H+  H31  1  0.25809724  0.38832142  0.48105058  1
  H+  H32  1  0.64983336  0.82072323  0.49333711  1
  H+  H33  1  0.50481236  0.81340481  0.26609346  1
  H+  H34  1  0.03507489  0.84335556  0.50983879  1
  H+  H35  1  0.15294495  0.28718460  0.03244799  1
  H+  H36  1  1.01979343  0.51247121  0.74349654  1
  H+  H37  1  0.81850112  0.52074731  0.50422116  1
  H+  H38  1  0.85779471  0.86828331  1.03763398  1
  H+  H39  1  0.85048766  0.69062143  0.48871704  1
  H+  H40  1  0.51302340  0.37910085  0.48978887  1
  H+  H41  1  0.09713769  0.86542960  0.15493757  1
  H+  H42  1  0.48679088  0.84931472  0.75470052  1
  H+  H43  1  1.03241120  0.83221654  0.99851802  1
  H+  H44  1  0.36859429  0.50288539  0.72790228  1
  H+  H45  1  0.51630012  0.67568411  0.49129736  1
  H+  H46  1  0.50231417  0.18472346  1.00683062  1
  H+  H47  1  0.46632335  0.73536539  0.94670762  1
  H+  H48  1  0.36836923  0.84829472  0.76718676  1
  H+  H49  1  0.03963789  0.93391481  0.05618743  1
  H+  H50  1  0.71987436  0.19358636  0.40832792  1
  H+  H51  1  0.52307504  0.09070026  0.40202915  1
  H+  H52  1  0.59033717  0.79412511  0.98619780  1
  H+  H53  1  0.21945396  0.76879311  0.35835944  1
  H+  H54  1  0.80136791  0.49961418  0.76781929  1
  H+  H55  1  0.52476811  0.82212136  0.49521921  1
  H+  H56  1  0.66642386  0.49280635  0.76035185  1
  H+  H57  1  0.14108047  0.61958019  0.25567475  1
  H+  H58  1  0.17877085  0.14215577  0.48589399  1
  H+  H59  1  0.15954214  0.00575291  0.26570380  1
  H+  H60  1  0.15219726  0.96260466  0.51266089  1
  H+  H61  1  0.01016456  0.80825388  0.23572555  1
  H+  H62  1  0.38428786  0.85439472  0.01936143  1
  H+  H63  1  0.48014138  0.19562787  0.51097182  1
  H+  H64  1  0.20578039  0.41066921  0.93750309  1
  H+  H65  1  0.40695872  0.03488797  0.45712322  1
  H+  H66  1  0.70320992  0.52564262  0.50244897  1
  H+  H67  1  0.70880709  0.98212660  0.04048831  1
  H+  H68  1  0.83462125  0.18391729  0.75553327  1
  H+  H69  1  0.17358079  0.79888227  0.26726458  1
  H+  H70  1  0.14446152  0.50383921  0.02886478  1
  H+  H71  1  0.79497090  0.94456652  0.22961195  1
  H+  H72  1  0.99005746  0.16448110  0.77005085  1
  H+  H73  1  0.88760226  0.76552820  0.39838189  1
  H+  H74  1  0.38518150  0.54540245  0.49183345  1
  H+  H75  1  0.51254203  0.35332136  0.75806205  1
  H+  H76  1  0.96588381  0.47576253  1.00909422  1
  H+  H77  1  0.82389071  0.12470890  0.46170093  1
  H+  H78  1  0.16456472  0.17457694  1.02064041  1
  H+  H79  1  0.82981464  0.97146386  0.73887348  1
  H+  H80  1  0.81511507  0.50185051  0.02662854  1
  H+  H81  1  0.48950416  0.61891482  0.73143323  1
  H+  H82  1  0.46903602  0.59469237  0.01498929  1
  H+  H83  1  0.29582730  0.46763782  0.02065588  1
  H+  H84  1  0.17182915  0.35305410  0.26731314  1
  H+  H85  1  0.36504435  0.19676371  0.51109255  1
  H+  H86  1  0.37816632  0.18319598  0.00546192  1
  H+  H87  1  0.80115263  0.62317550  0.75203122  1
  H+  H88  1  0.29659088  0.14960325  0.76674608  1
  H+  H89  1  0.21793412  0.09781914  0.40132181  1
  H+  H90  1  0.68923504  0.17439326  0.50998221  1
  H+  H91  1  0.14435550  0.96246428  0.74796346  1
  H+  H92  1  0.17454656  0.35548294  0.76373775  1
  H+  H93  1  0.48318242  0.17973025  0.74206243  1
  H+  H94  1  0.64241564  0.81106061  0.74385217  1
  H+  H95  1  0.37393097  0.83038449  0.51188446  1
  H+  H96  1  0.15343220  0.62601992  0.02067087  1
  H+  H97  1  0.71198653  0.17407063  0.02759229  1
  H+  H98  1  -0.05626003  0.12816320  0.46365781  1
  H+  H99  1  0.35934419  0.84553040  0.25760702  1
  H+  H100  1  0.50212546  0.53236410  0.49166629  1
  H+  H101  1  0.98435473  0.14187698  1.00182204  1
  H+  H102  1  0.51582265  0.89239306  0.05015096  1
  H+  H103  1  0.20220011  0.81002451  0.99773346  1
  H+  H104  1  0.19046320  0.81566864  0.49926851  1
  H+  H105  1  0.13571593  0.50745880  0.73115165  1
  H+  H106  1  0.82969709  0.17236947  1.02120464  1
  H+  H107  1  0.88386507  0.66943108  0.97486318  1
  H+  H108  1  0.11227151  0.20969802  0.16217859  1
  H+  H109  1  0.10339808  0.55076888  0.59987027  1
  H+  H110  1  0.05889315  0.19048941  0.57478767  1
  H+  H111  1  0.55570205  0.45367904  0.39662314  1
  H+  H112  1  0.52591209  0.15089166  0.28495334  1
  H+  H113  1  0.22848160  0.44302577  0.39569595  1
  H+  H114  1  0.56218778  0.75366844  0.82897017  1
  H+  H115  1  0.79133984  0.89257261  0.64900579  1
  H+  H116  1  0.17408410  0.69063606  0.76516083  1
  H+  H117  1  0.51726307  0.03279391  0.77598034  1
  H+  H118  1  0.43939637  0.89749783  0.17042912  1
  H+  H119  1  1.02238422  0.17584997  0.24181438  1
  H+  H120  1  0.69145857  0.88909942  0.11545072  1
  H+  H121  1  0.86819496  0.09141579  0.32839872  1
  H+  H122  1  0.85209986  0.35391258  1.01308114  1
  H+  H123  1  0.23534107  0.11268702  0.90538717  1
  H+  H124  1  0.42951149  0.53931195  0.11451768  1
  H+  H125  1  0.11364503  0.88716141  0.65697765  1
  H+  H126  1  0.18309950  0.15847892  0.78406788  1
  H+  H127  1  0.67481043  0.83010115  0.24183209  1
  H+  H128  1  0.88215467  0.44036461  0.86809941  1
  H+  H129  1  0.47091704  0.62982783  0.25132487  1
  H+  H130  1  0.63670083  0.50359653  0.26284647  1
  H+  H131  1  0.89994240  0.10991098  0.85100672  1
  H+  H132  1  0.96078162  0.80102277  0.74907003  1
  H+  H133  1  0.87349132  0.47002604  0.34779921  1
  H+  H134  1  0.81039072  0.75981767  0.23358651  1
  H+  H135  1  0.23058373  0.76825905  0.90652511  1
  H+  H136  1  0.14312890  0.23577313  0.69322120  1
  H+  H137  1  0.16541391  0.47016146  0.26844885  1
  H+  H138  1  0.56102369  0.42917185  0.89989289  1
  H+  H139  1  0.92003165  0.74590660  0.88476359  1
  H+  H140  1  0.81295587  0.17528942  0.18108747  1
  H+  H141  1  0.56927289  0.12028862  0.90750270  1
  H+  H142  1  0.55381394  0.77743481  0.35198725  1
  H+  H143  1  0.17731949  0.81019050  0.77016208  1
  O2-  O144  1  0.10616527  0.21263212  0.23008314  1
  O2-  O145  1  0.12406484  0.23698935  0.75683759  1
  O2-  O146  1  0.09664559  0.53889559  0.23339247  1
  O2-  O147  1  0.09663272  0.55210978  0.71495807  1
  O2-  O148  1  0.09267528  0.85755555  0.22243167  1
  O2-  O149  1  0.10721761  0.88252559  0.72475057  1
  O2-  O150  1  0.44417030  0.20949730  0.27075498  1
  O2-  O151  1  0.44208823  0.22046246  0.72176101  1
  O2-  O152  1  0.43380313  0.54846554  0.23038889  1
  O2-  O153  1  0.45187539  0.53508067  0.71995493  1
  O2-  O154  1  0.44132916  0.88901020  0.23757296  1
  O2-  O155  1  0.45160407  0.89808906  0.75897296  1
  O2-  O156  1  0.82022864  0.17119071  0.24818128  1
  O2-  O157  1  0.79071949  0.22381007  0.73621419  1
  O2-  O158  1  0.78734334  0.60360942  0.22430030  1
  O2-  O159  1  0.75714047  0.53671772  0.74260910  1
  O2-  O160  1  0.74847612  0.86556130  0.20623378  1
  O2-  O161  1  0.78910060  0.89079273  0.71692401  1
  O2-  O162  1  0.20043011  0.08499114  0.28992086  1
  O2-  O163  1  0.21957170  0.10917241  0.79534276  1
  O2-  O164  1  0.21065576  0.43367859  0.29063497  1
  O2-  O165  1  0.21677442  0.44976311  0.75771646  1
  O2-  O166  1  0.21845048  0.76371137  0.29024310  1
  O2-  O167  1  0.21495298  0.76789619  0.79385201  1
  O2-  O168  1  0.56714486  0.11061286  0.30737444  1
  O2-  O169  1  0.55755692  0.11773515  0.79134365  1
  O2-  O170  1  0.55811191  0.45349926  0.28554881  1
  O2-  O171  1  0.55304460  0.43375812  0.78397621  1
  O2-  O172  1  0.54457919  0.77013135  0.28459098  1
  O2-  O173  1  0.56061018  0.76442016  0.76228664  1
  O2-  O174  1  0.87356968  0.09906772  0.25975613  1
  O2-  O175  1  0.90337566  0.11742780  0.78389676  1
  O2-  O176  1  0.87160287  0.48323182  0.28140128  1
  O2-  O177  1  0.87718754  0.44337962  0.80013798  1
  O2-  O178  1  0.85301929  0.72314964  0.25847315  1
  O2-  O179  1  0.88020822  0.75882239  0.77202068  1
  O2-  O180  1  0.22499005  0.10706262  0.46985074  1
  O2-  O181  1  0.24246645  0.11516359  0.97448161  1
  O2-  O182  1  0.24183642  0.44901291  0.46533341  1
  O2-  O183  1  0.20860405  0.42354823  1.00283103  1
  O2-  O184  1  0.23060058  0.77592535  0.47510541  1
  O2-  O185  1  0.24066168  0.77009624  0.97502650  1
  O2-  O186  1  0.48926717  0.07756019  0.46816262  1
  O2-  O187  1  0.57230303  0.12369251  0.97608676  1
  O2-  O188  1  0.55319247  0.45888643  0.46538103  1
  O2-  O189  1  0.56281971  0.42167134  0.96752627  1
  O2-  O190  1  0.56860290  0.78214677  0.46879234  1
  O2-  O191  1  0.53485020  0.72855803  0.94757666  1
  O2-  O192  1  0.86309309  0.08185929  0.44338020  1
  O2-  O193  1  0.90325697  0.10042349  0.97745956  1
  O2-  O194  1  0.89017456  0.45011009  0.46461231  1
  O2-  O195  1  0.88457023  0.43241509  0.98765167  1
  O2-  O196  1  0.89334563  0.77362985  0.46487944  1
  O2-  O197  1  0.95044080  0.72966194  0.94090212  1
  O2-  O198  1  0.11504837  0.20324650  0.04681476  1
  O2-  O199  1  0.07992278  0.20490118  0.51051803  1
  O2-  O200  1  0.10621565  0.54800566  0.04635214  1
  O2-  O201  1  0.10994930  0.55217776  0.53155319  1
  O2-  O202  1  0.08677964  0.90041037  0.04020446  1
  O2-  O203  1  0.11399411  0.88287022  0.53621983  1
  O2-  O204  1  0.46112870  0.22774665  0.02514505  1
  O2-  O205  1  0.44528227  0.24061498  0.53436966  1
  O2-  O206  1  0.41737772  0.52366091  0.04779086  1
  O2-  O207  1  0.46687103  0.58222738  0.51113204  1
  O2-  O208  1  0.45459854  0.91250317  0.05142109  1
  O2-  O209  1  0.45615195  0.87015548  0.52983293  1
  O2-  O210  1  0.78963468  0.20559755  0.05487006  1
  O2-  O211  1  0.75494835  0.20542468  0.46902821  1
  O2-  O212  1  0.77695986  0.54868552  0.03483974  1
  O2-  O213  1  0.78319629  0.56624290  0.52433744  1
  O2-  O214  1  0.65470490  0.90491039  0.06094227  1
  O2-  O215  1  0.78042155  0.87757001  0.53002532  1
