# generated using pymatgen
data_H2O
_symmetry_space_group_name_H-M   'P 1'
_cell_length_a   13.52325328
_cell_length_b   13.51998396
_cell_length_c   14.68973215
_cell_angle_alpha   89.98104828
_cell_angle_beta   90.03257557
_cell_angle_gamma   119.97880696
_symmetry_Int_Tables_number   1
_chemical_formula_structural   H2O
_chemical_formula_sum   'H144 O72'
_cell_volume   2326.45417570
_cell_formula_units_Z   72
loop_
 _symmetry_equiv_pos_site_id
 _symmetry_equiv_pos_as_xyz
  1  'x, y, z'
loop_
 _atom_type_symbol
 _atom_type_oxidation_number
  H+  1.0
  O2-  -2.0
loop_
 _atom_site_type_symbol
 _atom_site_label
 _atom_site_symmetry_multiplicity
 _atom_site_fract_x
 _atom_site_fract_y
 _atom_site_fract_z
 _atom_site_occupancy
  H+  H0  1  0.55738786  0.10710484  0.40716061  1
  H+  H1  1  0.52285005  0.82368144  0.98945177  1
  H+  H2  1  0.84397626  0.70605351  0.49671610  1
  H+  H3  1  0.86275895  0.44952337  0.49666148  1
  H+  H4  1  0.14627908  0.67487504  0.76712196  1
  H+  H5  1  0.19038451  0.82337026  0.98761209  1
  H+  H6  1  0.31293139  0.82878229  -0.01676386  1
  H+  H7  1  0.33291352  0.50789837  0.50002681  1
  H+  H8  1  0.51040648  0.37145593  0.50264437  1
  H+  H9  1  0.77093639  0.55109390  0.15518847  1
  H+  H10  1  0.68734802  0.16841811  0.73866923  1
  H+  H11  1  0.81683760  0.52469614  0.01959235  1
  H+  H12  1  0.15327328  -0.03666136  1.00363487  1
  H+  H13  1  0.85837046  0.08142200  0.35096611  1
  H+  H14  1  0.16810644  0.35084820  0.75680830  1
  H+  H15  1  0.23542353  0.43876270  0.28048453  1
  H+  H16  1  0.50543614  0.00010556  0.98597325  1
  H+  H17  1  0.84903152  0.02024876  0.98470947  1
  H+  H18  1  0.48270126  0.64822466  0.50011617  1
  H+  H19  1  0.47767049  0.86039793  0.60701156  1
  H+  H20  1  0.95901962  0.82808128  0.49642090  1
  H+  H21  1  0.82616800  0.84737140  -0.00469211  1
  H+  H22  1  1.00044087  0.16421576  0.50709619  1
  H+  H23  1  0.87287614  0.73895535  0.78669014  1
  H+  H24  1  0.69044006  0.84430508  0.51537800  1
  H+  H25  1  0.18793221  0.14459554  0.98205196  1
  H+  H26  1  0.36046155  0.56230053  0.26305242  1
  H+  H27  1  -0.02942554  0.50522990  0.00685619  1
  H+  H28  1  0.44433961  0.97291032  0.68627589  1
  H+  H29  1  0.49651436  0.31934882  0.28633208  1
  H+  H30  1  0.63941560  0.81909059  0.97955105  1
  H+  H31  1  0.51337108  0.36924979  0.75402813  1
  H+  H32  1  0.11022496  0.17953629  0.25366756  1
  H+  H33  1  0.69156965  0.84389348  0.23983137  1
  H+  H34  1  0.56156216  0.78113019  0.38648217  1
  H+  H35  1  0.70108928  0.51157932  0.75893756  1
  H+  H36  1  0.10481150  0.90534062  0.60696892  1
  H+  H37  1  0.51933366  0.82062477  0.47530323  1
  H+  H38  1  0.88456770  0.44497843  0.92575330  1
  H+  H39  1  0.12693784  0.18581265  0.51619374  1
  H+  H40  1  0.18411427  0.45671587  0.51951868  1
  H+  H41  1  0.64462737  0.48582319  0.27480002  1
  H+  H42  1  0.88249118  1.01780410  0.74044666  1
  H+  H43  1  0.51072327  0.49155398  0.50336999  1
  H+  H44  1  0.29584588  0.48378359  0.99075846  1
  H+  H45  1  0.84213157  0.46668073  0.78633576  1
  H+  H46  1  0.03300945  0.85392754  0.73260483  1
  H+  H47  1  0.13611908  0.46478747  0.27856843  1
  H+  H48  1  0.16747708  0.14695877  0.75141515  1
  H+  H49  1  0.18259016  0.68887901  0.22922609  1
  H+  H50  1  0.69598048  0.52202144  0.01410464  1
  H+  H51  1  -0.03255724  0.14843856  -0.01979566  1
  H+  H52  1  0.84712636  0.48155131  0.26178061  1
  H+  H53  1  0.69032654  0.14786685  0.99736870  1
  H+  H54  1  0.53767099  0.83368072  0.24289997  1
  H+  H55  1  0.54901626  0.71571287  0.23627954  1
  H+  H56  1  0.22017019  0.10782814  0.88895470  1
  H+  H57  1  0.81951117  0.84272612  0.24465897  1
  H+  H58  1  0.36292431  0.18955171  0.51116833  1
  H+  H59  1  0.21366727  0.12595183  0.21752414  1
  H+  H60  1  0.00949914  0.50694768  0.77260659  1
  H+  H61  1  0.39643543  0.86730474  0.22538890  1
  H+  H62  1  0.37605798  0.84761628  0.54338093  1
  H+  H63  1  0.51779106  0.03372376  0.49937490  1
  H+  H64  1  0.52495814  0.15626777  0.27736796  1
  H+  H65  1  0.81776005  0.97116065  0.24585783  1
  H+  H66  1  0.93643822  0.12915047  0.25877192  1
  H+  H67  1  0.53066932  0.04097607  0.25812903  1
  H+  H68  1  0.84978292  0.36432492  0.25374537  1
  H+  H69  1  0.51953878  0.49158783  0.74931374  1
  H+  H70  1  0.87586215  0.85113449  0.74375702  1
  H+  H71  1  0.47543608  0.65277836  0.73376744  1
  H+  H72  1  0.70013580  0.19094215  0.23497233  1
  H+  H73  1  0.48113704  0.63969123  -0.00431717  1
  H+  H74  1  0.17212875  0.74055403  0.52103623  1
  H+  H75  1  1.02248281  0.45787335  0.52591963  1
  H+  H76  1  0.51270370  0.12151373  -0.02603655  1
  H+  H77  1  0.84294639  0.69822068  0.99129522  1
  H+  H78  1  0.09566669  0.28619111  0.24693534  1
  H+  H79  1  0.15486357  0.52197201  0.01093967  1
  H+  H80  1  0.51746742  0.37011203  -0.02252361  1
  H+  H81  1  0.80846608  0.84613597  0.51920344  1
  H+  H82  1  0.82912365  0.12517829  0.48364004  1
  H+  H83  1  -0.03729642  0.81193318  -0.01768954  1
  H+  H84  1  -0.03845699  0.81377350  0.26224974  1
  H+  H85  1  0.82087938  0.27471887  0.50454963  1
  H+  H86  1  0.50528665  0.84158862  0.76798655  1
  H+  H87  1  0.36874974  0.17157411  -0.01730080  1
  H+  H88  1  0.10910343  0.88612666  0.09371940  1
  H+  H89  1  0.14272265  0.83529827  0.23047058  1
  H+  H90  1  0.79435129  0.54330768  0.45816166  1
  H+  H91  1  0.81422084  0.63028125  0.24384216  1
  H+  H92  1  0.80933284  0.17913949  0.23361314  1
  H+  H93  1  0.14596957  -0.04724965  0.24766407  1
  H+  H94  1  0.14877021  0.88348111  0.51462700  1
  H+  H95  1  0.83189608  1.00798686  0.48684136  1
  H+  H96  1  0.29331856  0.15936898  0.74799273  1
  H+  H97  1  0.13484030  0.57260659  0.54263604  1
  H+  H98  1  0.37995225  0.53634724  0.29962815  1
  H+  H99  1  0.69457117  0.16871775  0.51116999  1
  H+  H100  1  0.16584978  0.81560788  0.75989050  1
  H+  H101  1  0.83345954  0.14320690  0.99145593  1
  H+  H102  1  0.48142599  0.18733533  0.50819138  1
  H+  H103  1  0.14652405  0.29714759  -0.00082605  1
  H+  H104  1  0.17345828  0.04885442  0.50306678  1
  H+  H105  1  0.02299385  0.51601970  0.23671746  1
  H+  H106  1  0.84356908  0.34959372  0.77848333  1
  H+  H107  1  0.53621795  0.54889016  0.22160036  1
  H+  H108  1  0.78649221  0.88783777  0.08470296  1
  H+  H109  1  0.79709136  0.92185910  0.67222830  1
  H+  H110  1  0.53851430  0.07295266  0.84480694  1
  H+  H111  1  0.47082379  0.90283601  0.13552557  1
  H+  H112  1  0.56672374  0.46309720  0.36576976  1
  H+  H113  1  0.20792623  0.12169328  0.41249473  1
  H+  H114  1  0.77329651  0.20545537  0.08442637  1
  H+  H115  1  0.47825445  0.51961873  -0.00427163  1
  H+  H116  1  0.24994711  0.77720392  0.30473691  1
  H+  H117  1  0.49762976  0.58545916  0.12894405  1
  H+  H118  1  0.77589993  0.21332609  0.65793246  1
  H+  H119  1  0.10918139  0.54823495  0.15003349  1
  H+  H120  1  0.44380892  0.57787733  0.59934889  1
  H+  H121  1  0.27506084  0.36940404  0.80669636  1
  H+  H122  1  0.88193772  0.77956749  0.35209801  1
  H+  H123  1  0.55790614  0.45489453  0.89431830  1
  H+  H124  1  0.45823612  0.20852781  0.06287254  1
  H+  H125  1  0.69211150  0.52122597  0.51778029  1
  H+  H126  1  0.80116398  0.56560895  0.68765182  1
  H+  H127  1  0.54299914  0.78364374  0.84241179  1
  H+  H128  1  0.09989143  0.21357876  0.08419136  1
  H+  H129  1  0.21364635  0.77629223  0.85299693  1
  H+  H130  1  0.07043752  0.20934303  0.64424441  1
  H+  H131  1  0.21679171  0.43934469  0.41566494  1
  H+  H132  1  0.30924924  0.15234904  0.28643993  1
  H+  H133  1  0.15792832  0.97146651  0.73972049  1
  H+  H134  1  0.39219618  0.78596223  0.05877749  1
  H+  H135  1  0.24017747  0.80695865  0.43625123  1
  H+  H136  1  0.44626104  0.22512303  0.65049473  1
  H+  H137  1  0.09190996  0.53566660  0.68559179  1
  H+  H138  1  0.47446964  0.17823133  0.74071999  1
  H+  H139  1  0.36790748  0.52516338  0.73122355  1
  H+  H140  1  0.16429507  0.64532937  0.01233104  1
  H+  H141  1  0.89741299  0.42827631  0.39698205  1
  H+  H142  1  0.21455753  0.44036549  0.90404547  1
  H+  H143  1  0.44848324  0.24134648  0.20179314  1
  O2-  O144  1  0.06971160  0.20966632  0.21833907  1
  O2-  O145  1  0.08367099  0.21098271  0.71339075  1
  O2-  O146  1  0.10537800  0.54952699  0.21903203  1
  O2-  O147  1  0.09063866  0.55944798  0.74849183  1
  O2-  O148  1  0.09983586  0.87663948  0.21960083  1
  O2-  O149  1  0.12046737  0.89124509  0.71667897  1
  O2-  O150  1  0.45155578  0.23435976  0.26761104  1
  O2-  O151  1  0.44146161  0.22476780  0.71850865  1
  O2-  O152  1  0.54573762  0.61414214  0.18497053  1
  O2-  O153  1  0.44582824  0.57392319  0.70634258  1
  O2-  O154  1  0.47761174  0.91034484  0.20843735  1
  O2-  O155  1  0.46850077  0.96188464  0.74651516  1
  O2-  O156  1  0.77903487  0.22688409  0.20881379  1
  O2-  O157  1  0.76686704  0.22393938  0.72315138  1
  O2-  O158  1  0.77539681  0.54916238  0.22433440  1
  O2-  O159  1  0.78518078  0.54643792  0.75190890  1
  O2-  O160  1  0.78020570  0.88541398  0.21877516  1
  O2-  O161  1  0.82634676  0.93406100  0.73488252  1
  O2-  O162  1  0.22355805  0.10796446  0.28021375  1
  O2-  O163  1  0.21459149  0.11368611  0.77312768  1
  O2-  O164  1  0.15993677  0.41159286  0.30803804  1
  O2-  O165  1  0.23796271  0.41228979  0.78801961  1
  O2-  O166  1  0.22915492  0.77421317  0.24105666  1
  O2-  O167  1  0.19769771  0.76537340  0.78428618  1
  O2-  O168  1  0.56908189  0.11710510  0.29012484  1
  O2-  O169  1  0.53423303  0.08254758  0.77642930  1
  O2-  O170  1  0.56422679  0.45149244  0.29839644  1
  O2-  O171  1  0.55467309  0.44964641  0.77685750  1
  O2-  O172  1  0.57743732  0.79305028  0.26876547  1
  O2-  O173  1  0.52632027  0.78238118  0.77611056  1
  O2-  O174  1  0.85579266  0.08080296  0.28037854  1
  O2-  O175  1  0.97535207  0.16315198  0.75505483  1
  O2-  O176  1  0.88926485  0.44195202  0.28292554  1
  O2-  O177  1  0.88456391  0.42754683  0.80695802  1
  O2-  O178  1  0.88049800  0.77820148  0.28365245  1
  O2-  O179  1  0.90861877  0.79746907  0.73974119  1
  O2-  O180  1  0.21875396  0.12887583  0.47860304  1
  O2-  O181  1  0.22804604  0.10588780  0.95702483  1
  O2-  O182  1  0.24203605  0.44846935  0.48106700  1
  O2-  O183  1  0.21329848  0.44066863  0.97175419  1
  O2-  O184  1  0.23816027  0.81246106  0.50233210  1
  O2-  O185  1  0.23153526  0.78589394  0.96037657  1
  O2-  O186  1  0.55303687  0.11205465  0.47508331  1
  O2-  O187  1  0.54989917  0.07654343  0.95717041  1
  O2-  O188  1  0.55388443  0.45383168  0.48332014  1
  O2-  O189  1  0.55414579  0.45213656  0.96235821  1
  O2-  O190  1  0.55458612  0.77545287  0.45442651  1
  O2-  O191  1  0.55798899  0.77987296  0.96093010  1
  O2-  O192  1  0.86788685  0.08511991  0.45542656  1
  O2-  O193  1  0.88359869  0.10403380  0.96514844  1
  O2-  O194  1  0.90304362  0.41670749  0.46457744  1
  O2-  O195  1  0.88871404  0.46559582  0.99118708  1
  O2-  O196  1  0.88063259  0.78417063  0.46987181  1
  O2-  O197  1  0.88189207  0.77601823  0.96334611  1
  O2-  O198  1  0.10524917  0.21409373  0.01726929  1
  O2-  O199  1  0.07588992  0.21421851  0.53644102  1
  O2-  O200  1  0.12292194  0.56729244  0.03924150  1
  O2-  O201  1  0.09609322  0.49282866  0.56148531  1
  O2-  O202  1  0.11331584  0.88327749  0.02648059  1
  O2-  O203  1  0.09930792  0.91148932  0.53833441  1
  O2-  O204  1  0.45314812  0.21093886  -0.00302600  1
  O2-  O205  1  0.44431554  0.23009940  0.53176306  1
  O2-  O206  1  0.43844274  0.55944248  0.02021560  1
  O2-  O207  1  0.43950544  0.56979958  0.52936845  1
  O2-  O208  1  0.43974251  0.86562849  0.04046416  1
  O2-  O209  1  0.46016748  0.88355661  0.54879501  1
  O2-  O210  1  0.77146384  0.18925462  0.01834804  1
  O2-  O211  1  0.77512185  0.19703146  0.53038162  1
  O2-  O212  1  0.77272083  0.56290189  0.04277005  1
  O2-  O213  1  0.77774200  0.55732668  0.51985039  1
  O2-  O214  1  0.78802715  0.89267977  0.01794904  1
  O2-  O215  1  0.76859222  0.88702903  0.54074659  1
