# generated using pymatgen
data_H2O
_symmetry_space_group_name_H-M   'P 1'
_cell_length_a   13.49816597
_cell_length_b   13.52315956
_cell_length_c   14.65788639
_cell_angle_alpha   89.91631774
_cell_angle_beta   90.03064818
_cell_angle_gamma   120.04650332
_symmetry_Int_Tables_number   1
_chemical_formula_structural   H2O
_chemical_formula_sum   'H144 O72'
_cell_volume   2316.06500357
_cell_formula_units_Z   72
loop_
 _symmetry_equiv_pos_site_id
 _symmetry_equiv_pos_as_xyz
  1  'x, y, z'
loop_
 _atom_type_symbol
 _atom_type_oxidation_number
  H+  1.0
  O2-  -2.0
loop_
 _atom_site_type_symbol
 _atom_site_label
 _atom_site_symmetry_multiplicity
 _atom_site_fract_x
 _atom_site_fract_y
 _atom_site_fract_z
 _atom_site_occupancy
  H+  H0  1  0.52762873  0.15173719  0.25315487  1
  H+  H1  1  0.18827444  0.05178858  0.48737182  1
  H+  H2  1  0.81712779  -0.01671113  1.01437341  1
  H+  H3  1  0.36212811  0.20622345  0.73761374  1
  H+  H4  1  0.52452750  0.37596621  0.49536534  1
  H+  H5  1  0.15144629  0.19298873  0.01300934  1
  H+  H6  1  0.48635445  0.97683981  0.23427431  1
  H+  H7  1  0.20666598  0.75613155  0.84892518  1
  H+  H8  1  0.30350080  0.82481116  0.25515244  1
  H+  H9  1  0.51098403  0.16217233  0.75409486  1
  H+  H10  1  0.12556955  0.79680165  0.73455007  1
  H+  H11  1  0.84196675  0.91329193  0.78967790  1
  H+  H12  1  0.46727400  0.87347593  0.77618217  1
  H+  H13  1  0.67631455  0.82007947  0.76142322  1
  H+  H14  1  0.37366399  0.19604596  0.50374381  1
  H+  H15  1  0.19244557  1.01844491  0.24791644  1
  H+  H16  1  0.32221887  0.49759674  0.26707937  1
  H+  H17  1  0.84423214  1.04046785  0.74820054  1
  H+  H18  1  0.81858791  0.16462716  0.24486820  1
  H+  H19  1  0.83426878  0.30508814  0.02683748  1
  H+  H20  1  0.44294094  0.21384533  0.09047488  1
  H+  H21  1  0.19018621  0.83788580  0.48069686  1
  H+  H22  1  0.17664409  0.69480962  0.99135674  1
  H+  H23  1  0.70357553  0.50762247  0.24945320  1
  H+  H24  1  0.50116976  0.14719582  0.97669735  1
  H+  H25  1  0.49256702  0.64119330  1.02346769  1
  H+  H26  1  1.03571257  0.18461143  0.50130719  1
  H+  H27  1  0.82373147  0.29967645  0.50827039  1
  H+  H28  1  0.77404666  0.54017888  0.15528311  1
  H+  H29  1  0.47848123  0.28159820  0.23226004  1
  H+  H30  1  0.44564426  0.55982229  0.60112401  1
  H+  H31  1  1.02664318  0.84046131  0.23287910  1
  H+  H32  1  0.51982795  0.37292067  0.76911977  1
  H+  H33  1  0.23433658  0.45451343  0.35174627  1
  H+  H34  1  0.49145652  0.19456122  0.50842463  1
  H+  H35  1  0.16343580  0.64272695  0.24114410  1
  H+  H36  1  0.52453565  0.49163016  0.76913271  1
  H+  H37  1  0.69710934  0.16877190  0.23866219  1
  H+  H38  1  0.53204706  0.78119490  0.39990044  1
  H+  H39  1  0.86879836  0.49748274  0.27377835  1
  H+  H40  1  0.86962935  1.03877061  0.50586553  1
  H+  H41  1  0.19583359  0.16936738  0.47778219  1
  H+  H42  1  0.84353961  0.69379556  0.25366291  1
  H+  H43  1  0.21584748  0.36881635  0.78373225  1
  H+  H44  1  0.19417007  0.37531841  0.99871869  1
  H+  H45  1  0.63809295  0.83077167  0.99313169  1
  H+  H46  1  0.14840988  0.31989042  0.23518976  1
  H+  H47  1  0.51730898  0.48435026  0.00202241  1
  H+  H48  1  0.31596924  0.49391557  1.00563681  1
  H+  H49  1  0.49573872  0.70174546  0.48775864  1
  H+  H50  1  0.56390833  0.82132809  0.72617481  1
  H+  H51  1  0.84712377  0.02533174  0.26341093  1
  H+  H52  1  0.49669780  0.70822193  0.24879907  1
  H+  H53  1  0.15420621  0.61586626  0.74198792  1
  H+  H54  1  0.17100178  0.19361069  0.75137177  1
  H+  H55  1  1.01887820  0.48894206  0.51381352  1
  H+  H56  1  0.14938201  0.96985730  0.00452210  1
  H+  H57  1  0.82148240  0.77144079  0.76495244  1
  H+  H58  1  0.51656744  1.04125140  0.49335722  1
  H+  H59  1  0.81458753  0.86383876  0.01516320  1
  H+  H60  1  -0.03236848  0.15648163  0.74496043  1
  H+  H61  1  0.35843553  0.84479347  0.00336267  1
  H+  H62  1  0.70600671  0.51168676  0.50297951  1
  H+  H63  1  -0.02132492  0.16272589  -0.01312226  1
  H+  H64  1  0.95965423  0.80894561  0.48039503  1
  H+  H65  1  0.79247535  0.54556925  0.63063792  1
  H+  H66  1  0.14427120  0.83741877  0.23378082  1
  H+  H67  1  0.82603868  0.62920743  0.49981466  1
  H+  H68  1  0.89411850  0.12067477  0.89949596  1
  H+  H69  1  0.16763908  0.52617472  0.24268949  1
  H+  H70  1  0.83348974  0.49997514  0.72777556  1
  H+  H71  1  0.50343928  1.03047813  -0.02449305  1
  H+  H72  1  0.63748808  0.15664036  0.49057071  1
  H+  H73  1  0.29772608  0.15622658  0.99194445  1
  H+  H74  1  0.52750228  0.60068634  0.26129451  1
  H+  H75  1  0.47291751  0.98878375  0.74861679  1
  H+  H76  1  0.47730715  0.30046863  1.00602432  1
  H+  H77  1  0.81269107  0.61543168  0.73733284  1
  H+  H78  1  0.18125387  0.35616965  0.49501788  1
  H+  H79  1  0.83455027  0.18527469  0.01988626  1
  H+  H80  1  -0.02710668  0.47209914  0.76044436  1
  H+  H81  1  0.15996708  0.50061698  0.74932106  1
  H+  H82  1  0.17574056  0.81392306  0.98458019  1
  H+  H83  1  0.81078833  0.18365448  0.74042650  1
  H+  H84  1  0.46280480  0.45312060  0.26188893  1
  H+  H85  1  0.16034938  0.52195628  1.01432061  1
  H+  H86  1  0.97563191  0.48245083  0.99682883  1
  H+  H87  1  0.54704272  0.11773182  0.84441339  1
  H+  H88  1  0.68992983  0.49465913  0.02406635  1
  H+  H89  1  0.09898260  0.29891071  0.70071414  1
  H+  H90  1  0.96239503  0.82817729  0.99257260  1
  H+  H91  1  0.28776513  0.80651555  0.76127816  1
  H+  H92  1  0.50818014  0.83083381  0.24944232  1
  H+  H93  1  0.12826424  0.90885463  0.75619224  1
  H+  H94  1  0.17610391  0.08100734  0.76084850  1
  H+  H95  1  0.29952010  0.48022433  0.50035936  1
  H+  H96  1  0.86499335  0.48316997  0.49343297  1
  H+  H97  1  0.50453036  0.64530566  0.74132185  1
  H+  H98  1  0.48440139  0.52184084  0.51108395  1
  H+  H99  1  0.93615175  0.76369999  0.77322552  1
  H+  H100  1  0.84852080  0.35872487  0.75926648  1
  H+  H101  1  0.84814295  0.14575668  0.49568722  1
  H+  H102  1  0.37221564  0.15692448  0.22825252  1
  H+  H103  1  0.47985958  0.84953672  0.00453505  1
  H+  H104  1  0.84044015  0.85745100  0.53107485  1
  H+  H105  1  0.69227960  0.85017379  0.24124070  1
  H+  H106  1  0.30584901  0.83690383  0.49120384  1
  H+  H107  1  0.38255738  0.52982631  0.74826401  1
  H+  H108  1  0.10758923  0.23771342  0.09821654  1
  H+  H109  1  0.78940895  0.21402592  0.13784000  1
  H+  H110  1  -0.01077438  0.50068917  0.27005642  1
  H+  H111  1  0.11813055  0.55931517  0.10307369  1
  H+  H112  1  0.89211516  0.43666800  0.91030207  1
  H+  H113  1  0.86205269  0.75724861  0.92187660  1
  H+  H114  1  0.56316174  0.11370897  0.34681802  1
  H+  H115  1  0.84294542  0.81298424  0.25465026  1
  H+  H116  1  0.56456944  0.78423880  0.90210469  1
  H+  H117  1  0.21776899  0.13214381  0.90504796  1
  H+  H118  1  0.44226366  0.89883956  0.60412940  1
  H+  H119  1  0.00909549  0.94408189  0.56030894  1
  H+  H120  1  0.80811554  0.49318429  0.02444561  1
  H+  H121  1  0.54554428  0.44318128  0.40368812  1
  H+  H122  1  0.77697810  0.22339513  0.59860785  1
  H+  H123  1  0.24349421  0.45366548  0.86780459  1
  H+  H124  1  0.15014843  0.48612447  0.51426397  1
  H+  H125  1  0.39821633  0.33423614  0.32036636  1
  H+  H126  1  0.10562598  0.52450734  0.61102776  1
  H+  H127  1  0.10945865  0.88580188  0.09088337  1
  H+  H128  1  0.44232361  0.23498327  0.64922544  1
  H+  H129  1  0.02989124  0.20084207  0.23688120  1
  H+  H130  1  0.08374722  0.89714444  0.60509782  1
  H+  H131  1  0.55402653  0.44559554  0.90993697  1
  H+  H132  1  0.22730813  0.78595203  0.34661419  1
  H+  H133  1  0.23775452  0.10349839  0.33324902  1
  H+  H134  1  0.83816736  0.90262437  0.63236920  1
  H+  H135  1  0.77395116  0.89442854  0.15387637  1
  H+  H136  1  0.47673141  0.85584840  0.51289462  1
  H+  H137  1  0.69228003  0.18692542  0.74007729  1
  H+  H138  1  0.44155718  0.89799535  0.14322106  1
  H+  H139  1  0.91171612  0.45291156  0.40149304  1
  H+  H140  1  0.88223588  0.76510298  0.39022312  1
  H+  H141  1  0.88564861  0.10456873  0.35322025  1
  H+  H142  1  0.10681360  0.21703802  0.59521553  1
  H+  H143  1  0.45941181  0.56264414  0.11492272  1
  O2-  O144  1  0.10442850  0.24410847  0.20574686  1
  O2-  O145  1  0.08976147  0.22286339  0.70352558  1
  O2-  O146  1  0.12331163  0.56189532  0.21851880  1
  O2-  O147  1  0.11556634  0.53406507  0.72104525  1
  O2-  O148  1  0.10605971  0.87838970  0.20784264  1
  O2-  O149  1  0.08513033  0.84070611  0.71915478  1
  O2-  O150  1  0.45501945  0.20486422  0.20601609  1
  O2-  O151  1  0.44190878  0.23343072  0.71738849  1
  O2-  O152  1  0.45772892  0.54900492  0.22810072  1
  O2-  O153  1  0.45826086  0.56550702  0.71750071  1
  O2-  O154  1  0.44105342  0.89630193  0.21168071  1
  O2-  O155  1  0.43136862  0.90253403  0.73444890  1
  O2-  O156  1  0.77914994  0.20512327  0.21613289  1
  O2-  O157  1  0.77351730  0.22718771  0.71761028  1
  O2-  O158  1  0.78117561  0.55163896  0.22571343  1
  O2-  O159  1  0.79113447  0.53881562  0.70094617  1
  O2-  O160  1  0.77423792  0.88829679  0.22229653  1
  O2-  O161  1  0.79504499  0.86488129  0.73971521  1
  O2-  O162  1  0.24631776  0.09851628  0.26683793  1
  O2-  O163  1  0.21884408  0.16004983  0.78072614  1
  O2-  O164  1  0.23878789  0.46063644  0.28442960  1
  O2-  O165  1  0.24280021  0.44921120  0.79809746  1
  O2-  O166  1  0.22313868  0.78001930  0.27826739  1
  O2-  O167  1  0.20745572  0.75069724  0.77988051  1
  O2-  O168  1  0.56760020  0.11117069  0.27879349  1
  O2-  O169  1  0.54994134  0.11930724  0.77395158  1
  O2-  O170  1  0.47426821  0.38855364  0.29721219  1
  O2-  O171  1  0.55818239  0.44915247  0.79837457  1
  O2-  O172  1  0.54445606  0.78611263  0.27327288  1
  O2-  O173  1  0.58624762  0.78648444  0.77422568  1
  O2-  O174  1  0.88464720  0.10657195  0.28504660  1
  O2-  O175  1  0.88603114  0.11766727  0.77406380  1
  O2-  O176  1  0.91312156  0.46442698  0.30090205  1
  O2-  O177  1  0.89187417  0.44105444  0.78006155  1
  O2-  O178  1  0.88541187  0.77445115  0.27645178  1
  O2-  O179  1  0.85366266  0.71940562  0.78806362  1
  O2-  O180  1  0.23643741  0.12766564  0.45882024  1
  O2-  O181  1  0.21509137  0.11758063  0.97150451  1
  O2-  O182  1  0.21835669  0.43992667  0.47671118  1
  O2-  O183  1  0.23753559  0.45710866  0.97713441  1
  O2-  O184  1  0.22830031  0.79616031  0.46242138  1
  O2-  O185  1  0.21500376  0.77222537  0.96163904  1
  O2-  O186  1  0.55719576  0.12038518  0.46725778  1
  O2-  O187  1  0.54004702  0.10830642  0.94895915  1
  O2-  O188  1  0.56520759  0.45580692  0.47004944  1
  O2-  O189  1  0.55224429  0.43945921  0.97888142  1
  O2-  O190  1  0.52944397  0.78204226  0.46739539  1
  O2-  O191  1  0.55763366  0.78513709  0.96919113  1
  O2-  O192  1  0.89221216  0.11036700  0.47100661  1
  O2-  O193  1  0.89581420  0.12037845  0.96726185  1
  O2-  O194  1  0.90718384  0.44389023  0.47298256  1
  O2-  O195  1  0.89352819  0.43528192  0.97772287  1
  O2-  O196  1  0.88051650  0.75750400  0.45880115  1
  O2-  O197  1  0.87979698  0.79797295  0.98023834  1
  O2-  O198  1  0.11204163  0.23675278  0.02859673  1
  O2-  O199  1  0.11590373  0.22336720  0.52541483  1
  O2-  O200  1  0.11565723  0.55883178  0.03434176  1
  O2-  O201  1  0.10259502  0.52210234  0.54161367  1
  O2-  O202  1  0.11018308  0.88759333  0.02239617  1
  O2-  O203  1  0.07207936  0.92732985  0.54696025  1
  O2-  O204  1  0.43402050  0.21694519  0.02287026  1
  O2-  O205  1  0.45248337  0.23649666  0.53073943  1
  O2-  O206  1  0.45262569  0.56123025  0.04589992  1
  O2-  O207  1  0.43700269  0.55460989  0.53300252  1
  O2-  O208  1  0.43848511  0.88903014  0.02659007  1
  O2-  O209  1  0.44262603  0.90290289  0.53691012  1
  O2-  O210  1  0.79850637  0.22525683  0.05180424  1
  O2-  O211  1  0.77847314  0.21928542  0.53046777  1
  O2-  O212  1  0.76741711  0.52934800  0.05223982  1
  O2-  O213  1  0.78715363  0.54865393  0.52580083  1
  O2-  O214  1  0.77268035  0.90353723  0.03820500  1
  O2-  O215  1  0.86990545  0.92720266  0.56839664  1
