# generated using pymatgen
data_H2O
_symmetry_space_group_name_H-M   'P 1'
_cell_length_a   13.53284288
_cell_length_b   13.52457026
_cell_length_c   14.68721944
_cell_angle_alpha   89.96570010
_cell_angle_beta   89.90904022
_cell_angle_gamma   120.00935914
_symmetry_Int_Tables_number   1
_chemical_formula_structural   H2O
_chemical_formula_sum   'H144 O72'
_cell_volume   2327.77315100
_cell_formula_units_Z   72
loop_
 _symmetry_equiv_pos_site_id
 _symmetry_equiv_pos_as_xyz
  1  'x, y, z'
loop_
 _atom_type_symbol
 _atom_type_oxidation_number
  H+  1.0
  O2-  -2.0
loop_
 _atom_site_type_symbol
 _atom_site_label
 _atom_site_symmetry_multiplicity
 _atom_site_fract_x
 _atom_site_fract_y
 _atom_site_fract_z
 _atom_site_occupancy
  H+  H0  1  0.63428415  0.82881424  -0.01155545  1
  H+  H1  1  0.61298245  0.47047854  0.25072766  1
  H+  H2  1  0.03708875  0.86519409  0.00884652  1
  H+  H3  1  0.60744762  0.82079723  0.27178926  1
  H+  H4  1  0.17270533  -0.00454428  0.78514363  1
  H+  H5  1  0.38642593  0.90769713  0.73655805  1
  H+  H6  1  0.18624248  0.48677165  0.76252736  1
  H+  H7  1  0.19582047  0.39435324  0.26480761  1
  H+  H8  1  0.34485540  0.17511332  0.78115264  1
  H+  H9  1  0.81502120  0.14741342  0.48832094  1
  H+  H10  1  0.16944354  0.54532002  0.25459617  1
  H+  H11  1  0.81937137  0.51988719  0.98010874  1
  H+  H12  1  0.36028231  0.83760432  0.49648702  1
  H+  H13  1  0.85209612  0.03537772  0.99282459  1
  H+  H14  1  0.20307807  0.39075090  0.48223385  1
  H+  H15  1  0.73756102  0.68455835  0.61380528  1
  H+  H16  1  0.16476984  0.20207423  0.24418217  1
  H+  H17  1  0.18724912  0.03868220  0.25551593  1
  H+  H18  1  0.59518042  0.81182840  0.75363089  1
  H+  H19  1  0.93629587  0.86684890  0.49124031  1
  H+  H20  1  0.47728783  -0.04510049  0.51089656  1
  H+  H21  1  0.04786085  0.54982655  0.24820122  1
  H+  H22  1  0.77787072  0.97704648  0.48625807  1
  H+  H23  1  0.79999121  0.86367292  0.48055147  1
  H+  H24  1  0.82644438  0.77714654  0.22822255  1
  H+  H25  1  0.61239782  0.46474484  0.77703811  1
  H+  H26  1  0.05701918  0.87063965  0.23500589  1
  H+  H27  1  0.79800004  0.70145868  0.48298135  1
  H+  H28  1  0.00359842  0.84230915  0.77350187  1
  H+  H29  1  0.22675570  0.44808638  0.85267264  1
  H+  H30  1  0.80517760  0.59928363  0.52956699  1
  H+  H31  1  0.89818098  0.71499993  0.78229130  1
  H+  H32  1  0.50166812  0.53732259  1.02647945  1
  H+  H33  1  0.82518191  0.35865128  0.74371809  1
  H+  H34  1  0.87391186  0.41128702  0.23637872  1
  H+  H35  1  1.03171411  0.52316195  0.74356356  1
  H+  H36  1  0.19921508  0.81896604  0.49052530  1
  H+  H37  1  0.78475440  0.50468100  0.75404669  1
  H+  H38  1  0.47526168  0.29711679  0.24491792  1
  H+  H39  1  0.14730470  0.29724983  0.77937029  1
  H+  H40  1  0.02669728  0.16430541  -0.00051598  1
  H+  H41  1  0.08925685  0.15812593  0.41256289  1
  H+  H42  1  0.50121766  0.29731148  0.50728470  1
  H+  H43  1  -0.07122424  0.14231471  0.46561208  1
  H+  H44  1  0.62468390  0.13435907  0.26306524  1
  H+  H45  1  0.64031538  0.15464118  0.49456805  1
  H+  H46  1  0.19087170  0.83487040  0.24316595  1
  H+  H47  1  0.49816346  0.69223949  0.26481839  1
  H+  H48  1  0.21220010  0.83977037  0.78730853  1
  H+  H49  1  0.50537127  0.68193242  0.76662305  1
  H+  H50  1  0.46951642  0.85296462  0.24525986  1
  H+  H51  1  0.49274706  0.31016366  1.01465310  1
  H+  H52  1  0.17606978  0.46919846  -0.01091641  1
  H+  H53  1  0.09798216  0.20151082  0.51422041  1
  H+  H54  1  0.47698396  0.52220219  0.25058482  1
  H+  H55  1  0.17901410  0.68749490  0.25033220  1
  H+  H56  1  0.99920958  0.45197925  0.47153835  1
  H+  H57  1  0.30504814  0.15568757  0.26133582  1
  H+  H58  1  -0.02989420  0.15851494  0.77714747  1
  H+  H59  1  0.75800582  0.61631664  0.18815049  1
  H+  H60  1  0.72478800  0.08695395  0.16143644  1
  H+  H61  1  0.47815444  0.32614964  0.76710049  1
  H+  H62  1  0.86876409  0.42887327  0.83312464  1
  H+  H63  1  0.82508335  0.48527137  0.47389588  1
  H+  H64  1  0.63263743  0.48906669  0.97922078  1
  H+  H65  1  0.45716196  0.57527654  0.15597222  1
  H+  H66  1  0.19673808  0.15147087  0.93991030  1
  H+  H67  1  0.81574887  0.29178413  0.51638297  1
  H+  H68  1  0.47924945  0.18016579  0.24733805  1
  H+  H69  1  0.38142665  0.52167631  0.51280671  1
  H+  H70  1  0.50894142  0.46742314  0.49196272  1
  H+  H71  1  0.50965787  0.01072630  0.82940930  1
  H+  H72  1  0.18042352  0.96743255  0.52220602  1
  H+  H73  1  -0.00429503  0.23186004  0.26781050  1
  H+  H74  1  0.14610362  0.17724622  0.79430968  1
  H+  H75  1  0.49853423  0.80946467  0.49658353  1
  H+  H76  1  1.03519035  0.51045909  1.00835724  1
  H+  H77  1  0.13328666  0.25104455  0.15731035  1
  H+  H78  1  0.92820542  0.72251082  0.30697981  1
  H+  H79  1  0.72988593  0.23808369  0.10921629  1
  H+  H80  1  0.35509209  0.83641446  0.04512575  1
  H+  H81  1  0.63210429  0.49216336  0.48131268  1
  H+  H82  1  0.07608459  0.84862157  0.55684989  1
  H+  H83  1  0.79728183  0.17149363  0.74185222  1
  H+  H84  1  0.21929969  0.14259427  0.48733020  1
  H+  H85  1  0.51547395  0.16162370  0.49439400  1
  H+  H86  1  0.50056066  0.63336647  0.51884335  1
  H+  H87  1  0.44580215  0.90074634  0.14833383  1
  H+  H88  1  0.85352683  0.04157895  0.75920584  1
  H+  H89  1  0.31213702  0.83519223  0.24775789  1
  H+  H90  1  0.48860370  0.46800350  0.75804466  1
  H+  H91  1  0.17029201  0.53230048  0.51711959  1
  H+  H92  1  0.81927187  -0.04031144  0.27811162  1
  H+  H93  1  0.85592437  0.70778938  0.98222070  1
  H+  H94  1  0.89630819  0.17622323  0.34294329  1
  H+  H95  1  0.69314670  0.72791182  0.21460576  1
  H+  H96  1  0.81914380  0.35153076  -0.01204572  1
  H+  H97  1  0.76480726  0.96076339  0.28554669  1
  H+  H98  1  0.18793302  0.35871105  0.97977315  1
  H+  H99  1  0.38486484  0.17383405  0.50205652  1
  H+  H100  1  0.65857542  0.84383956  0.49436896  1
  H+  H101  1  0.21889051  0.72887856  0.76810602  1
  H+  H102  1  0.80227826  0.53107494  0.22356019  1
  H+  H103  1  0.77090360  0.54055341  0.07195333  1
  H+  H104  1  0.88271445  0.53887806  0.47770609  1
  H+  H105  1  0.50229624  0.65801661  0.02556736  1
  H+  H106  1  0.81639532  0.18507112  0.22590432  1
  H+  H107  1  0.50285503  0.02438205  0.26814024  1
  H+  H108  1  0.77339151  0.86320162  0.08940883  1
  H+  H109  1  0.54687625  0.43658324  0.34767335  1
  H+  H110  1  0.75748928  0.21417693  0.61000283  1
  H+  H111  1  0.66958799  0.15049826  0.73889180  1
  H+  H112  1  0.11249926  0.56324792  0.65834649  1
  H+  H113  1  0.12905005  0.91043939  0.14016590  1
  H+  H114  1  0.90942096  0.81482179  0.36075075  1
  H+  H115  1  0.09870413  0.12522048  0.05821011  1
  H+  H116  1  0.90314449  0.79635510  0.89933222  1
  H+  H117  1  0.95826903  0.34788891  0.40038268  1
  H+  H118  1  0.92213538  0.35355655  0.93824377  1
  H+  H119  1  0.15491442  0.92195331  0.69303604  1
  H+  H120  1  0.55872266  0.11026703  0.39765223  1
  H+  H121  1  0.54387677  0.77896301  0.90725269  1
  H+  H122  1  0.42790387  0.19828428  0.68960398  1
  H+  H123  1  0.80057570  0.76229127  0.70067222  1
  H+  H124  1  0.17922941  0.27243419  0.61251228  1
  H+  H125  1  0.74063004  0.59719944  0.72535125  1
  H+  H126  1  0.23897705  0.10005601  0.39116776  1
  H+  H127  1  0.31339080  0.51249317  0.26084804  1
  H+  H128  1  0.53065565  0.44004941  0.90861456  1
  H+  H129  1  0.14978575  0.60795705  0.05427989  1
  H+  H130  1  0.16100404  0.97242637  -0.00893777  1
  H+  H131  1  0.53349005  0.76529271  0.40645129  1
  H+  H132  1  0.47980194  0.85572955  0.02289260  1
  H+  H133  1  0.14743272  0.63465738  0.50589710  1
  H+  H134  1  0.90376889  0.45207515  0.33709657  1
  H+  H135  1  0.12033668  0.26508528  0.61928138  1
  H+  H136  1  0.44304720  0.54215227  0.65610210  1
  H+  H137  1  0.22284935  0.78244611  0.39150752  1
  H+  H138  1  0.82009650  0.85161690  -0.00309138  1
  H+  H139  1  0.35607246  0.50291135  0.74349855  1
  H+  H140  1  0.56260972  0.20109501  0.01367578  1
  H+  H141  1  0.88504597  0.11371908  0.90517593  1
  H+  H142  1  0.24607619  0.47704312  0.39990937  1
  H+  H143  1  0.45166776  0.22531080  0.09915178  1
  O2-  O144  1  0.13241892  0.25091551  0.22458626  1
  O2-  O145  1  0.09807130  0.21265978  0.78066755  1
  O2-  O146  1  0.13202278  0.59112740  0.23639785  1
  O2-  O147  1  0.11314032  0.56268895  0.72583507  1
  O2-  O148  1  0.13574230  0.91041267  0.20984800  1
  O2-  O149  1  0.13632080  0.91298043  0.75815289  1
  O2-  O150  1  0.43538562  0.21565375  0.22409345  1
  O2-  O151  1  0.42837477  0.21984797  0.75306337  1
  O2-  O152  1  0.44539363  0.57032115  0.22790804  1
  O2-  O153  1  0.43923911  0.53795679  0.72394857  1
  O2-  O154  1  0.43954563  0.90144751  0.22134095  1
  O2-  O155  1  0.45857256  0.96704057  0.70455516  1
  O2-  O156  1  0.74107783  0.15661783  0.19359884  1
  O2-  O157  1  0.74902527  0.20242882  0.71723012  1
  O2-  O158  1  0.74193756  0.53555289  0.18944905  1
  O2-  O159  1  0.73733994  0.53949351  0.77055099  1
  O2-  O160  1  0.76304840  0.74685319  0.18201765  1
  O2-  O161  1  0.72670467  0.70147046  0.67760187  1
  O2-  O162  1  0.22396501  0.11617228  0.28637750  1
  O2-  O163  1  0.22683465  0.11646833  0.81764790  1
  O2-  O164  1  0.23300672  0.47459467  0.28714476  1
  O2-  O165  1  0.22729721  0.44678205  0.78269112  1
  O2-  O166  1  0.22900432  0.79353159  0.27172112  1
  O2-  O167  1  0.26486032  0.80874756  0.78789201  1
  O2-  O168  1  0.54965458  0.10513305  0.29432315  1
  O2-  O169  1  0.51947123  0.05513873  0.77385486  1
  O2-  O170  1  0.53631387  0.43576062  0.28027172  1
  O2-  O171  1  0.52380155  0.42180406  0.78665287  1
  O2-  O172  1  0.52891195  0.77286645  0.29229421  1
  O2-  O173  1  0.53165792  0.75929295  0.79169624  1
  O2-  O174  1  0.92867131  0.23395262  0.29326001  1
  O2-  O175  1  0.88177611  0.11891235  0.78145051  1
  O2-  O176  1  0.90476762  0.48012080  0.27365362  1
  O2-  O177  1  0.86680741  0.43851519  0.76588942  1
  O2-  O178  1  0.93034343  0.79490081  0.29728017  1
  O2-  O179  1  0.91810675  0.79494248  0.78663161  1
  O2-  O180  1  0.24864042  0.09631880  0.46070014  1
  O2-  O181  1  0.23225926  0.10732741  0.91797725  1
  O2-  O182  1  0.24779616  0.47236008  0.46856511  1
  O2-  O183  1  0.22046712  0.43724982  0.95845567  1
  O2-  O184  1  0.22457390  0.77076576  0.45836013  1
  O2-  O185  1  0.22220157  0.74026873  1.07429687  1
  O2-  O186  1  0.55847357  0.11369461  0.46870761  1
  O2-  O187  1  0.63127381  0.18832354  1.00475876  1
  O2-  O188  1  0.55260634  0.43121100  0.46688176  1
  O2-  O189  1  0.54804320  0.45045657  0.97451084  1
  O2-  O190  1  0.54213890  0.76876272  0.47434633  1
  O2-  O191  1  0.55120310  0.78768763  0.97499065  1
  O2-  O192  1  0.84697311  0.10827386  0.44981215  1
  O2-  O193  1  0.89675435  0.11596324  0.97191719  1
  O2-  O194  1  0.93219279  0.39175233  0.43627336  1
  O2-  O195  1  0.88489911  0.39902996  0.94544762  1
  O2-  O196  1  0.87019703  0.82750346  0.45172574  1
  O2-  O197  1  0.89538660  0.79063461  0.96748527  1
  O2-  O198  1  0.10701668  0.19128598  0.02489495  1
  O2-  O199  1  0.08032529  0.21195161  0.45124548  1
  O2-  O200  1  0.10309657  0.52265613  0.04143110  1
  O2-  O201  1  0.11345203  0.55607783  0.53209027  1
  O2-  O202  1  0.11498437  0.91081684  0.03459389  1
  O2-  O203  1  0.15877283  0.89760004  0.55916083  1
  O2-  O204  1  0.46732939  0.23020890  0.03318935  1
  O2-  O205  1  0.46420695  0.21462516  0.52735582  1
  O2-  O206  1  0.47852413  0.58600555  0.06037682  1
  O2-  O207  1  0.45995043  0.55131475  0.53755123  1
  O2-  O208  1  0.43942433  0.89280712  0.05094351  1
  O2-  O209  1  0.43864629  0.87265586  0.52263999  1
  O2-  O210  1  0.71542914  0.28227692  0.06177429  1
  O2-  O211  1  0.75843443  0.21544123  0.54004012  1
  O2-  O212  1  0.78005826  0.55761314  0.00543685  1
  O2-  O213  1  0.75004061  0.62276666  0.51330285  1
  O2-  O214  1  0.77858178  0.88821285  0.02594388  1
  O2-  O215  1  0.74645911  0.89688944  0.51017473  1
