# generated using pymatgen
data_H2O
_symmetry_space_group_name_H-M   'P 1'
_cell_length_a   13.50848011
_cell_length_b   13.52261051
_cell_length_c   14.67940545
_cell_angle_alpha   89.89003209
_cell_angle_beta   90.05535596
_cell_angle_gamma   119.99552747
_symmetry_Int_Tables_number   1
_chemical_formula_structural   H2O
_chemical_formula_sum   'H144 O72'
_cell_volume   2322.33515142
_cell_formula_units_Z   72
loop_
 _symmetry_equiv_pos_site_id
 _symmetry_equiv_pos_as_xyz
  1  'x, y, z'
loop_
 _atom_type_symbol
 _atom_type_oxidation_number
  H+  1.0
  O2-  -2.0
loop_
 _atom_site_type_symbol
 _atom_site_label
 _atom_site_symmetry_multiplicity
 _atom_site_fract_x
 _atom_site_fract_y
 _atom_site_fract_z
 _atom_site_occupancy
  H+  H0  1  0.12609747  0.88395133  0.69557324  1
  H+  H1  1  0.85827118  0.50510215  0.76166570  1
  H+  H2  1  0.62621923  0.48064922  0.99279880  1
  H+  H3  1  0.28653865  0.81446828  0.49124017  1
  H+  H4  1  0.51342978  0.65603697  0.26705523  1
  H+  H5  1  0.11851605  0.90265322  0.11422073  1
  H+  H6  1  0.83164961  0.48009647  0.99403312  1
  H+  H7  1  0.85297761  0.38100501  0.76898832  1
  H+  H8  1  0.52964526  0.35512686  0.49620707  1
  H+  H9  1  0.14593472  0.64225203  0.51084944  1
  H+  H10  1  0.24075526  0.61024187  0.18958056  1
  H+  H11  1  0.28477342  0.15134873  -0.02056100  1
  H+  H12  1  0.13269812  0.85407428  0.24946937  1
  H+  H13  1  0.24253257  0.39359168  0.77791649  1
  H+  H14  1  0.17115495  0.46596103  0.26735028  1
  H+  H15  1  0.16434374  0.81197716  0.48263130  1
  H+  H16  1  0.03093490  0.15771740  0.23214114  1
  H+  H17  1  0.80059145  0.46954901  0.22286488  1
  H+  H18  1  0.70464831  0.50030309  0.23982432  1
  H+  H19  1  0.85828675  0.24061337  0.55365643  1
  H+  H20  1  0.55733388  0.52288039  0.28732181  1
  H+  H21  1  1.02236328  0.19104089  0.74640880  1
  H+  H22  1  0.95451428  0.83895997  0.27103227  1
  H+  H23  1  0.82539638  0.79485828  0.98943783  1
  H+  H24  1  0.84737244  0.13511753  0.22343241  1
  H+  H25  1  0.04413400  0.21730246  -0.00712246  1
  H+  H26  1  0.42099830  0.43445316  0.18626133  1
  H+  H27  1  0.80094295  0.84686425  0.24952211  1
  H+  H28  1  0.64112126  0.15287167  0.50221450  1
  H+  H29  1  0.13842085  0.27746225  0.25172609  1
  H+  H30  1  0.86388922  0.16636941  0.78656995  1
  H+  H31  1  0.20493612  0.42962154  0.40855000  1
  H+  H32  1  0.12240852  0.61359649  0.03052200  1
  H+  H33  1  0.16038991  0.60675043  0.73836760  1
  H+  H34  1  0.11666999  0.55126662  0.15033375  1
  H+  H35  1  0.16341643  0.83170946  0.81229642  1
  H+  H36  1  0.48710084  0.20306377  0.24702901  1
  H+  H37  1  0.25196473  0.50999130  0.79890715  1
  H+  H38  1  0.17395393  0.48040837  0.49569388  1
  H+  H39  1  0.45425824  0.55979174  0.57290466  1
  H+  H40  1  0.82099851  0.98318401  0.74363721  1
  H+  H41  1  0.36254650  0.48468145  0.49984084  1
  H+  H42  1  0.51713603  0.78302875  0.49317745  1
  H+  H43  1  1.01958136  0.17918690  0.51411838  1
  H+  H44  1  0.51774325  0.46850174  0.49179981  1
  H+  H45  1  0.19531543  0.38469559  1.02591687  1
  H+  H46  1  0.37518345  0.94017144  0.59543424  1
  H+  H47  1  0.83034347  -0.03828968  0.50896879  1
  H+  H48  1  0.53390097  0.88967459  0.27105408  1
  H+  H49  1  0.69823896  0.19274342  0.77114738  1
  H+  H50  1  0.36099197  0.86764177  0.25280586  1
  H+  H51  1  0.36851839  0.18447873  0.74106100  1
  H+  H52  1  0.48052721  0.31678571  0.24695553  1
  H+  H53  1  0.15284870  0.11941633  0.96974433  1
  H+  H54  1  0.77021933  0.24661017  0.17355988  1
  H+  H55  1  0.79610578  0.62059832  0.00195110  1
  H+  H56  1  0.69366942  0.50986002  0.52048255  1
  H+  H57  1  0.30600270  0.15483756  0.26376912  1
  H+  H58  1  0.52083492  0.83876766  0.76132736  1
  H+  H59  1  0.38504189  0.54478515  -0.04674213  1
  H+  H60  1  0.93856677  0.40197197  0.24615158  1
  H+  H61  1  0.17031484  1.05338518  0.73119836  1
  H+  H62  1  0.14628492  0.19077462  0.73467824  1
  H+  H63  1  0.51973445  0.06535153  0.26537442  1
  H+  H64  1  0.12643078  0.78415917  0.77906358  1
  H+  H65  1  0.52596812  1.15891103  0.50262307  1
  H+  H66  1  0.13465481  0.30468877  0.51924725  1
  H+  H67  1  0.95391455  0.83365008  0.73876078  1
  H+  H68  1  1.00688622  0.50991649  0.74075742  1
  H+  H69  1  0.47364874  0.98465744  0.52400374  1
  H+  H70  1  0.51008398  0.13916223  0.77422305  1
  H+  H71  1  0.47848982  -0.02301067  1.02623245  1
  H+  H72  1  0.81768565  0.64503560  0.74593038  1
  H+  H73  1  0.27243815  0.44180942  0.25886048  1
  H+  H74  1  0.47077050  0.30538194  1.01102348  1
  H+  H75  1  0.52515003  0.83780852  1.00356000  1
  H+  H76  1  0.02335260  0.52571868  0.51043531  1
  H+  H77  1  0.21265984  0.03636642  0.49319339  1
  H+  H78  1  0.50733283  0.68437115  0.69991079  1
  H+  H79  1  0.76654521  0.87949454  0.14863021  1
  H+  H80  1  0.16198524  -0.03595782  1.01589864  1
  H+  H81  1  0.49137164  0.29757907  0.74842420  1
  H+  H82  1  0.83771654  0.49862901  0.50420887  1
  H+  H83  1  0.38000454  0.18022018  0.51366583  1
  H+  H84  1  0.18257513  0.81591251  1.03313518  1
  H+  H85  1  0.09815765  0.90525320  0.44036875  1
  H+  H86  1  0.70085657  0.86068896  0.75363952  1
  H+  H87  1  0.70205248  0.85550719  1.01905034  1
  H+  H88  1  0.51340116  0.49245666  0.98433170  1
  H+  H89  1  0.52190105  0.02609516  0.78152942  1
  H+  H90  1  0.20886715  0.11257986  0.83098195  1
  H+  H91  1  0.84265750  0.01844148  0.24145369  1
  H+  H92  1  0.82700961  0.11257759  0.45669152  1
  H+  H93  1  0.66277340  0.88052362  0.25975572  1
  H+  H94  1  0.51038302  0.15872141  1.00757933  1
  H+  H95  1  0.34775898  0.75948616  0.76233767  1
  H+  H96  1  0.14717774  0.97801843  0.25156138  1
  H+  H97  1  0.18308514  0.71006234  0.25715096  1
  H+  H98  1  0.10592784  0.42529175  1.01325154  1
  H+  H99  1  0.63314187  0.47635220  0.76458376  1
  H+  H100  1  0.82050940  0.32866749  0.52606432  1
  H+  H101  1  -0.00545092  0.49999716  0.02552561  1
  H+  H102  1  0.56565530  0.66100134  0.24411533  1
  H+  H103  1  0.83675363  0.82912056  0.75156863  1
  H+  H104  1  0.40303197  0.56077374  0.72004704  1
  H+  H105  1  0.83486805  0.95696641  0.01450658  1
  H+  H106  1  0.91565400  0.10680536  0.85996950  1
  H+  H107  1  0.68415435  0.15486598  1.03801244  1
  H+  H108  1  0.57330608  0.71517732  0.81294625  1
  H+  H109  1  0.48623774  0.65697582  -0.00156921  1
  H+  H110  1  0.47447359  0.87873676  0.67197930  1
  H+  H111  1  0.56001710  0.13675995  0.35537796  1
  H+  H112  1  0.89117035  0.45316563  0.91178279  1
  H+  H113  1  0.24286529  0.75159379  0.81078997  1
  H+  H114  1  0.09406508  0.55128394  0.63763091  1
  H+  H115  1  0.39615475  0.50816058  0.11655065  1
  H+  H116  1  0.56792856  0.44600202  0.36408209  1
  H+  H117  1  0.21217404  0.76305172  0.94853183  1
  H+  H118  1  0.84188694  0.31603827  0.31091596  1
  H+  H119  1  0.87504189  0.78686782  0.35922049  1
  H+  H120  1  0.45554576  0.21993035  0.60739861  1
  H+  H121  1  0.24833241  0.11622738  0.40567129  1
  H+  H122  1  0.77913170  0.55936738  0.66134861  1
  H+  H123  1  0.77239830  0.23497375  0.68098224  1
  H+  H124  1  0.78258382  0.89809820  0.60607398  1
  H+  H125  1  0.55311674  0.11576070  0.92289160  1
  H+  H126  1  0.89314748  0.10111407  0.37428774  1
  H+  H127  1  0.09303927  0.22623704  0.63670040  1
  H+  H128  1  0.87229497  0.45933744  0.41118359  1
  H+  H129  1  0.65236961  0.82959918  0.49105402  1
  H+  H130  1  0.86025448  0.76292369  0.89476445  1
  H+  H131  1  0.57533217  0.80776647  0.91234531  1
  H+  H132  1  0.54969279  0.43481501  0.84930696  1
  H+  H133  1  0.36424151  0.85162505  0.03353117  1
  H+  H134  1  0.84771853  0.80591871  0.50746237  1
  H+  H135  1  0.81195666  0.63336368  0.52091669  1
  H+  H136  1  0.21200921  0.77801917  0.35073647  1
  H+  H137  1  0.09365631  0.91480032  0.60165928  1
  H+  H138  1  0.76565945  0.54097163  0.09372458  1
  H+  H139  1  0.44254756  0.90778424  0.16357097  1
  H+  H140  1  0.18340684  0.14666858  0.26909485  1
  H+  H141  1  0.43084179  0.22966102  0.10136193  1
  H+  H142  1  -0.03638142  0.79841985  0.49576921  1
  H+  H143  1  0.58875849  0.84889774  0.36357304  1
  O2-  O144  1  0.11511648  0.20172681  0.22517040  1
  O2-  O145  1  0.10299549  0.23164576  0.71406685  1
  O2-  O146  1  0.16171093  0.57450027  0.21077206  1
  O2-  O147  1  0.09111359  0.53989115  0.70806100  1
  O2-  O148  1  0.09561250  0.89781766  0.22907435  1
  O2-  O149  1  0.09112539  0.92609654  0.67045037  1
  O2-  O150  1  0.44172527  0.23826754  0.22188176  1
  O2-  O151  1  0.45016178  0.21504344  0.72561983  1
  O2-  O152  1  0.37534711  0.47102528  0.17731298  1
  O2-  O153  1  0.44459479  0.61664889  0.67091054  1
  O2-  O154  1  0.44250163  0.91242317  0.23214764  1
  O2-  O155  1  0.46981113  0.87180684  0.73870709  1
  O2-  O156  1  0.74987285  0.16786929  0.15834318  1
  O2-  O157  1  0.77874022  0.23896783  0.74810749  1
  O2-  O158  1  0.77730494  0.52525801  0.20715085  1
  O2-  O159  1  0.78500208  0.56236118  0.72948832  1
  O2-  O160  1  0.76018316  0.88476135  0.21788836  1
  O2-  O161  1  0.77838017  0.90488354  0.71809204  1
  O2-  O162  1  0.22852358  0.10953637  0.29194799  1
  O2-  O163  1  0.21309724  0.12813573  0.76356659  1
  O2-  O164  1  0.20111138  0.41852513  0.29445897  1
  O2-  O165  1  0.29524906  0.47007283  0.80136051  1
  O2-  O166  1  0.21575941  0.78795488  0.28271545  1
  O2-  O167  1  0.27014447  0.70149558  0.78868027  1
  O2-  O168  1  0.55866971  0.14461303  0.28837721  1
  O2-  O169  1  0.55507539  0.10619015  0.80240165  1
  O2-  O170  1  0.56620470  0.45599177  0.29519846  1
  O2-  O171  1  0.55193055  0.42814829  0.78189206  1
  O2-  O172  1  0.60336825  0.89002651  0.30077917  1
  O2-  O173  1  0.59065433  0.79340180  0.80320074  1
  O2-  O174  1  0.88499663  0.10166166  0.26026923  1
  O2-  O175  1  0.90856709  0.12670960  0.79045504  1
  O2-  O176  1  0.86084871  0.37683792  0.26664920  1
  O2-  O177  1  0.90294526  0.46543859  0.78070847  1
  O2-  O178  1  0.87449449  0.80349135  0.29361772  1
  O2-  O179  1  0.87898595  0.78760116  0.76846619  1
  O2-  O180  1  0.25653688  0.11689155  0.47374238  1
  O2-  O181  1  0.21106739  0.10036321  0.94819182  1
  O2-  O182  1  0.20546901  0.43129741  0.47695580  1
  O2-  O183  1  0.12664987  0.36797979  0.99216781  1
  O2-  O184  1  0.20837603  0.76742340  0.46652275  1
  O2-  O185  1  0.21678536  0.76394478  1.01458594  1
  O2-  O186  1  0.56268832  0.11406558  0.47800820  1
  O2-  O187  1  0.55050928  0.11583204  0.99075790  1
  O2-  O188  1  0.56878323  0.43569093  0.47269375  1
  O2-  O189  1  0.54451828  0.44193212  0.96919906  1
  O2-  O190  1  0.58049596  0.79654211  0.45361829  1
  O2-  O191  1  0.56455732  0.79685299  0.98113482  1
  O2-  O192  1  0.89026275  0.09969172  0.44329856  1
  O2-  O193  1  0.92004684  0.06719424  0.95081329  1
  O2-  O194  1  0.88015791  0.45850206  0.47736751  1
  O2-  O195  1  0.87987044  0.44474891  0.97799482  1
  O2-  O196  1  0.87850814  0.75895229  0.48101156  1
  O2-  O197  1  0.85093401  0.74508760  0.96034146  1
  O2-  O198  1  0.03083165  0.13786506  -0.00510478  1
  O2-  O199  1  0.09123833  0.22610602  0.54843170  1
  O2-  O200  1  0.07698745  0.53265209  0.05058210  1
  O2-  O201  1  0.10252451  0.56051680  0.53563938  1
  O2-  O202  1  0.13529473  0.89202217  0.04983042  1
  O2-  O203  1  0.10323341  0.87538817  0.49965326  1
  O2-  O204  1  0.42926054  0.22442020  0.03348509  1
  O2-  O205  1  0.46165131  0.22147937  0.53933850  1
  O2-  O206  1  0.43819010  0.57078342  0.00457331  1
  O2-  O207  1  0.44541009  0.52496247  0.51137222  1
  O2-  O208  1  0.44664804  0.89733646  0.05078931  1
  O2-  O209  1  0.41603268  0.91340474  0.55717100  1
  O2-  O210  1  0.76264845  0.17376077  0.05886171  1
  O2-  O211  1  0.79161974  0.25052929  0.55373383  1
  O2-  O212  1  0.75730088  0.53885296  0.02568339  1
  O2-  O213  1  0.77427998  0.55210283  0.54589712  1
  O2-  O214  1  0.77992321  0.88082108  0.04412731  1
  O2-  O215  1  0.78342520  0.88633788  0.53799932  1
