# generated using pymatgen
data_H2O
_symmetry_space_group_name_H-M   'P 1'
_cell_length_a   13.53237556
_cell_length_b   13.52067773
_cell_length_c   14.69138711
_cell_angle_alpha   89.91480638
_cell_angle_beta   90.05885472
_cell_angle_gamma   120.03515571
_symmetry_Int_Tables_number   1
_chemical_formula_structural   H2O
_chemical_formula_sum   'H144 O72'
_cell_volume   2327.08086679
_cell_formula_units_Z   72
loop_
 _symmetry_equiv_pos_site_id
 _symmetry_equiv_pos_as_xyz
  1  'x, y, z'
loop_
 _atom_type_symbol
 _atom_type_oxidation_number
  H+  1.0
  O2-  -2.0
loop_
 _atom_site_type_symbol
 _atom_site_label
 _atom_site_symmetry_multiplicity
 _atom_site_fract_x
 _atom_site_fract_y
 _atom_site_fract_z
 _atom_site_occupancy
  H+  H0  1  0.48492400  0.30637255  0.50641523  1
  H+  H1  1  0.17363627  0.03345452  0.26562208  1
  H+  H2  1  0.86880174  0.83985412  0.50403083  1
  H+  H3  1  0.19334791  0.70516189  0.48612005  1
  H+  H4  1  0.89869801  0.44145746  0.89163306  1
  H+  H5  1  0.60720788  0.46503902  0.24834539  1
  H+  H6  1  0.84328075  0.15409934  -0.01468467  1
  H+  H7  1  0.49128561  0.51919300  0.49667206  1
  H+  H8  1  0.04382675  0.55003070  0.00383061  1
  H+  H9  1  0.15573702  0.89668656  0.03895247  1
  H+  H10  1  0.53527579  0.47896589  0.75104281  1
  H+  H11  1  0.63773078  0.46493214  -0.02333404  1
  H+  H12  1  0.15580260  0.63907594  0.75025088  1
  H+  H13  1  0.49985931  0.85752390  0.50792427  1
  H+  H14  1  0.95913066  0.14882977  0.99696544  1
  H+  H15  1  0.49056901  0.34511437  0.25409827  1
  H+  H16  1  0.50151483  0.67992921  0.24465787  1
  H+  H17  1  0.51321404  0.14600113  0.98016277  1
  H+  H18  1  0.66820264  0.50282719  0.76236666  1
  H+  H19  1  0.51424682  0.17442058  0.74468717  1
  H+  H20  1  0.64453588  0.83206091  0.49350516  1
  H+  H21  1  0.03970801  0.19917620  0.74268059  1
  H+  H22  1  0.76977931  0.94611355  0.73754898  1
  H+  H23  1  0.86437709  0.72823897  0.29263767  1
  H+  H24  1  0.03862928  0.86534713  0.26884888  1
  H+  H25  1  0.12629188  0.16912697  0.03101188  1
  H+  H26  1  0.83074752  0.96847460  0.02061023  1
  H+  H27  1  0.19382918  0.37107903  0.49302940  1
  H+  H28  1  0.84387197  0.46203979  0.26170170  1
  H+  H29  1  0.91224707  0.05943363  0.24658680  1
  H+  H30  1  0.83217159  0.31928618  0.51167389  1
  H+  H31  1  0.83354366  0.64554368  0.73820987  1
  H+  H32  1  0.56213285  0.12348472  0.88957285  1
  H+  H33  1  0.52873979  0.03619352  0.50354054  1
  H+  H34  1  0.33430767  0.48825689  0.25189796  1
  H+  H35  1  0.15908001  0.31350174  0.74535404  1
  H+  H36  1  0.15334140  0.64538828  0.24656206  1
  H+  H37  1  0.16416698  0.18975619  0.51125222  1
  H+  H38  1  0.37816988  0.63270511  1.06446531  1
  H+  H39  1  0.91215312  0.04707646  0.78234157  1
  H+  H40  1  0.69445315  0.18264993  0.00463541  1
  H+  H41  1  0.98788351  0.83787465  0.50687774  1
  H+  H42  1  0.68075347  0.81570427  0.72652200  1
  H+  H43  1  0.29416617  0.50609805  0.78871230  1
  H+  H44  1  0.81067125  0.49578911  0.51491068  1
  H+  H45  1  0.16832185  -0.02459051  0.51312963  1
  H+  H46  1  0.15821982  0.51597459  0.51160519  1
  H+  H47  1  0.23359313  0.15238887  0.89011530  1
  H+  H48  1  0.11706755  0.57532108  0.09341986  1
  H+  H49  1  0.16327358  0.33727778  1.00031195  1
  H+  H50  1  0.16490054  0.47316671  0.26104206  1
  H+  H51  1  0.37252982  0.52100382  0.49961122  1
  H+  H52  1  0.26285294  0.26904762  0.93932008  1
  H+  H53  1  0.63370344  0.47474235  0.49225541  1
  H+  H54  1  0.50748897  0.91431191  0.74424512  1
  H+  H55  1  0.45137279  0.17906089  0.24082062  1
  H+  H56  1  0.83305358  0.98159067  0.49958789  1
  H+  H57  1  0.17617343  0.14327711  0.75200070  1
  H+  H58  1  0.93079562  0.12003910  0.39048401  1
  H+  H59  1  0.45225136  0.48627696  0.25007778  1
  H+  H60  1  -0.01849771  0.47815462  0.49597930  1
  H+  H61  1  0.75326391  0.14725738  0.23747779  1
  H+  H62  1  0.97600656  0.48786100  0.75466032  1
  H+  H63  1  -0.01121224  0.15550577  0.48636656  1
  H+  H64  1  0.15268089  0.85463433  0.26048414  1
  H+  H65  1  0.33412284  0.18079504  0.23478528  1
  H+  H66  1  0.30836786  0.80710465  0.74847270  1
  H+  H67  1  0.63335996  0.21282466  0.28015609  1
  H+  H68  1  0.35582689  0.17409472  0.73695377  1
  H+  H69  1  0.20403019  0.80270448  0.15136908  1
  H+  H70  1  0.17725809  1.02419308  0.76088422  1
  H+  H71  1  0.52440446  0.69143800  0.98345447  1
  H+  H72  1  0.30457760  0.15491551  0.48571086  1
  H+  H73  1  0.85770617  0.35138127  0.25967758  1
  H+  H74  1  0.88363178  0.19993127  0.22796073  1
  H+  H75  1  0.36828505  0.44627492  0.70441612  1
  H+  H76  1  0.48726917  0.18871598  0.51451034  1
  H+  H77  1  0.49966996  0.76357678  0.73456340  1
  H+  H78  1  0.83099981  0.52383932  0.74274264  1
  H+  H79  1  0.81360240  0.17404525  0.73949099  1
  H+  H80  1  0.34467898  0.78237853  0.10981500  1
  H+  H81  1  0.43284075  0.22153533  0.64700248  1
  H+  H82  1  0.15542073  0.14450117  0.26547323  1
  H+  H83  1  0.80866771  0.66579283  0.97238365  1
  H+  H84  1  0.85854323  0.82067181  0.74581130  1
  H+  H85  1  0.36805023  0.19800428  -0.00532692  1
  H+  H86  1  0.52601128  0.71300891  0.49624401  1
  H+  H87  1  0.21798896  0.44341084  0.40170879  1
  H+  H88  1  0.61684114  0.79859598  0.23783394  1
  H+  H89  1  0.82181005  0.84619937  0.02252540  1
  H+  H90  1  0.85924344  0.36339801  0.98233393  1
  H+  H91  1  0.27924936  0.79994712  0.84885214  1
  H+  H92  1  0.85735027  0.36744792  0.75275107  1
  H+  H93  1  0.38008035  0.85981085  0.50502136  1
  H+  H94  1  0.50812337  0.65025208  0.73806484  1
  H+  H95  1  0.79856969  0.65725834  0.16373293  1
  H+  H96  1  0.69843720  0.19117458  0.51641676  1
  H+  H97  1  0.89473635  0.11709308  0.86112103  1
  H+  H98  1  0.81847207  0.49159166  -0.01167454  1
  H+  H99  1  0.16271627  0.84925267  0.74835010  1
  H+  H100  1  0.03834861  0.52274097  0.24082312  1
  H+  H101  1  0.14760756  0.51752473  0.75144279  1
  H+  H102  1  0.48001570  -0.04870336  0.21636829  1
  H+  H103  1  -0.02113076  0.82276672  0.75307435  1
  H+  H104  1  0.44941820  0.94353389  -0.05769783  1
  H+  H105  1  0.16894227  0.85655962  0.50949885  1
  H+  H106  1  0.85165368  0.88970120  0.26324703  1
  H+  H107  1  0.50479320  0.93631314  0.25710338  1
  H+  H108  1  0.09158513  0.92313207  0.10968138  1
  H+  H109  1  0.51041812  1.05743927  0.73762097  1
  H+  H110  1  0.56599626  0.12570941  0.42015204  1
  H+  H111  1  0.14554592  0.34348345  0.26666278  1
  H+  H112  1  0.77106648  0.53837714  0.60112922  1
  H+  H113  1  0.45172132  0.77458923  0.15529075  1
  H+  H114  1  0.21929058  0.77780735  0.39400068  1
  H+  H115  1  0.21007201  0.42653623  0.86569376  1
  H+  H116  1  0.78551775  0.23068586  0.60812245  1
  H+  H117  1  0.55452599  0.43805848  0.40108571  1
  H+  H118  1  0.51513624  0.34914098  0.97155454  1
  H+  H119  1  0.40298721  0.54269320  0.10851072  1
  H+  H120  1  0.78407523  0.90354940  0.59091942  1
  H+  H121  1  0.12935668  0.88870393  0.65510076  1
  H+  H122  1  0.28361115  0.81130333  0.27052865  1
  H+  H123  1  0.11753762  0.55701588  0.59958573  1
  H+  H124  1  0.89843081  0.43364768  0.40662353  1
  H+  H125  1  0.54621207  0.08123162  0.27008204  1
  H+  H126  1  0.28307267  0.46095895  0.99903412  1
  H+  H127  1  0.21834838  0.11436207  0.40002185  1
  H+  H128  1  0.82398122  0.92234966  0.16452106  1
  H+  H129  1  0.77910420  0.52953469  0.07791100  1
  H+  H130  1  0.44860758  0.52890939  0.62506051  1
  H+  H131  1  0.12458478  0.23193212  0.59969080  1
  H+  H132  1  0.45929768  0.88195113  0.63911960  1
  H+  H133  1  0.90817948  0.80665981  0.38233087  1
  H+  H134  1  0.57076044  0.44344207  0.86331501  1
  H+  H135  1  0.41884727  0.82163500  -0.02789781  1
  H+  H136  1  0.69883192  0.18416960  0.73498373  1
  H+  H137  1  0.91330816  0.65983401  0.17010217  1
  H+  H138  1  0.78154428  0.22019586  0.09097082  1
  H+  H139  1  0.18627579  0.74152637  1.05677810  1
  H+  H140  1  0.56044671  0.74930402  0.88893647  1
  H+  H141  1  0.43640601  0.21794087  0.08742640  1
  H+  H142  1  0.85764544  0.76013399  0.89530489  1
  H+  H143  1  0.07571621  0.19715730  0.12198518  1
  O2-  O144  1  0.07588255  0.20378788  0.23213699  1
  O2-  O145  1  0.11919695  0.23479811  0.71945759  1
  O2-  O146  1  0.11816291  0.56337011  0.22015995  1
  O2-  O147  1  0.11308041  0.56047866  0.72338464  1
  O2-  O148  1  0.11645788  0.90238379  0.24115808  1
  O2-  O149  1  0.12168460  0.88721162  0.72327831  1
  O2-  O150  1  0.41602182  0.21892035  0.21095587  1
  O2-  O151  1  0.43592094  0.21796442  0.71453929  1
  O2-  O152  1  0.41415709  0.52761807  0.22753499  1
  O2-  O153  1  0.44455940  0.51092676  0.69429910  1
  O2-  O154  1  0.40239982  0.75864781  0.10061573  1
  O2-  O155  1  0.44790958  0.85681929  0.70561946  1
  O2-  O156  1  0.81867622  0.21666894  0.21398085  1
  O2-  O157  1  0.78065015  0.21929882  0.71440056  1
  O2-  O158  1  0.83315887  0.61419827  0.18815552  1
  O2-  O159  1  0.78873159  0.56215161  0.72052995  1
  O2-  O160  1  0.82511648  0.93809558  0.23273299  1
  O2-  O161  1  0.76176002  0.87626882  0.71105936  1
  O2-  O162  1  0.21027855  0.11765409  0.28355245  1
  O2-  O163  1  0.21667163  0.10659054  0.77980880  1
  O2-  O164  1  0.19503142  0.42518591  0.28770809  1
  O2-  O165  1  0.21438177  0.44758523  0.79694867  1
  O2-  O166  1  0.20197747  0.77154104  0.28273223  1
  O2-  O167  1  0.24036239  0.77971639  0.78834909  1
  O2-  O168  1  0.55974649  0.15128666  0.30161212  1
  O2-  O169  1  0.55965244  0.13341785  0.76263273  1
  O2-  O170  1  0.53634328  0.42396284  0.28251303  1
  O2-  O171  1  0.58548076  0.45747786  0.78528179  1
  O2-  O172  1  0.53439222  0.76406677  0.24449079  1
  O2-  O173  1  0.54703133  0.73140975  0.75677620  1
  O2-  O174  1  0.95623338  0.14701375  0.26638218  1
  O2-  O175  1  0.89903078  0.11132257  0.79029597  1
  O2-  O176  1  0.88667022  0.42833601  0.28771466  1
  O2-  O177  1  0.89459773  0.44640766  0.77691315  1
  O2-  O178  1  0.90474715  0.80823185  0.31119469  1
  O2-  O179  1  0.89633526  0.78000497  0.77057689  1
  O2-  O180  1  0.22213384  0.11272712  0.46831208  1
  O2-  O181  1  0.25271361  0.19253566  0.95020443  1
  O2-  O182  1  0.23073684  0.45165173  0.46942355  1
  O2-  O183  1  0.22478797  0.39420447  0.96038632  1
  O2-  O184  1  0.23385804  0.78461235  0.46293384  1
  O2-  O185  1  0.23443833  0.81616173  1.08869680  1
  O2-  O186  1  0.57067620  0.12102379  0.48723513  1
  O2-  O187  1  0.55916791  0.11247251  0.95638733  1
  O2-  O188  1  0.55233517  0.44110934  0.46850175  1
  O2-  O189  1  0.55927219  0.43004620  0.94834252  1
  O2-  O190  1  0.56103134  0.79476818  0.48043945  1
  O2-  O191  1  0.57547302  0.76485065  0.95403329  1
  O2-  O192  1  0.91318138  0.11175551  0.45615101  1
  O2-  O193  1  0.88433526  0.11477596  0.96272140  1
  O2-  O194  1  0.89892300  0.43245607  0.47449581  1
  O2-  O195  1  0.89832686  0.44383693  0.95979474  1
  O2-  O196  1  0.90885520  0.79920178  0.48256823  1
  O2-  O197  1  0.82131757  0.74167120  0.95564572  1
  O2-  O198  1  0.07918094  0.20130702  0.05249408  1
  O2-  O199  1  0.12757410  0.23468259  0.53207489  1
  O2-  O200  1  0.12032852  0.59992499  0.02940989  1
  O2-  O201  1  0.11349750  0.55304603  0.53197788  1
  O2-  O202  1  0.10349098  0.92714031  0.04351657  1
  O2-  O203  1  0.13266380  0.89689239  0.53974127  1
  O2-  O204  1  0.44535682  0.21890972  0.02032231  1
  O2-  O205  1  0.44114963  0.22497756  0.52880485  1
  O2-  O206  1  0.38668242  0.56482351  0.04816512  1
  O2-  O207  1  0.45243655  0.55875098  0.52446354  1
  O2-  O208  1  0.40758997  0.86357824  -0.07805404  1
  O2-  O209  1  0.45919475  0.90108122  0.53069151  1
  O2-  O210  1  0.77679988  0.22494245  0.02407076  1
  O2-  O211  1  0.78184293  0.23532069  0.53861521  1
  O2-  O212  1  0.76770230  0.52190406  0.01179813  1
  O2-  O213  1  0.75587875  0.51849637  0.53571894  1
  O2-  O214  1  0.82744172  0.90921955  0.06113753  1
  O2-  O215  1  0.78641236  0.90105068  0.52366295  1
