# generated using pymatgen
data_H2O
_symmetry_space_group_name_H-M   'P 1'
_cell_length_a   13.52128414
_cell_length_b   13.52218762
_cell_length_c   14.69947364
_cell_angle_alpha   89.97124463
_cell_angle_beta   90.01507681
_cell_angle_gamma   119.98214092
_symmetry_Int_Tables_number   1
_chemical_formula_structural   H2O
_chemical_formula_sum   'H144 O72'
_cell_volume   2327.95930874
_cell_formula_units_Z   72
loop_
 _symmetry_equiv_pos_site_id
 _symmetry_equiv_pos_as_xyz
  1  'x, y, z'
loop_
 _atom_type_symbol
 _atom_type_oxidation_number
  H+  1.0
  O2-  -2.0
loop_
 _atom_site_type_symbol
 _atom_site_label
 _atom_site_symmetry_multiplicity
 _atom_site_fract_x
 _atom_site_fract_y
 _atom_site_fract_z
 _atom_site_occupancy
  H+  H0  1  0.34976524  0.84466600  0.74430706  1
  H+  H1  1  0.50676821  0.82840772  0.50075001  1
  H+  H2  1  0.53887911  0.12867012  0.24091069  1
  H+  H3  1  0.47232341  0.23808429  0.23331043  1
  H+  H4  1  0.84579979  0.01494238  0.25533930  1
  H+  H5  1  0.96393498  0.49602866  0.75777367  1
  H+  H6  1  0.69175929  0.51344818  0.75291569  1
  H+  H7  1  0.24182764  0.45316344  0.15333314  1
  H+  H8  1  0.97892869  0.48658666  0.97790099  1
  H+  H9  1  0.02459355  0.16861158  0.50973660  1
  H+  H10  1  0.18195060  1.02430466  0.74224279  1
  H+  H11  1  0.17005393  0.81276467  0.98734453  1
  H+  H12  1  0.28460031  0.80865026  0.24946590  1
  H+  H13  1  0.77974718  0.21494063  0.07952675  1
  H+  H14  1  0.48674596  0.46021379  0.98871552  1
  H+  H15  1  0.48200038  0.63897648  0.69879755  1
  H+  H16  1  0.17486469  0.48156060  0.99370565  1
  H+  H17  1  0.13837026  0.29293752  0.00106162  1
  H+  H18  1  0.61983613  0.47791578  0.27533171  1
  H+  H19  1  0.83595668  0.49728486  0.76467994  1
  H+  H20  1  0.27740538  0.13302245  0.97832678  1
  H+  H21  1  0.01041014  0.84571880  0.00980114  1
  H+  H22  1  0.39835715  0.12008883  0.28016354  1
  H+  H23  1  0.16589052  0.80593715  0.24994456  1
  H+  H24  1  0.87299416  0.70801012  0.27028858  1
  H+  H25  1  0.80979542  0.32212201  0.51503285  1
  H+  H26  1  0.13021074  0.95882659  0.00269250  1
  H+  H27  1  0.48169147  0.88283410  0.75604714  1
  H+  H28  1  0.81698214  0.30090584  -0.00579653  1
  H+  H29  1  0.50970210  0.69044055  0.27505575  1
  H+  H30  1  0.13368598  0.17020219  -0.00448368  1
  H+  H31  1  0.85358949  0.66989584  0.53612491  1
  H+  H32  1  0.52958900  0.50231835  0.50074697  1
  H+  H33  1  0.25128082  0.46751024  0.77421011  1
  H+  H34  1  -0.03743366  0.13665823  0.25315266  1
  H+  H35  1  0.50274885  0.12902791  -0.03074190  1
  H+  H36  1  0.84555804  0.15993191  0.97364763  1
  H+  H37  1  0.85592792  0.71357006  0.76892026  1
  H+  H38  1  0.85837793  0.82985307  0.75153355  1
  H+  H39  1  0.97673480  0.83010270  0.26619195  1
  H+  H40  1  0.49653320  0.38537523  0.30114798  1
  H+  H41  1  0.59948026  0.45214100  0.97397262  1
  H+  H42  1  0.51724811  0.49724155  0.75465338  1
  H+  H43  1  0.67745238  0.84215570  0.52054263  1
  H+  H44  1  0.14038809  0.50207569  0.51604759  1
  H+  H45  1  0.82496790  0.10301115  0.47357284  1
  H+  H46  1  0.43825591  0.55744070  0.56891831  1
  H+  H47  1  0.13733331  0.96561497  0.23304761  1
  H+  H48  1  0.13999372  0.16411793  0.50733315  1
  H+  H49  1  0.35389138  0.50188122  0.00961482  1
  H+  H50  1  0.96947289  0.14905653  0.75477064  1
  H+  H51  1  0.62379968  0.13662747  0.97025792  1
  H+  H52  1  0.82741174  0.17468314  0.22569134  1
  H+  H53  1  0.80267500  0.29206858  0.74704438  1
  H+  H54  1  0.85891053  0.49434939  0.22539936  1
  H+  H55  1  0.74950049  0.53500399  0.03047572  1
  H+  H56  1  0.14808765  0.00969205  0.48171744  1
  H+  H57  1  0.51144764  0.32195382  0.52083997  1
  H+  H58  1  0.87008171  0.50221013  0.98548410  1
  H+  H59  1  0.13365356  0.63167139  0.74486592  1
  H+  H60  1  0.47747267  0.95231064  -0.00616194  1
  H+  H61  1  0.96330407  0.80001493  0.41948976  1
  H+  H62  1  0.18136990  0.69714662  0.51277975  1
  H+  H63  1  0.81726536  0.83082782  0.26374443  1
  H+  H64  1  0.02795939  0.51486894  0.52161795  1
  H+  H65  1  0.63600768  0.14674671  0.48926518  1
  H+  H66  1  0.65160437  0.80877740  0.99351991  1
  H+  H67  1  -0.03066795  0.15574129  -0.02344053  1
  H+  H68  1  0.64435039  0.81368899  0.27436336  1
  H+  H69  1  0.86489522  0.24771913  0.52804147  1
  H+  H70  1  0.16577381  0.80647328  0.75037109  1
  H+  H71  1  0.36738164  0.53844848  0.24395444  1
  H+  H72  1  0.35781740  0.51184902  0.48294686  1
  H+  H73  1  0.48574406  0.53760271  0.26580096  1
  H+  H74  1  0.17292797  0.34491001  0.48981026  1
  H+  H75  1  0.19971216  0.09502504  0.88995642  1
  H+  H76  1  0.37192919  0.52231779  0.69946829  1
  H+  H77  1  0.52175799  0.20729029  0.75003311  1
  H+  H78  1  0.48430157  0.95671327  0.23299070  1
  H+  H79  1  0.47980290  -0.03169235  0.52029150  1
  H+  H80  1  0.45764905  0.27583351  0.99464088  1
  H+  H81  1  0.49254306  0.19305353  0.52365668  1
  H+  H82  1  0.03174712  0.85260657  0.73120089  1
  H+  H83  1  0.13029173  0.82260698  0.50417635  1
  H+  H84  1  0.82613891  0.98602520  0.72999523  1
  H+  H85  1  0.75289430  0.56360295  0.20294825  1
  H+  H86  1  1.03403891  0.51499703  0.22387370  1
  H+  H87  1  0.83734272  0.70993989  0.00745344  1
  H+  H88  1  0.57033012  0.16735785  0.82726705  1
  H+  H89  1  0.13106460  0.28655543  0.73689673  1
  H+  H90  1  0.16548967  0.13483304  0.74980533  1
  H+  H91  1  0.55774992  0.78881369  0.36749646  1
  H+  H92  1  0.77016588  0.84587978  0.16857786  1
  H+  H93  1  0.84963617  0.51274387  0.53083474  1
  H+  H94  1  0.13591821  0.46696834  0.76556991  1
  H+  H95  1  0.53887615  0.82415826  0.99236881  1
  H+  H96  1  0.11254288  0.56004880  0.09002430  1
  H+  H97  1  0.53014835  0.75721867  0.77534440  1
  H+  H98  1  0.82295416  0.29200384  0.21572746  1
  H+  H99  1  0.46703143  0.83383188  0.23295474  1
  H+  H100  1  0.15032558  0.63595619  -0.00101354  1
  H+  H101  1  0.45387522  0.32597044  0.73197045  1
  H+  H102  1  0.26946630  0.14218377  0.24920309  1
  H+  H103  1  0.70399016  0.87166291  0.73976004  1
  H+  H104  1  0.72166347  0.56161058  0.53108564  1
  H+  H105  1  0.50340365  0.70613546  0.48733825  1
  H+  H106  1  0.13666072  0.29927914  0.22042669  1
  H+  H107  1  0.80964066  -0.05246779  0.50856644  1
  H+  H108  1  0.85282033  0.15835100  0.75464451  1
  H+  H109  1  0.88465213  0.08062786  0.39125718  1
  H+  H110  1  0.20015145  0.76811100  0.84402128  1
  H+  H111  1  0.44048669  0.89193110  0.61236493  1
  H+  H112  1  0.88947876  0.11764978  0.87682666  1
  H+  H113  1  0.15403505  0.14496882  0.25053013  1
  H+  H114  1  0.09516561  0.88353612  0.14512079  1
  H+  H115  1  0.65665262  0.13366777  0.24901517  1
  H+  H116  1  0.43782389  0.87800220  0.08531054  1
  H+  H117  1  0.77587508  0.22304754  0.65519977  1
  H+  H118  1  0.18982451  0.09496089  0.39801016  1
  H+  H119  1  0.87942784  0.42907786  0.30830928  1
  H+  H120  1  0.10142436  0.21020364  0.64537509  1
  H+  H121  1  0.58983643  0.47088841  0.42731803  1
  H+  H122  1  0.15024355  0.64113870  0.23194145  1
  H+  H123  1  0.20273668  0.43174639  0.90681804  1
  H+  H124  1  0.44828303  0.56083251  0.08839971  1
  H+  H125  1  0.29273529  0.82085903  0.51477243  1
  H+  H126  1  0.09198727  0.21182290  0.13710438  1
  H+  H127  1  0.84016483  0.90997000  0.02624464  1
  H+  H128  1  0.09720306  0.54753338  0.65646003  1
  H+  H129  1  0.76839378  0.89173504  0.62057888  1
  H+  H130  1  0.59304449  0.82600615  0.86195948  1
  H+  H131  1  0.84283297  0.59146512  0.11426011  1
  H+  H132  1  0.19538647  0.41984049  0.40091984  1
  H+  H133  1  0.18324570  0.49791661  0.22077671  1
  H+  H134  1  0.53376898  0.43761696  0.84418438  1
  H+  H135  1  0.55965816  0.10331449  0.40137855  1
  H+  H136  1  0.88289730  0.49047540  0.43600063  1
  H+  H137  1  0.10175983  0.87967427  0.63857744  1
  H+  H138  1  0.41991843  0.18713030  0.07669825  1
  H+  H139  1  0.88976278  0.45738846  0.85881465  1
  H+  H140  1  0.42561247  0.24276856  0.62929516  1
  H+  H141  1  0.78196379  0.57035136  0.67037967  1
  H+  H142  1  0.29040450  0.81385778  0.98208618  1
  H+  H143  1  0.32667217  0.19006136  0.72871877  1
  O2-  O144  1  0.09330945  0.21668969  0.20526430  1
  O2-  O145  1  0.09822536  0.20704519  0.71415140  1
  O2-  O146  1  0.11579875  0.55911607  0.20530253  1
  O2-  O147  1  0.08839376  0.54757957  0.72475404  1
  O2-  O148  1  0.09957476  0.88450422  0.21318953  1
  O2-  O149  1  0.11214757  0.88842212  0.70578687  1
  O2-  O150  1  0.41623416  0.15852158  0.22085792  1
  O2-  O151  1  0.39981385  0.25384087  0.69689452  1
  O2-  O152  1  0.45367936  0.58408914  0.24054673  1
  O2-  O153  1  0.45299934  0.55856243  0.68514554  1
  O2-  O154  1  0.43404458  0.87841785  0.20848495  1
  O2-  O155  1  0.42785380  0.89644658  0.72073487  1
  O2-  O156  1  0.78460556  0.20955722  0.19775827  1
  O2-  O157  1  0.79569247  0.22282906  0.71957240  1
  O2-  O158  1  0.83385862  0.58816245  0.20122972  1
  O2-  O159  1  0.77503300  0.55491670  0.73782835  1
  O2-  O160  1  0.76827851  0.86087770  0.23441923  1
  O2-  O161  1  0.78083109  0.90454333  0.70727440  1
  O2-  O162  1  0.19235147  0.10354585  0.27516243  1
  O2-  O163  1  0.21548667  0.10361137  0.76958504  1
  O2-  O164  1  0.22962518  0.45547416  0.21876355  1
  O2-  O165  1  0.17067784  0.41972832  0.78826040  1
  O2-  O166  1  0.20405128  0.76248142  0.26850272  1
  O2-  O167  1  0.19968424  0.76112227  0.77615461  1
  O2-  O168  1  0.57664039  0.09378095  0.27433789  1
  O2-  O169  1  0.58977035  0.23280974  0.78717397  1
  O2-  O170  1  0.55225251  0.46621128  0.30862616  1
  O2-  O171  1  0.54508524  0.44636483  0.77637581  1
  O2-  O172  1  0.56122930  0.78043104  0.29756933  1
  O2-  O173  1  0.58755433  0.83455934  0.79164581  1
  O2-  O174  1  0.88320288  0.09464823  0.27886720  1
  O2-  O175  1  0.88872468  0.11195767  0.77958676  1
  O2-  O176  1  0.88598982  0.43586991  0.24245645  1
  O2-  O177  1  0.88287296  0.45710813  0.78600944  1
  O2-  O178  1  0.90112248  0.78489981  0.29900645  1
  O2-  O179  1  0.90402733  0.79694603  0.77438329  1
  O2-  O180  1  0.18856835  0.09189777  0.46521047  1
  O2-  O181  1  0.19626575  0.09812689  0.95763454  1
  O2-  O182  1  0.21088807  0.42628437  0.46617972  1
  O2-  O183  1  0.21088966  0.43476709  0.97406991  1
  O2-  O184  1  0.21107582  0.77805694  0.49706030  1
  O2-  O185  1  0.20897339  0.77265685  0.96172025  1
  O2-  O186  1  0.55611087  0.10948596  0.46844931  1
  O2-  O187  1  0.54436530  0.09003131  0.94869158  1
  O2-  O188  1  0.58271459  0.47152412  0.49407142  1
  O2-  O189  1  0.51911743  0.41440093  0.95704460  1
  O2-  O190  1  0.54979370  0.78993454  0.47329473  1
  O2-  O191  1  0.58291003  0.79429338  0.95963697  1
  O2-  O192  1  0.87781515  0.07543400  0.46013566  1
  O2-  O193  1  0.88815578  0.11929258  0.94962340  1
  O2-  O194  1  0.88158016  0.46770102  0.49914322  1
  O2-  O195  1  0.89753094  0.45174695  0.95564517  1
  O2-  O196  1  0.96418129  0.78682615  0.48618970  1
  O2-  O197  1  0.86118990  0.78985680  0.98539323  1
  O2-  O198  1  0.09250183  0.21027769  0.01931975  1
  O2-  O199  1  0.10437892  0.21130563  0.53168919  1
  O2-  O200  1  0.11189771  0.55468241  0.02168279  1
  O2-  O201  1  0.10729585  0.54566934  0.54436417  1
  O2-  O202  1  0.09201915  0.87971113  0.02782655  1
  O2-  O203  1  0.08245578  0.86376808  0.51715851  1
  O2-  O204  1  0.41841675  0.19259401  0.01047344  1
  O2-  O205  1  0.46145552  0.24247891  0.54273513  1
  O2-  O206  1  0.43518946  0.53071665  0.02644501  1
  O2-  O207  1  0.43969150  0.56076925  0.50146635  1
  O2-  O208  1  0.43836881  0.87233098  0.01795174  1
  O2-  O209  1  0.44329883  0.88848542  0.54298572  1
  O2-  O210  1  0.78007746  0.21872775  0.01136721  1
  O2-  O211  1  0.78969950  0.24139772  0.52765872  1
  O2-  O212  1  0.83178564  0.58441075  0.03467978  1
  O2-  O213  1  0.79826674  0.59236632  0.56041145  1
  O2-  O214  1  0.79425515  0.82842332  0.04146339  1
  O2-  O215  1  0.75879883  0.87509120  0.54369174  1
