# generated using pymatgen
data_H2O
_symmetry_space_group_name_H-M   'P 1'
_cell_length_a   13.56233692
_cell_length_b   13.53571017
_cell_length_c   14.70442226
_cell_angle_alpha   89.98284593
_cell_angle_beta   89.98183496
_cell_angle_gamma   120.07712706
_symmetry_Int_Tables_number   1
_chemical_formula_structural   H2O
_chemical_formula_sum   'H144 O72'
_cell_volume   2335.90964086
_cell_formula_units_Z   72
loop_
 _symmetry_equiv_pos_site_id
 _symmetry_equiv_pos_as_xyz
  1  'x, y, z'
loop_
 _atom_type_symbol
 _atom_type_oxidation_number
  H+  1.0
  O2-  -2.0
loop_
 _atom_site_type_symbol
 _atom_site_label
 _atom_site_symmetry_multiplicity
 _atom_site_fract_x
 _atom_site_fract_y
 _atom_site_fract_z
 _atom_site_occupancy
  H+  H0  1  1.02241464  0.17809460  0.49933841  1
  H+  H1  1  0.85073834  0.14985265  0.48707876  1
  H+  H2  1  0.14061990  0.85343721  0.50978615  1
  H+  H3  1  0.93502721  0.49295357  0.26516723  1
  H+  H4  1  0.08614807  0.19293360  0.73569007  1
  H+  H5  1  0.83077936  0.81948490  1.00405463  1
  H+  H6  1  0.36367855  0.84970795  0.78302747  1
  H+  H7  1  0.81308250  0.31333613  0.01265065  1
  H+  H8  1  0.48423369  0.16968649  1.02095230  1
  H+  H9  1  0.51748306  1.04410372  0.48537895  1
  H+  H10  1  0.15944225  0.84627325  0.23524038  1
  H+  H11  1  0.47421022  0.60497509  -0.00391263  1
  H+  H12  1  0.84512103  0.50971287  1.00172300  1
  H+  H13  1  0.13599630  0.84445115  0.75918607  1
  H+  H14  1  0.50613556  0.47415741  0.24683734  1
  H+  H15  1  0.68112553  0.85495859  0.02935578  1
  H+  H16  1  0.57302063  0.13437417  0.35508568  1
  H+  H17  1  0.39786121  0.52426429  0.74353688  1
  H+  H18  1  0.85068659  1.03210654  0.48768362  1
  H+  H19  1  0.17602432  0.69008685  1.01595204  1
  H+  H20  1  0.69956910  0.19125023  0.50371442  1
  H+  H21  1  0.31207784  0.13213774  1.00653287  1
  H+  H22  1  0.88980675  0.77549765  0.39011659  1
  H+  H23  1  0.69412366  0.32579359  0.84171654  1
  H+  H24  1  0.89563411  0.18350051  0.22393507  1
  H+  H25  1  0.21630725  0.78399166  0.88794659  1
  H+  H26  1  0.29402205  0.81983473  0.47659592  1
  H+  H27  1  0.26185748  0.67034918  0.68182841  1
  H+  H28  1  0.18050130  1.01850054  0.76693572  1
  H+  H29  1  0.60297890  0.40726307  0.74973260  1
  H+  H30  1  0.22590881  0.37169564  0.74960599  1
  H+  H31  1  0.44421505  0.54222199  0.14098219  1
  H+  H32  1  0.85033183  0.68837268  0.25972791  1
  H+  H33  1  0.09976126  0.52991061  0.27800324  1
  H+  H34  1  0.52430291  0.69532356  0.25911062  1
  H+  H35  1  0.81796674  0.84701193  0.49856967  1
  H+  H36  1  0.84991975  0.70598410  0.48514629  1
  H+  H37  1  0.15676426  0.64099396  0.47609394  1
  H+  H38  1  0.92774229  0.15252334  1.03368749  1
  H+  H39  1  0.52702642  0.37500164  0.46962952  1
  H+  H40  1  0.51590368  0.69113991  0.49261443  1
  H+  H41  1  0.78112654  0.15565350  0.74248685  1
  H+  H42  1  0.91617786  0.63813844  0.58418183  1
  H+  H43  1  0.98207815  0.50231859  0.72252637  1
  H+  H44  1  0.63531382  0.81058861  0.49360098  1
  H+  H45  1  0.38545393  0.31573665  0.72439219  1
  H+  H46  1  0.14244784  0.95444168  0.01101115  1
  H+  H47  1  0.18633972  0.04154185  0.48634778  1
  H+  H48  1  0.80046574  0.83130877  0.74869246  1
  H+  H49  1  0.52688371  0.54996816  0.73262668  1
  H+  H50  1  0.23439134  0.49356740  0.73961168  1
  H+  H51  1  0.36498435  0.19407639  0.49912549  1
  H+  H52  1  0.36601750  0.49690877  0.22961044  1
  H+  H53  1  0.68026830  0.51208198  0.23414517  1
  H+  H54  1  0.93633467  0.78799866  0.77124865  1
  H+  H55  1  0.78056518  0.27281288  0.74751735  1
  H+  H56  1  0.97562450  0.48046663  0.48099447  1
  H+  H57  1  0.19416379  0.18303135  0.73112034  1
  H+  H58  1  0.51533595  0.19336089  0.24417450  1
  H+  H59  1  0.35625062  0.49112892  1.00564483  1
  H+  H60  1  0.70785520  0.86328637  0.24554857  1
  H+  H61  1  0.52738144  0.49134336  0.47187270  1
  H+  H62  1  0.19207172  0.50058763  0.24777564  1
  H+  H63  1  0.49629376  0.79040487  0.96313249  1
  H+  H64  1  0.44739950  0.54585538  0.58964620  1
  H+  H65  1  0.62991884  0.15219830  -0.00672225  1
  H+  H66  1  0.47424015  0.28437970  0.01268752  1
  H+  H67  1  0.50385120  0.31673606  0.24115481  1
  H+  H68  1  0.81985472  0.30341049  0.24589738  1
  H+  H69  1  0.18004918  0.03607055  0.24810144  1
  H+  H70  1  0.02517068  0.85634181  0.50830970  1
  H+  H71  1  0.23215626  0.44693719  0.89794178  1
  H+  H72  1  0.16918807  0.15614467  1.04328262  1
  H+  H73  1  0.18355048  0.15679540  0.47815548  1
  H+  H74  1  0.51119615  0.83290227  0.73692748  1
  H+  H75  1  0.21473710  0.78366464  0.39024635  1
  H+  H76  1  0.81486168  0.67146196  0.77191277  1
  H+  H77  1  0.80353913  0.19056330  0.01368515  1
  H+  H78  1  0.31051213  0.11317297  0.76797203  1
  H+  H79  1  0.81641262  0.63955026  1.01900675  1
  H+  H80  1  0.85248410  0.36402933  0.49285260  1
  H+  H81  1  0.51902048  0.70714396  0.72072591  1
  H+  H82  1  0.92844915  0.15302158  0.78005081  1
  H+  H83  1  0.01005347  0.53287617  0.76668689  1
  H+  H84  1  0.81153511  0.95653167  0.75205000  1
  H+  H85  1  0.50588603  0.38193328  0.88839732  1
  H+  H86  1  0.76414588  0.53854304  0.66445265  1
  H+  H87  1  0.17040047  0.70533033  0.80289320  1
  H+  H88  1  0.48776198  0.44624532  0.97459668  1
  H+  H89  1  0.84976618  0.52687022  0.52705394  1
  H+  H90  1  0.21849260  0.70650500  0.25431733  1
  H+  H91  1  0.17991869  0.35483873  0.48087859  1
  H+  H92  1  0.36521140  0.50492905  0.50175792  1
  H+  H93  1  0.51673682  0.16337827  0.49247418  1
  H+  H94  1  0.18981258  0.47799553  0.46541265  1
  H+  H95  1  0.97433007  0.80243527  0.26174764  1
  H+  H96  1  0.09664005  0.87766212  0.66608146  1
  H+  H97  1  0.44897942  0.89646078  0.41148199  1
  H+  H98  1  1.04977158  0.13080500  1.02092410  1
  H+  H99  1  1.01568930  0.84289514  1.01206522  1
  H+  H100  1  0.76862422  0.48333189  0.75919559  1
  H+  H101  1  0.61561549  0.15110211  0.75204396  1
  H+  H102  1  0.03370606  0.49868375  0.04476473  1
  H+  H103  1  0.37295491  0.83863264  0.01420926  1
  H+  H104  1  0.16711908  0.80531697  1.01368322  1
  H+  H105  1  0.82402253  0.02898246  1.01239235  1
  H+  H106  1  0.18699225  0.47609413  0.98849555  1
  H+  H107  1  0.58891996  0.77336177  0.90636753  1
  H+  H108  1  0.86301961  0.10045080  0.87109571  1
  H+  H109  1  0.13432337  0.57602567  0.70236928  1
  H+  H110  1  0.79063639  0.50163426  0.24415099  1
  H+  H111  1  0.54901333  0.11361237  0.90528441  1
  H+  H112  1  0.77784182  0.23061768  0.15416874  1
  H+  H113  1  0.22330280  0.12125526  0.32818459  1
  H+  H114  1  0.50824877  0.97850628  0.28187436  1
  H+  H115  1  0.55249619  0.44346093  0.34060067  1
  H+  H116  1  0.48320187  0.85009942  0.49350653  1
  H+  H117  1  0.78489673  0.88471825  0.59154011  1
  H+  H118  1  0.11461591  0.21971923  0.58235378  1
  H+  H119  1  0.47477655  0.96998176  0.76365163  1
  H+  H120  1  0.10616476  0.87712498  0.15080296  1
  H+  H121  1  0.56373208  0.76378436  0.35380597  1
  H+  H122  1  0.13064346  0.54470130  0.11965231  1
  H+  H123  1  0.52355279  0.18915317  0.76840110  1
  H+  H124  1  0.22863174  0.41306910  0.34423623  1
  H+  H125  1  0.82691161  0.98280956  0.22958253  1
  H+  H126  1  0.81845895  0.40582815  0.87718826  1
  H+  H127  1  0.76884620  0.89646238  0.11458314  1
  H+  H128  1  0.08020155  0.17501462  0.17685252  1
  H+  H129  1  0.32399274  0.82965019  0.27520488  1
  H+  H130  1  0.77618703  0.55172456  0.10360493  1
  H+  H131  1  0.46229471  0.22390565  0.14799937  1
  H+  H132  1  0.16533377  0.33241404  0.25818048  1
  H+  H133  1  0.77485308  0.22099790  0.59263551  1
  H+  H134  1  0.44733040  0.25925805  0.58315439  1
  H+  H135  1  0.14575181  0.56282279  0.55880325  1
  H+  H136  1  0.23718314  0.10520129  0.91542941  1
  H+  H137  1  0.48998296  0.95270665  0.00092118  1
  H+  H138  1  0.87369397  0.44075963  0.36029750  1
  H+  H139  1  0.65354925  0.16032070  0.26567564  1
  H+  H140  1  0.50390611  0.85473110  0.28383520  1
  H+  H141  1  0.64391132  0.83399960  0.72197944  1
  H+  H142  1  0.95627658  0.52248812  0.94165368  1
  H+  H143  1  0.86120398  0.77184275  0.91489029  1
  O2-  O144  1  0.04476747  0.18911334  0.23179036  1
  O2-  O145  1  0.16159236  0.23082909  0.70818895  1
  O2-  O146  1  0.16108952  0.55453513  0.23379996  1
  O2-  O147  1  0.20631724  0.58901531  0.67528339  1
  O2-  O148  1  0.11083254  0.87888848  0.21833323  1
  O2-  O149  1  0.09155231  0.87838112  0.73393916  1
  O2-  O150  1  0.47390950  0.23288064  0.21803504  1
  O2-  O151  1  0.45703161  0.33924226  0.69196094  1
  O2-  O152  1  0.44601069  0.54581991  0.20938608  1
  O2-  O153  1  0.47476043  0.57624728  0.71422287  1
  O2-  O154  1  0.46146257  0.89608632  0.29777850  1
  O2-  O155  1  0.44077443  0.88684362  0.75533252  1
  O2-  O156  1  0.78758578  0.22483140  0.22088293  1
  O2-  O157  1  0.75076843  0.20029270  0.71257835  1
  O2-  O158  1  0.76229850  0.54826429  0.21446365  1
  O2-  O159  1  0.73664263  0.52706295  0.72897256  1
  O2-  O160  1  0.78135110  0.90194523  0.21204660  1
  O2-  O161  1  0.77163141  0.88070994  0.72190086  1
  O2-  O162  1  0.21576094  0.11821047  0.26172210  1
  O2-  O163  1  0.23528429  0.09993016  0.78496724  1
  O2-  O164  1  0.22511026  0.41057323  0.27570661  1
  O2-  O165  1  0.26525116  0.45144054  0.77312388  1
  O2-  O166  1  0.23838298  0.78327704  0.27631287  1
  O2-  O167  1  0.21649317  0.78612112  0.81777404  1
  O2-  O168  1  0.57265023  0.12761831  0.28685453  1
  O2-  O169  1  0.54229308  0.12938266  0.78428767  1
  O2-  O170  1  0.54795945  0.43503285  0.27064530  1
  O2-  O171  1  0.52900954  0.33659862  0.76737441  1
  O2-  O172  1  0.56654844  0.77294258  0.28598318  1
  O2-  O173  1  0.55625684  0.79389439  0.71314305  1
  O2-  O174  1  0.92719644  0.13728091  0.19762063  1
  O2-  O175  1  0.85583901  0.09254226  0.80321753  1
  O2-  O176  1  0.86294414  0.43570469  0.29151626  1
  O2-  O177  1  0.77225633  0.37260200  0.81976306  1
  O2-  O178  1  0.89659186  0.76365548  0.28907863  1
  O2-  O179  1  0.85603624  0.75306880  0.79190372  1
  O2-  O180  1  0.23006788  0.12063130  0.46287948  1
  O2-  O181  1  0.23220337  0.09256348  0.98163271  1
  O2-  O182  1  0.22998317  0.43433832  0.45558915  1
  O2-  O183  1  0.22667334  0.43738222  0.96446600  1
  O2-  O184  1  0.21158429  0.77911166  0.45866767  1
  O2-  O185  1  0.21369704  0.77016969  0.99325354  1
  O2-  O186  1  0.56121123  0.12729360  0.47011238  1
  O2-  O187  1  0.54926176  0.10543705  0.97237267  1
  O2-  O188  1  0.56689579  0.45363005  0.44444936  1
  O2-  O189  1  0.51720193  0.39513841  0.95406169  1
  O2-  O190  1  0.55487944  0.77195859  0.47097422  1
  O2-  O191  1  0.51564638  0.73303302  0.93678550  1
  O2-  O192  1  0.89478962  0.11316538  0.46827686  1
  O2-  O193  1  0.86640088  0.11135894  0.98937167  1
  O2-  O194  1  0.89200661  0.44534577  0.46925414  1
  O2-  O195  1  0.88764863  0.46448946  0.97227190  1
  O2-  O196  1  0.88730964  0.78402349  0.46042688  1
  O2-  O197  1  0.87106337  0.77936640  0.98182620  1
  O2-  O198  1  0.11172732  0.17700528  0.06251682  1
  O2-  O199  1  0.10773724  0.22191122  0.51600807  1
  O2-  O200  1  0.11644369  0.54551268  0.05296917  1
  O2-  O201  1  0.12328598  0.55779056  0.49445023  1
  O2-  O202  1  0.09601649  0.87349848  0.03220089  1
  O2-  O203  1  0.10145932  0.89058962  0.53903067  1
  O2-  O204  1  0.44381050  0.20847472  0.04695840  1
  O2-  O205  1  0.44715363  0.23586847  0.51973653  1
  O2-  O206  1  0.43899080  0.52820293  0.02490663  1
  O2-  O207  1  0.44631871  0.54892068  0.52267827  1
  O2-  O208  1  0.45622349  0.87090532  0.01618944  1
  O2-  O209  1  0.44334819  0.89356787  0.47985701  1
  O2-  O210  1  0.76653744  0.23436635  0.03524506  1
  O2-  O211  1  0.78062841  0.22907623  0.52548177  1
  O2-  O212  1  0.78668741  0.55794599  0.03553871  1
  O2-  O213  1  0.83927192  0.58387296  0.56351365  1
  O2-  O214  1  0.76284426  0.89597696  0.04230192  1
  O2-  O215  1  0.77637100  0.88492584  0.52511717  1
