# generated using pymatgen
data_H2O
_symmetry_space_group_name_H-M   'P 1'
_cell_length_a   13.49516269
_cell_length_b   13.49308809
_cell_length_c   14.68321741
_cell_angle_alpha   90.02684450
_cell_angle_beta   89.98741391
_cell_angle_gamma   119.90576089
_symmetry_Int_Tables_number   1
_chemical_formula_structural   H2O
_chemical_formula_sum   'H144 O72'
_cell_volume   2317.67706645
_cell_formula_units_Z   72
loop_
 _symmetry_equiv_pos_site_id
 _symmetry_equiv_pos_as_xyz
  1  'x, y, z'
loop_
 _atom_type_symbol
 _atom_type_oxidation_number
  H+  1.0
  O2-  -2.0
loop_
 _atom_site_type_symbol
 _atom_site_label
 _atom_site_symmetry_multiplicity
 _atom_site_fract_x
 _atom_site_fract_y
 _atom_site_fract_z
 _atom_site_occupancy
  H+  H0  1  0.80698903  0.63471808  0.74528567  1
  H+  H1  1  0.72138069  0.85385500  0.02522592  1
  H+  H2  1  0.29157891  0.13732362  0.76514867  1
  H+  H3  1  0.10147401  0.23500097  0.07362333  1
  H+  H4  1  0.18465332  0.15809744  -0.01297434  1
  H+  H5  1  0.46963158  0.49219219  0.73315979  1
  H+  H6  1  0.17487520  0.37297994  0.97595898  1
  H+  H7  1  0.84743411  0.68975998  0.49812379  1
  H+  H8  1  0.83962901  0.36485850  0.76442785  1
  H+  H9  1  0.27793834  0.79293672  0.74085769  1
  H+  H10  1  0.83161823  0.13484430  0.51208637  1
  H+  H11  1  0.47718218  0.29722835  0.74675991  1
  H+  H12  1  0.95870473  0.35590965  0.35677135  1
  H+  H13  1  0.51238819  0.87364798  1.02053165  1
  H+  H14  1  0.54493409  0.35272283  0.29194336  1
  H+  H15  1  1.03222645  0.83292237  0.51315151  1
  H+  H16  1  0.30009299  0.13691561  0.51441656  1
  H+  H17  1  0.87710433  0.45475362  0.84805980  1
  H+  H18  1  0.17318716  0.47254070  0.74805802  1
  H+  H19  1  0.22243885  0.10417388  0.90746519  1
  H+  H20  1  0.14638331  0.97841268  0.02410317  1
  H+  H21  1  0.80911647  0.18402108  0.74442565  1
  H+  H22  1  0.30669432  0.79943010  0.78668336  1
  H+  H23  1  0.35936707  0.50879183  0.50071842  1
  H+  H24  1  0.81784660  0.30170277  0.51204847  1
  H+  H25  1  0.65529027  0.48105806  0.98082750  1
  H+  H26  1  0.29066367  0.49293863  -0.02569589  1
  H+  H27  1  0.81668442  0.83057236  0.24748041  1
  H+  H28  1  -0.01388206  0.49182257  0.48816506  1
  H+  H29  1  0.69662295  0.19471953  0.74687389  1
  H+  H30  1  0.19151109  0.81259718  0.49010613  1
  H+  H31  1  0.14603319  0.50657420  0.24134614  1
  H+  H32  1  0.80223485  -0.05280966  0.51691883  1
  H+  H33  1  0.01822265  0.50081401  0.73751299  1
  H+  H34  1  0.17573972  1.01582808  0.76766568  1
  H+  H35  1  0.85980148  1.02724013  -0.00965170  1
  H+  H36  1  0.49959602  0.18828586  0.23815052  1
  H+  H37  1  0.49052637  0.84924756  0.23262770  1
  H+  H38  1  0.54055698  0.71997518  0.97919466  1
  H+  H39  1  0.37602755  0.84086168  0.49140862  1
  H+  H40  1  0.90209833  0.48426200  0.40752333  1
  H+  H41  1  0.39568792  0.21081632  0.24508692  1
  H+  H42  1  0.50595989  0.02574832  0.26157718  1
  H+  H43  1  0.02878725  0.18662850  -0.01602206  1
  H+  H44  1  0.77176739  0.55624540  0.60405064  1
  H+  H45  1  0.15451602  0.62695593  0.24138705  1
  H+  H46  1  0.81108180  0.16879922  0.01088364  1
  H+  H47  1  0.11424659  0.91184469  0.25877261  1
  H+  H48  1  0.19109586  0.36549931  0.25632755  1
  H+  H49  1  0.81332771  0.83240975  0.51000272  1
  H+  H50  1  0.63821674  0.15051050  0.49208130  1
  H+  H51  1  0.82762589  0.66922998  0.25883062  1
  H+  H52  1  0.36717626  0.19216361  1.01164564  1
  H+  H53  1  0.51160769  0.15375256  0.76371126  1
  H+  H54  1  0.48861500  0.17066422  0.51448831  1
  H+  H55  1  0.50885268  0.15248473  0.99332160  1
  H+  H56  1  0.63989195  0.82236064  0.24561640  1
  H+  H57  1  0.03231499  0.27163037  0.21664332  1
  H+  H58  1  0.67874750  0.82479691  0.73355897  1
  H+  H59  1  0.18253138  0.79781135  0.25456169  1
  H+  H60  1  0.51518756  0.79617310  0.48541922  1
  H+  H61  1  0.81416330  0.51399735  0.52035150  1
  H+  H62  1  0.15686355  0.51550578  0.51371958  1
  H+  H63  1  0.02976279  0.85607064  0.01547923  1
  H+  H64  1  0.18153343  0.36285951  0.49002296  1
  H+  H65  1  0.36586345  0.84406358  0.23356350  1
  H+  H66  1  0.95741325  0.81585434  0.75891960  1
  H+  H67  1  0.52510128  1.02633551  0.48216099  1
  H+  H68  1  0.85619423  0.80942631  0.99414655  1
  H+  H69  1  0.82495996  -0.04589854  0.25333613  1
  H+  H70  1  0.68225967  0.16607811  0.23797073  1
  H+  H71  1  0.80807057  0.51619648  0.74220734  1
  H+  H72  1  0.94663282  0.78041555  0.26085943  1
  H+  H73  1  0.62876920  0.48148100  0.75652773  1
  H+  H74  1  0.88272993  0.76217203  0.40606176  1
  H+  H75  1  0.51556996  0.85806099  0.70987038  1
  H+  H76  1  0.47628784  0.51157339  0.30800187  1
  H+  H77  1  0.69636822  0.17521827  1.01096779  1
  H+  H78  1  0.52951140  0.37185663  -0.00899622  1
  H+  H79  1  0.50037283  0.65593983  0.50113516  1
  H+  H80  1  0.19356056  0.69586942  0.48910543  1
  H+  H81  1  0.31057829  0.48135566  0.26495215  1
  H+  H82  1  -0.04799733  0.52744509  0.00581599  1
  H+  H83  1  0.23281704  0.20747865  0.29244570  1
  H+  H84  1  0.94347321  0.13460340  0.76647088  1
  H+  H85  1  0.51043458  0.53240140  -0.01436313  1
  H+  H86  1  0.84628276  0.63437128  -0.00661270  1
  H+  H87  1  0.12557364  0.61677622  0.75525262  1
  H+  H88  1  0.63615044  0.79172320  0.49931155  1
  H+  H89  1  0.48878038  0.65967961  0.72964070  1
  H+  H90  1  0.14444986  0.17817812  0.51180821  1
  H+  H91  1  0.11072949  0.81897875  0.76253376  1
  H+  H92  1  0.80031642  0.09908150  0.27003014  1
  H+  H93  1  0.11789639  0.51252330  0.01258646  1
  H+  H94  1  0.91510274  0.16545741  0.31480287  1
  H+  H95  1  0.03406931  0.15859977  0.21745419  1
  H+  H96  1  0.87854077  0.28432420  0.27348629  1
  H+  H97  1  0.82113146  1.02001761  0.75715911  1
  H+  H98  1  0.71214057  0.48977479  0.22216275  1
  H+  H99  1  0.49928135  -0.00777179  1.01610508  1
  H+  H100  1  0.02688299  0.66683854  0.85859465  1
  H+  H101  1  1.02604393  0.17754053  0.50801214  1
  H+  H102  1  0.21330822  0.09091453  0.25849504  1
  H+  H103  1  0.53633490  0.47659863  0.43245415  1
  H+  H104  1  0.83670032  0.81343391  0.76159541  1
  H+  H105  1  0.52244358  0.70661180  0.26080800  1
  H+  H106  1  0.53329330  1.04705672  0.75516280  1
  H+  H107  1  0.34688881  0.48863749  0.72767765  1
  H+  H108  1  0.55433357  0.44264154  0.84724791  1
  H+  H109  1  0.77441953  0.23117844  0.60556350  1
  H+  H110  1  0.60960808  0.83210908  0.91641949  1
  H+  H111  1  0.49175924  0.73023568  0.81514179  1
  H+  H112  1  0.16513851  0.69678286  1.02021526  1
  H+  H113  1  0.45896822  0.90356811  0.11792934  1
  H+  H114  1  0.10522905  0.86616177  0.66142065  1
  H+  H115  1  0.23280625  0.77332506  0.34530126  1
  H+  H116  1  0.49009848  0.52857969  0.20405140  1
  H+  H117  1  0.46772269  0.88939992  0.57329022  1
  H+  H118  1  0.08962123  0.54296707  0.11271425  1
  H+  H119  1  0.41211837  0.87750463  0.70957475  1
  H+  H120  1  0.43844069  0.53623827  0.59045367  1
  H+  H121  1  0.22325018  0.44455601  0.40327597  1
  H+  H122  1  0.89174849  0.77705148  0.89898457  1
  H+  H123  1  0.12376296  0.15851393  0.76390530  1
  H+  H124  1  0.45442574  0.57025973  0.06213132  1
  H+  H125  1  0.54616934  0.10825794  0.90402844  1
  H+  H126  1  0.48398603  0.28546881  0.51091333  1
  H+  H127  1  0.76425092  0.87021412  0.64967872  1
  H+  H128  1  0.85232784  0.07995313  0.42407337  1
  H+  H129  1  0.76324262  0.19470401  0.14762118  1
  H+  H130  1  0.22946071  0.10547311  0.42430128  1
  H+  H131  1  0.87224322  0.09607324  0.89689539  1
  H+  H132  1  0.11401115  0.55665562  0.60123981  1
  H+  H133  1  0.17603996  0.81981803  0.01858211  1
  H+  H134  1  0.80555474  0.89091942  0.10932722  1
  H+  H135  1  0.79564343  0.54144533  0.13774101  1
  H+  H136  1  0.14969263  0.95126540  0.52096568  1
  H+  H137  1  0.44189623  0.21633133  0.65914048  1
  H+  H138  1  0.15279339  0.74314005  0.89327137  1
  H+  H139  1  0.21535706  0.44253114  0.83853380  1
  H+  H140  1  0.45398022  0.23498222  0.09750630  1
  H+  H141  1  0.09494885  0.87071040  0.15434419  1
  H+  H142  1  0.55008128  0.10813405  0.35022997  1
  H+  H143  1  1.12498511  0.27644987  0.75410496  1
  O2-  O144  1  0.07928192  0.23771201  0.19673697  1
  O2-  O145  1  0.07631304  0.19282264  0.74745444  1
  O2-  O146  1  0.10650522  0.54709484  0.21992988  1
  O2-  O147  1  0.10054388  0.54578395  0.71934960  1
  O2-  O148  1  0.08808934  0.84446246  0.22061151  1
  O2-  O149  1  0.09687819  0.87492447  0.72792296  1
  O2-  O150  1  0.47220545  0.24201623  0.21733737  1
  O2-  O151  1  0.43788194  0.21514750  0.72687201  1
  O2-  O152  1  0.45932699  0.54944920  0.25592004  1
  O2-  O153  1  0.42807144  0.52841522  0.70358519  1
  O2-  O154  1  0.44763157  0.89076470  0.21166649  1
  O2-  O155  1  0.49204844  0.91365551  0.68894904  1
  O2-  O156  1  0.76038182  0.18749444  0.21677396  1
  O2-  O157  1  0.77610180  0.23208807  0.72201202  1
  O2-  O158  1  0.78993749  0.54593242  0.20447376  1
  O2-  O159  1  0.76484744  0.55448333  0.72142699  1
  O2-  O160  1  0.78709680  0.87980387  0.22091078  1
  O2-  O161  1  0.76027238  0.87378860  0.71784827  1
  O2-  O162  1  0.25935346  0.15268952  0.30076051  1
  O2-  O163  1  0.21389528  0.09531293  0.79251622  1
  O2-  O164  1  0.22947023  0.44147319  0.28518839  1
  O2-  O165  1  0.21518530  0.43399566  0.77082661  1
  O2-  O166  1  0.23516535  0.77154642  0.27716963  1
  O2-  O167  1  0.10421521  0.71431716  0.83492756  1
  O2-  O168  1  0.54554167  0.10706497  0.28211509  1
  O2-  O169  1  0.55826086  0.11969882  0.78797162  1
  O2-  O170  1  0.59068719  0.41879869  0.33451046  1
  O2-  O171  1  0.54749936  0.43859570  0.77959926  1
  O2-  O172  1  0.55792784  0.79053750  0.26138980  1
  O2-  O173  1  0.52530609  0.74161468  0.75460406  1
  O2-  O174  1  0.85595180  0.08388093  0.30449314  1
  O2-  O175  1  0.85887086  0.09857335  0.78285619  1
  O2-  O176  1  0.95423420  0.30979020  0.30380401  1
  O2-  O177  1  0.88026704  0.44832917  0.78123031  1
  O2-  O178  1  0.86803274  0.74843247  0.28569340  1
  O2-  O179  1  0.87790670  0.77405164  0.78477260  1
  O2-  O180  1  0.22022906  0.09609887  0.49078749  1
  O2-  O181  1  0.22524659  0.11435137  0.97565316  1
  O2-  O182  1  0.22540864  0.44638882  0.47125109  1
  O2-  O183  1  0.21015819  0.45487848  0.95562107  1
  O2-  O184  1  0.23405206  0.77561584  0.46419505  1
  O2-  O185  1  0.20767744  0.77406496  0.99183846  1
  O2-  O186  1  0.55801268  0.10912360  0.46748229  1
  O2-  O187  1  0.54493910  0.10675640  0.97239396  1
  O2-  O188  1  0.49687672  0.42656289  0.38022077  1
  O2-  O189  1  0.57349872  0.45165427  0.96599784  1
  O2-  O190  1  0.55284231  0.74775081  0.47734373  1
  O2-  O191  1  0.58118671  0.80622473  0.97796320  1
  O2-  O192  1  0.86473244  0.08708207  0.49109258  1
  O2-  O193  1  0.88837371  0.10489716  0.96423589  1
  O2-  O194  1  0.90656809  0.44488913  0.46171059  1
  O2-  O195  1  0.89062261  0.51943248  0.96136578  1
  O2-  O196  1  0.88925672  0.77088079  0.47363431  1
  O2-  O197  1  0.89722399  0.77175789  0.96703238  1
  O2-  O198  1  0.11002417  0.23290462  0.00687342  1
  O2-  O199  1  0.10972294  0.22750478  0.51136815  1
  O2-  O200  1  0.08008161  0.54929967  0.04427270  1
  O2-  O201  1  0.11719008  0.55825542  0.53305082  1
  O2-  O202  1  0.10403077  0.89876556  0.04904673  1
  O2-  O203  1  0.11192770  0.86862298  0.53787490  1
  O2-  O204  1  0.45012644  0.23256618  0.02953004  1
  O2-  O205  1  0.44761565  0.21024430  0.53961286  1
  O2-  O206  1  0.46938325  0.57672080  -0.00319594  1
  O2-  O207  1  0.44209945  0.54764683  0.52242215  1
  O2-  O208  1  0.46957224  0.91106622  0.04443670  1
  O2-  O209  1  0.46016268  0.87853272  0.50585478  1
  O2-  O210  1  0.77224066  0.20694355  0.03966344  1
  O2-  O211  1  0.77315014  0.22359508  0.53735842  1
  O2-  O212  1  0.81359725  0.55060370  0.01021105  1
  O2-  O213  1  0.77685803  0.55812769  0.53615703  1
  O2-  O214  1  0.80341630  0.88963863  0.04056277  1
  O2-  O215  1  0.76408875  0.86374837  0.53383845  1
