# generated using pymatgen
data_H2O
_symmetry_space_group_name_H-M   'P 1'
_cell_length_a   13.53284054
_cell_length_b   13.51607534
_cell_length_c   14.70415890
_cell_angle_alpha   89.97503198
_cell_angle_beta   90.05206495
_cell_angle_gamma   119.97434031
_symmetry_Int_Tables_number   1
_chemical_formula_structural   H2O
_chemical_formula_sum   'H144 O72'
_cell_volume   2329.82039601
_cell_formula_units_Z   72
loop_
 _symmetry_equiv_pos_site_id
 _symmetry_equiv_pos_as_xyz
  1  'x, y, z'
loop_
 _atom_type_symbol
 _atom_type_oxidation_number
  H+  1.0
  O2-  -2.0
loop_
 _atom_site_type_symbol
 _atom_site_label
 _atom_site_symmetry_multiplicity
 _atom_site_fract_x
 _atom_site_fract_y
 _atom_site_fract_z
 _atom_site_occupancy
  H+  H0  1  0.29888072  0.82959549  0.98419369  1
  H+  H1  1  0.17574299  0.70742691  0.46985441  1
  H+  H2  1  0.19276800  0.83336689  0.74243744  1
  H+  H3  1  0.20528895  0.72354348  0.74589139  1
  H+  H4  1  0.38842894  0.18867843  0.24470578  1
  H+  H5  1  -0.00505361  0.06887667  0.58532141  1
  H+  H6  1  0.17200781  0.13689411  0.50358544  1
  H+  H7  1  0.30615623  0.16596229  0.50156881  1
  H+  H8  1  0.18662966  0.86006721  0.24962172  1
  H+  H9  1  0.08820806  0.86323077  0.08566830  1
  H+  H10  1  -0.04705906  0.15366478  -0.01095935  1
  H+  H11  1  0.82185606  0.27165819  0.51317274  1
  H+  H12  1  0.08999748  0.53845392  0.80651335  1
  H+  H13  1  0.65025998  0.83708537  0.73843949  1
  H+  H14  1  0.17160955  0.54519105  0.00310391  1
  H+  H15  1  0.45521307  0.31812151  0.79725046  1
  H+  H16  1  0.49891531  -0.00281713  0.22319250  1
  H+  H17  1  0.83367227  0.67395351  0.27962074  1
  H+  H18  1  0.02914325  0.17873896  0.52732617  1
  H+  H19  1  0.13716994  0.83003408  -0.00301975  1
  H+  H20  1  0.85087675  0.82498186  0.52997587  1
  H+  H21  1  -0.01576898  0.44224852  0.24258773  1
  H+  H22  1  0.50860011  0.70630656  -0.02631476  1
  H+  H23  1  0.37801232  0.17435561  0.00610671  1
  H+  H24  1  0.52710128  0.15363349  0.77597360  1
  H+  H25  1  0.47759395  0.18382249  0.52802648  1
  H+  H26  1  0.15954866  0.97850402  0.72228708  1
  H+  H27  1  0.51111545  0.66456271  0.50669725  1
  H+  H28  1  0.82077387  0.30504972  0.74459533  1
  H+  H29  1  0.49640534  0.87321497  0.71295192  1
  H+  H30  1  0.79356846  0.63432280  0.54232882  1
  H+  H31  1  0.64829858  0.16196438  0.77544294  1
  H+  H32  1  0.83049996  0.86301126  0.72980807  1
  H+  H33  1  0.12733419  0.23887026  -0.07558422  1
  H+  H34  1  0.48834907  0.30047633  0.01804077  1
  H+  H35  1  0.18232513  0.85941821  0.48661500  1
  H+  H36  1  0.85384219  0.04372562  0.76274447  1
  H+  H37  1  0.50749246  0.66174188  0.72576127  1
  H+  H38  1  0.81517700  0.62876241  0.00790023  1
  H+  H39  1  0.20769626  0.40364307  0.50041689  1
  H+  H40  1  0.87439619  0.35083637  0.97938339  1
  H+  H41  1  0.24987582  0.11341342  0.35993649  1
  H+  H42  1  0.49640473  0.53395449  0.01729288  1
  H+  H43  1  0.46632216  0.85162980  0.00547073  1
  H+  H44  1  0.89774499  0.49720378  0.75390270  1
  H+  H45  1  0.52153034  0.49062318  0.49902935  1
  H+  H46  1  0.11246264  0.54792094  0.14920128  1
  H+  H47  1  0.95922709  0.80966882  0.98369710  1
  H+  H48  1  0.83701442  0.27009105  0.16849581  1
  H+  H49  1  0.09338239  0.94487029  0.21775488  1
  H+  H50  1  0.48274652  0.30613980  0.51516054  1
  H+  H51  1  0.36236683  0.88885901  0.23308232  1
  H+  H52  1  0.63461631  0.81967125  0.25889011  1
  H+  H53  1  0.81828561  0.96152977  0.27270922  1
  H+  H54  1  0.53323085  0.16125674  0.23692418  1
  H+  H55  1  0.48241039  0.52026826  0.23947567  1
  H+  H56  1  0.45663393  0.22856303  0.14962945  1
  H+  H57  1  0.52638291  0.07534876  0.61539159  1
  H+  H58  1  0.19938738  0.12047269  0.98028168  1
  H+  H59  1  0.78784118  0.67527558  0.77028177  1
  H+  H60  1  0.69990812  0.50708185  0.53394258  1
  H+  H61  1  0.52733609  0.15136745  1.00175144  1
  H+  H62  1  0.64375265  0.48878520  0.02869002  1
  H+  H63  1  0.83095006  0.79128192  0.27695477  1
  H+  H64  1  -0.03676059  0.45107443  0.48030068  1
  H+  H65  1  0.83311336  0.46808610  0.23797800  1
  H+  H66  1  0.30356716  0.47748595  0.26182908  1
  H+  H67  1  0.18890432  1.00060115  -0.01581843  1
  H+  H68  1  0.33056622  0.52460983  -0.02054881  1
  H+  H69  1  0.25936316  0.02553345  0.29518822  1
  H+  H70  1  0.38156388  0.87712827  0.72202236  1
  H+  H71  1  0.60999094  0.83423882  0.95923373  1
  H+  H72  1  0.81467457  0.18228271  0.02960512  1
  H+  H73  1  0.38739339  0.53022563  0.73134825  1
  H+  H74  1  0.76361085  0.07316936  0.51077944  1
  H+  H75  1  0.14888436  0.64788146  1.00875753  1
  H+  H76  1  0.71755041  0.42890702  0.19292056  1
  H+  H77  1  0.20610655  0.41454180  0.97131762  1
  H+  H78  1  0.19070251  0.30845722  0.74636195  1
  H+  H79  1  0.52237117  0.36984208  0.26412582  1
  H+  H80  1  0.18838882  0.35710929  0.27874023  1
  H+  H81  1  0.63686074  0.48817383  0.27733531  1
  H+  H82  1  0.79452102  0.21884143  0.65398673  1
  H+  H83  1  0.55132802  0.44684111  1.10622904  1
  H+  H84  1  0.55969637  0.78717111  0.39232742  1
  H+  H85  1  0.73486452  0.50279543  0.76888052  1
  H+  H86  1  0.47517692  0.84133122  0.48828152  1
  H+  H87  1  0.63980651  0.86404743  0.47317470  1
  H+  H88  1  0.99070883  0.47022203  0.97553957  1
  H+  H89  1  0.84367305  0.02891157  1.00417754  1
  H+  H90  1  0.70471024  0.19192557  0.03468401  1
  H+  H91  1  0.83317590  0.85062858  0.02708798  1
  H+  H92  1  0.35898913  0.15357428  0.73889212  1
  H+  H93  1  0.99643949  0.81806334  0.23582900  1
  H+  H94  1  0.51003000  0.02691805  0.51907073  1
  H+  H95  1  0.15678574  0.15933620  0.26834794  1
  H+  H96  1  0.86720411  0.10668140  0.86237003  1
  H+  H97  1  0.15968071  0.53828822  0.50322801  1
  H+  H98  1  0.18498180  0.99394322  0.49172924  1
  H+  H99  1  0.51703239  0.82186460  0.25183963  1
  H+  H100  1  -0.14517723  0.77340122  0.43279327  1
  H+  H101  1  0.81659892  0.95787219  0.57083653  1
  H+  H102  1  -0.03411968  0.13068528  0.31713198  1
  H+  H103  1  0.71482290  0.83388865  0.05682732  1
  H+  H104  1  0.38700474  0.55047157  0.50609912  1
  H+  H105  1  0.30493034  0.81844108  0.47422315  1
  H+  H106  1  0.18799998  0.14417273  0.76242489  1
  H+  H107  1  0.86604738  0.15490298  0.29816835  1
  H+  H108  1  0.43596541  0.89870836  0.13516496  1
  H+  H109  1  0.24139382  0.84218337  0.34111557  1
  H+  H110  1  0.08571237  0.18835290  0.20022718  1
  H+  H111  1  0.22744805  0.78967780  0.89081617  1
  H+  H112  1  0.02913899  0.44928005  0.73227570  1
  H+  H113  1  0.79588898  0.89667385  0.17756164  1
  H+  H114  1  0.73307481  0.55315199  0.67078230  1
  H+  H115  1  0.44461305  0.21898517  0.65842267  1
  H+  H116  1  0.43002109  0.87467541  0.57844850  1
  H+  H117  1  0.46464291  0.57883888  0.63208127  1
  H+  H118  1  0.26631074  0.47229710  0.83843150  1
  H+  H119  1  0.55197746  0.44436217  0.41096378  1
  H+  H120  1  0.61337240  0.12950878  0.29721851  1
  H+  H121  1  0.85862262  0.77158636  0.90850251  1
  H+  H122  1  0.52809674  0.44464731  0.82265028  1
  H+  H123  1  0.14346655  0.90702163  0.58165503  1
  H+  H124  1  0.80842754  0.03189587  0.42898456  1
  H+  H125  1  0.56049681  0.79265676  0.82215293  1
  H+  H126  1  0.15459457  0.50706930  0.23621463  1
  H+  H127  1  0.14933116  0.24508605  0.02989615  1
  H+  H128  1  0.47780017  0.63576324  0.23926642  1
  H+  H129  1  0.91850815  0.76938449  0.78167445  1
  H+  H130  1  0.69352317  0.17406125  0.54350686  1
  H+  H131  1  0.11372885  0.21014922  0.67586143  1
  H+  H132  1  0.23589640  0.46128826  0.40223395  1
  H+  H133  1  0.44922444  0.57789008  0.09529896  1
  H+  H134  1  0.10743798  0.57319514  0.58501754  1
  H+  H135  1  0.04467775  0.86306735  0.69228326  1
  H+  H136  1  0.48514707  0.97978180  0.01106282  1
  H+  H137  1  0.80604308  0.54515269  0.08690714  1
  H+  H138  1  0.83921263  0.17157160  0.76169239  1
  H+  H139  1  0.87845130  0.43064685  0.84977276  1
  H+  H140  1  0.89210391  0.38497970  0.39305962  1
  H+  H141  1  0.57245512  0.11466625  0.91490361  1
  H+  H142  1  0.21157032  0.48593167  0.74836877  1
  H+  H143  1  0.22194544  0.08116713  0.84089604  1
  O2-  O144  1  0.11081375  0.19746017  0.26350186  1
  O2-  O145  1  0.13771302  0.22527008  0.74030195  1
  O2-  O146  1  0.10253718  0.53423565  0.21601741  1
  O2-  O147  1  0.09807454  0.52302367  0.74268461  1
  O2-  O148  1  0.07176002  0.86593161  0.20325013  1
  O2-  O149  1  0.12754573  0.90089878  0.68758339  1
  O2-  O150  1  0.46644265  0.23437626  0.21800035  1
  O2-  O151  1  0.44149563  0.19991377  0.72400710  1
  O2-  O152  1  0.43922185  0.55616787  0.21480253  1
  O2-  O153  1  0.46769501  0.57898955  0.70308494  1
  O2-  O154  1  0.44049277  0.90706076  0.20628306  1
  O2-  O155  1  0.45158921  0.90479273  0.68525382  1
  O2-  O156  1  0.86575743  0.27275138  0.23195419  1
  O2-  O157  1  0.79708461  0.22461155  0.72408750  1
  O2-  O158  1  0.78197743  0.49802782  0.21790851  1
  O2-  O159  1  0.71490317  0.55508540  0.73866378  1
  O2-  O160  1  0.77933546  0.88413071  0.24387018  1
  O2-  O161  1  0.80973521  0.91887064  0.70190829  1
  O2-  O162  1  0.25518059  0.09693734  0.29429164  1
  O2-  O163  1  0.21655067  0.08803160  0.77385178  1
  O2-  O164  1  0.22708851  0.43984169  0.29222811  1
  O2-  O165  1  0.26482735  0.46089732  0.77039558  1
  O2-  O166  1  0.26007017  0.88737085  0.28341834  1
  O2-  O167  1  0.23674052  0.80028671  0.77124697  1
  O2-  O168  1  0.56922555  0.11118403  0.24108830  1
  O2-  O169  1  0.57280810  0.12240010  0.80415932  1
  O2-  O170  1  0.55393190  0.45023667  0.28681900  1
  O2-  O171  1  0.45483394  0.37731862  0.83635792  1
  O2-  O172  1  0.55136892  0.77793132  0.27580303  1
  O2-  O173  1  0.56831319  0.79266286  0.75473933  1
  O2-  O174  1  0.88263324  0.09730122  0.32490591  1
  O2-  O175  1  0.87749155  0.11813175  0.79431727  1
  O2-  O176  1  0.90021639  0.38865284  0.26636311  1
  O2-  O177  1  0.84455050  0.42803979  0.78654985  1
  O2-  O178  1  0.87643206  0.75503711  0.29616413  1
  O2-  O179  1  0.84322964  0.76051137  0.79116755  1
  O2-  O180  1  0.22695555  0.11849377  0.47343867  1
  O2-  O181  1  0.23863097  0.08074215  0.95963221  1
  O2-  O182  1  0.24299543  0.47795455  0.47032192  1
  O2-  O183  1  0.25395993  0.49327501  0.94877471  1
  O2-  O184  1  0.22334814  0.78912964  0.45017401  1
  O2-  O185  1  0.22042959  0.78446692  0.95834111  1
  O2-  O186  1  0.54501651  0.10142780  0.55201240  1
  O2-  O187  1  0.56596911  0.10772445  0.98395573  1
  O2-  O188  1  0.55153036  0.44092146  0.47825223  1
  O2-  O189  1  0.55770198  0.45057465  1.04006350  1
  O2-  O190  1  0.56439159  0.79549667  0.46005644  1
  O2-  O191  1  0.53096148  0.78139387  0.94238969  1
  O2-  O192  1  0.76428023  0.00407368  0.48643642  1
  O2-  O193  1  0.87087655  0.10452902  0.97476839  1
  O2-  O194  1  0.88892823  0.38813405  0.46011588  1
  O2-  O195  1  0.93105624  0.40888485  0.93708851  1
  O2-  O196  1  0.81310259  0.75743108  0.49049148  1
  O2-  O197  1  0.87455106  0.77484695  0.97523771  1
  O2-  O198  1  0.10655085  0.25856822  -0.01726722  1
  O2-  O199  1  0.06187632  0.14249936  0.56462764  1
  O2-  O200  1  0.11891237  0.56822309  0.03044571  1
  O2-  O201  1  0.11093011  0.57225004  0.51861320  1
  O2-  O202  1  0.09580376  0.87072953  0.01821960  1
  O2-  O203  1  0.14705597  0.90909368  0.51219899  1
  O2-  O204  1  0.45371788  0.21845909  0.03594072  1
  O2-  O205  1  0.43501780  0.22533216  0.53774533  1
  O2-  O206  1  0.45844016  0.58069626  0.02764816  1
  O2-  O207  1  0.46611006  0.58424367  0.53087241  1
  O2-  O208  1  0.43432525  0.89659651  0.03342700  1
  O2-  O209  1  0.42812321  0.87572769  0.50941417  1
  O2-  O210  1  0.78648155  0.23239218  0.05344371  1
  O2-  O211  1  0.77595870  0.19799774  0.55006900  1
  O2-  O212  1  0.77927827  0.54694490  0.02502741  1
  O2-  O213  1  0.76925550  0.55762169  0.56899547  1
  O2-  O214  1  0.79552798  0.89187118  0.05735099  1
  O2-  O215  1  0.86775266  0.94115552  0.61123696  1
