# generated using pymatgen
data_H2O
_symmetry_space_group_name_H-M   'P 1'
_cell_length_a   13.52691085
_cell_length_b   13.52630657
_cell_length_c   14.70042125
_cell_angle_alpha   89.94849611
_cell_angle_beta   89.96049991
_cell_angle_gamma   119.99943102
_symmetry_Int_Tables_number   1
_chemical_formula_structural   H2O
_chemical_formula_sum   'H144 O72'
_cell_volume   2329.37926191
_cell_formula_units_Z   72
loop_
 _symmetry_equiv_pos_site_id
 _symmetry_equiv_pos_as_xyz
  1  'x, y, z'
loop_
 _atom_type_symbol
 _atom_type_oxidation_number
  H+  1.0
  O2-  -2.0
loop_
 _atom_site_type_symbol
 _atom_site_label
 _atom_site_symmetry_multiplicity
 _atom_site_fract_x
 _atom_site_fract_y
 _atom_site_fract_z
 _atom_site_occupancy
  H+  H0  1  0.89802658  0.77273196  0.36188493  1
  H+  H1  1  0.16673420  0.29662146  0.50561466  1
  H+  H2  1  0.10066438  0.58600032  0.22789625  1
  H+  H3  1  0.69943593  0.87175443  0.05966670  1
  H+  H4  1  0.81730185  0.51683623  0.01060294  1
  H+  H5  1  -0.13061745  0.15591179  0.25858814  1
  H+  H6  1  0.15801717  0.58366410  -0.06981458  1
  H+  H7  1  0.47379168  0.63284731  0.73787026  1
  H+  H8  1  0.81466248  0.51800750  0.74320068  1
  H+  H9  1  0.34000095  0.14496313  0.23308052  1
  H+  H10  1  0.13840442  0.50953535  0.74533782  1
  H+  H11  1  0.50900111  0.14259803  0.27987350  1
  H+  H12  1  0.40334245  0.56793669  0.26503490  1
  H+  H13  1  0.66138806  0.50080241  0.25938940  1
  H+  H14  1  0.51634712  0.37679089  0.76718910  1
  H+  H15  1  0.22175372  0.17880544  0.97697088  1
  H+  H16  1  0.14696894  0.84926256  0.22857402  1
  H+  H17  1  0.85156773  0.69281201  0.27325813  1
  H+  H18  1  0.17285263  0.70113423  0.52449314  1
  H+  H19  1  0.83885929  0.36654417  0.75717346  1
  H+  H20  1  0.81107324  0.46957040  0.27556755  1
  H+  H21  1  0.19937847  0.05307201  0.97784634  1
  H+  H22  1  0.50599596  0.04060398  0.75863172  1
  H+  H23  1  0.65009110  0.49945120  -0.01411028  1
  H+  H24  1  0.14491660  0.91175706  0.63059017  1
  H+  H25  1  0.37205535  0.84418262  0.52311126  1
  H+  H26  1  0.49391218  0.63917585  -0.00212233  1
  H+  H27  1  0.54610645  0.45164347  0.39399904  1
  H+  H28  1  0.63712547  0.80446818  0.94430018  1
  H+  H29  1  0.36660450  0.85371352  0.74305140  1
  H+  H30  1  0.18146409  0.18585363  0.51247336  1
  H+  H31  1  0.86028020  1.03233782  0.27382792  1
  H+  H32  1  0.05806934  0.09412524  0.02965641  1
  H+  H33  1  0.17534086  0.35776142  0.73922675  1
  H+  H34  1  0.14400568  0.88320598  -0.01075972  1
  H+  H35  1  0.84504466  0.69426165  0.49265369  1
  H+  H36  1  0.47625242  0.50847504  0.25463804  1
  H+  H37  1  0.85971507  1.01934513  0.75393752  1
  H+  H38  1  1.03887005  0.17268580  0.73310605  1
  H+  H39  1  0.94697722  0.83279566  0.99031534  1
  H+  H40  1  0.53197399  0.70047559  0.50258100  1
  H+  H41  1  -0.03730070  0.48328592  -0.01240615  1
  H+  H42  1  0.83929275  0.85200433  0.25822499  1
  H+  H43  1  0.35479259  0.51116374  0.73893666  1
  H+  H44  1  -0.02350752  0.82824203  0.73233190  1
  H+  H45  1  0.38917396  0.51473408  0.50923498  1
  H+  H46  1  0.02312359  0.83486075  0.22893986  1
  H+  H47  1  0.01918036  0.51234070  0.75553049  1
  H+  H48  1  0.71230425  0.85513799  0.51139669  1
  H+  H49  1  0.49416000  0.15678665  0.00523891  1
  H+  H50  1  0.54832771  0.11932399  0.89372403  1
  H+  H51  1  0.95182847  0.15500040  0.98813259  1
  H+  H52  1  0.45457339  0.26781412  0.22701250  1
  H+  H53  1  0.15526150  0.31261227  0.97094330  1
  H+  H54  1  0.93207687  0.47436255  0.50998136  1
  H+  H55  1  0.80843783  0.28175428  0.23819329  1
  H+  H56  1  0.68973800  0.19636161  0.74347957  1
  H+  H57  1  0.17788049  0.74392369  0.98650784  1
  H+  H58  1  0.14249206  0.27689273  0.23778394  1
  H+  H59  1  0.17767958  0.70092981  0.76241337  1
  H+  H60  1  0.52816473  0.34459496  0.34643650  1
  H+  H61  1  0.37316825  0.17281480  0.00704515  1
  H+  H62  1  0.85742358  0.81753504  0.49136140  1
  H+  H63  1  0.14862754  0.42378131  -0.02270505  1
  H+  H64  1  0.81548953  0.84216496  0.73541427  1
  H+  H65  1  0.44916052  0.55606841  0.60700907  1
  H+  H66  1  0.21687284  0.77909206  0.35403686  1
  H+  H67  1  0.51859288  1.01889087  0.49396721  1
  H+  H68  1  0.51533664  0.82158584  0.74617066  1
  H+  H69  1  0.51842837  0.02909478  0.97858214  1
  H+  H70  1  0.50096447  0.45165912  0.54646509  1
  H+  H71  1  0.49413744  0.86137511  0.26793917  1
  H+  H72  1  0.17160798  0.01137427  0.23438296  1
  H+  H73  1  0.52425956  0.03191878  0.27931856  1
  H+  H74  1  0.63197026  0.81294041  0.74359272  1
  H+  H75  1  0.51097793  0.49342471  0.76794835  1
  H+  H76  1  0.86219600  0.70936990  0.74434735  1
  H+  H77  1  0.37661149  0.86553996  0.99008125  1
  H+  H78  1  0.48856759  0.85445874  -0.01972375  1
  H+  H79  1  0.64427073  0.13818654  0.49363836  1
  H+  H80  1  0.09187923  0.49388712  0.53742293  1
  H+  H81  1  0.02404540  0.16113669  0.24457376  1
  H+  H82  1  0.80778058  0.85587311  0.02861017  1
  H+  H83  1  0.17971087  0.13273343  0.24597524  1
  H+  H84  1  0.69729916  0.60881844  0.20074587  1
  H+  H85  1  0.84252970  0.36451423  0.99210185  1
  H+  H86  1  0.78940546  0.50190677  0.51828253  1
  H+  H87  1  0.69282452  0.19006398  1.00379527  1
  H+  H88  1  0.37493572  0.20713983  0.72173116  1
  H+  H89  1  0.49357664  0.84804432  0.52009317  1
  H+  H90  1  0.66490369  0.83862421  0.27686645  1
  H+  H91  1  0.83567034  1.03989916  -0.00785980  1
  H+  H92  1  0.17387911  -0.01468862  0.72025315  1
  H+  H93  1  0.70054865  0.52629863  0.74755472  1
  H+  H94  1  0.56214096  0.46149162  0.89072113  1
  H+  H95  1  0.50913355  0.16207455  0.75397055  1
  H+  H96  1  0.15327976  0.45118916  0.25776298  1
  H+  H97  1  0.91999348  0.45706844  0.27981804  1
  H+  H98  1  -0.01677000  0.15129616  0.49612815  1
  H+  H99  1  0.81009360  0.18861156  -0.00228220  1
  H+  H100  1  0.52738116  0.50601543  -0.00854494  1
  H+  H101  1  0.55049481  0.72117975  0.26709336  1
  H+  H102  1  0.26085735  0.44887763  0.21889394  1
  H+  H103  1  0.82090636  0.17324420  0.51577340  1
  H+  H104  1  0.38127672  0.87260058  0.27198821  1
  H+  H105  1  0.22958201  0.89671986  0.35826123  1
  H+  H106  1  0.83750936  0.70930912  1.00408977  1
  H+  H107  1  0.23180103  0.50289279  0.47132639  1
  H+  H108  1  0.09472837  0.18914247  0.10559641  1
  H+  H109  1  0.07774182  0.55156943  0.62473168  1
  H+  H110  1  0.55799721  0.10596305  0.39153483  1
  H+  H111  1  0.24458700  0.43823389  0.38839642  1
  H+  H112  1  0.22055044  0.80609500  0.89111423  1
  H+  H113  1  0.10373230  0.90828885  0.08231487  1
  H+  H114  1  0.18774381  0.82404356  0.74784349  1
  H+  H115  1  0.46546037  0.57131597  0.09319787  1
  H+  H116  1  0.76484780  0.55585853  0.60515905  1
  H+  H117  1  0.20395342  0.82978134  0.49788557  1
  H+  H118  1  0.56927612  0.78226729  0.41467563  1
  H+  H119  1  0.20671327  0.42163789  0.83323983  1
  H+  H120  1  0.77802169  0.88558031  0.64905559  1
  H+  H121  1  0.11746793  0.21650135  0.64162593  1
  H+  H122  1  0.19193962  0.15931115  0.74208247  1
  H+  H123  1  0.54416768  0.76544062  0.87006367  1
  H+  H124  1  0.41597219  0.27105178  0.48326589  1
  H+  H125  1  0.43980068  0.18693896  0.10727855  1
  H+  H126  1  0.76266002  0.54405833  0.09788196  1
  H+  H127  1  0.80465002  0.23156942  0.13976713  1
  H+  H128  1  0.83267370  0.97305277  0.51091016  1
  H+  H129  1  0.85309513  0.42811315  0.41996611  1
  H+  H130  1  0.03565582  0.47853426  0.16558303  1
  H+  H131  1  0.90238823  0.11748656  0.40939376  1
  H+  H132  1  0.09553650  0.90661092  0.45287180  1
  H+  H133  1  0.21791717  0.02417565  0.47287229  1
  H+  H134  1  0.47305669  0.28088214  0.64787112  1
  H+  H135  1  0.19481565  0.59550634  0.03156354  1
  H+  H136  1  0.24247793  0.12499732  0.82763885  1
  H+  H137  1  0.80490424  0.28411494  0.51620968  1
  H+  H138  1  0.87753504  0.44367478  0.84870755  1
  H+  H139  1  0.77072726  0.22406625  0.65773751  1
  H+  H140  1  0.61176384  0.44200710  0.53897950  1
  H+  H141  1  0.44903965  0.89784344  0.65575950  1
  H+  H142  1  0.80327383  0.90115891  0.17127261  1
  H+  H143  1  0.89626258  0.10528608  0.83731171  1
  O2-  O144  1  0.10244884  0.19819769  0.21385794  1
  O2-  O145  1  0.12047945  0.22117046  0.70983347  1
  O2-  O146  1  0.06076410  0.50250916  0.22817345  1
  O2-  O147  1  0.10085424  0.55605201  0.73249248  1
  O2-  O148  1  0.09731721  0.87211316  0.19533874  1
  O2-  O149  1  0.13718483  0.90480977  0.69682190  1
  O2-  O150  1  0.42779717  0.18763268  0.21399676  1
  O2-  O151  1  0.45988442  0.25396734  0.71157328  1
  O2-  O152  1  0.45985193  0.56441406  0.22565903  1
  O2-  O153  1  0.43744937  0.55010825  0.72072770  1
  O2-  O154  1  0.45903782  0.90599960  0.24649594  1
  O2-  O155  1  0.44829687  0.89837356  0.72405832  1
  O2-  O156  1  0.83959029  0.24349926  0.20118580  1
  O2-  O157  1  0.77011645  0.24109953  0.72311141  1
  O2-  O158  1  0.72350257  0.55591001  0.21822242  1
  O2-  O159  1  0.77727177  0.56086758  0.71946950  1
  O2-  O160  1  0.80019306  0.89520413  0.23896049  1
  O2-  O161  1  0.76853062  0.87833510  0.71658503  1
  O2-  O162  1  0.22025191  0.08995715  0.25836560  1
  O2-  O163  1  0.23931438  0.12312044  0.76049665  1
  O2-  O164  1  0.20864105  0.42452859  0.27079553  1
  O2-  O165  1  0.21126587  0.43705101  0.76651669  1
  O2-  O166  1  0.23643459  0.84434609  0.31380233  1
  O2-  O167  1  0.22199610  0.78311638  0.78051981  1
  O2-  O168  1  0.55761277  0.11323787  0.30524775  1
  O2-  O169  1  0.54365955  0.12010535  0.78338797  1
  O2-  O170  1  0.54472783  0.42234230  0.33239564  1
  O2-  O171  1  0.55425236  0.45669689  0.79346332  1
  O2-  O172  1  0.58275630  0.79595961  0.29685434  1
  O2-  O173  1  0.54894047  0.77297241  0.76402165  1
  O2-  O174  1  0.90349061  0.11471882  0.29152932  1
  O2-  O175  1  0.91299888  0.09929871  0.77316687  1
  O2-  O176  1  0.84125792  0.42449957  0.30323604  1
  O2-  O177  1  0.88364611  0.44893899  0.78143961  1
  O2-  O178  1  0.89854037  0.77301069  0.29166529  1
  O2-  O179  1  0.89991609  0.79159665  0.75986699  1
  O2-  O180  1  0.26547360  0.14309228  0.50146740  1
  O2-  O181  1  0.25537380  0.13294557  0.95577312  1
  O2-  O182  1  0.25463930  0.44731255  0.45527563  1
  O2-  O183  1  0.19210460  0.39199630  0.94928253  1
  O2-  O184  1  0.23188098  0.77396786  0.49785048  1
  O2-  O185  1  0.22330579  0.81966874  0.95909313  1
  O2-  O186  1  0.56211046  0.10003657  0.46983185  1
  O2-  O187  1  0.55273625  0.11438217  0.96256969  1
  O2-  O188  1  0.52617101  0.39406631  0.53981244  1
  O2-  O189  1  0.56779973  0.46394759  0.96312947  1
  O2-  O190  1  0.56705888  0.78177848  0.48251948  1
  O2-  O191  1  0.55422170  0.76822094  0.93953261  1
  O2-  O192  1  0.90120267  0.11471357  0.47727823  1
  O2-  O193  1  0.87345790  0.11692515  0.96346533  1
  O2-  O194  1  0.85258472  0.42486135  0.48770164  1
  O2-  O195  1  0.88163521  0.44751981  0.97150384  1
  O2-  O196  1  0.89221566  0.77245566  0.46733875  1
  O2-  O197  1  0.86253234  0.78975512  0.98968932  1
  O2-  O198  1  0.08873819  0.17624966  0.03675290  1
  O2-  O199  1  0.12606262  0.21695031  0.52643059  1
  O2-  O200  1  0.12809113  0.57107109  -0.00758950  1
  O2-  O201  1  0.06997569  0.54949289  0.55562626  1
  O2-  O202  1  0.10507931  0.92311988  0.01543533  1
  O2-  O203  1  0.17730751  0.93487665  0.45955177  1
  O2-  O204  1  0.44959629  0.19712449  0.03790517  1
  O2-  O205  1  0.35860423  0.21811189  0.43922789  1
  O2-  O206  1  0.46641494  0.56291288  0.02685755  1
  O2-  O207  1  0.46434874  0.55691603  0.53984076  1
  O2-  O208  1  0.45842057  0.90171605  0.00572561  1
  O2-  O209  1  0.45486283  0.89110331  0.54020312  1
  O2-  O210  1  0.77394905  0.23166022  0.02423959  1
  O2-  O211  1  0.76911279  0.20246950  0.53541663  1
  O2-  O212  1  0.77294802  0.55458146  0.03139795  1
  O2-  O213  1  0.75262711  0.54684900  0.53751994  1
  O2-  O214  1  0.78241101  0.91058329  0.05525664  1
  O2-  O215  1  0.79333398  0.89156562  0.53173108  1
