# generated using pymatgen
data_H2O
_symmetry_space_group_name_H-M   'P 1'
_cell_length_a   13.52830341
_cell_length_b   13.51230280
_cell_length_c   14.65018810
_cell_angle_alpha   90.12212443
_cell_angle_beta   89.94039157
_cell_angle_gamma   119.99844789
_symmetry_Int_Tables_number   1
_chemical_formula_structural   H2O
_chemical_formula_sum   'H144 O72'
_cell_volume   2319.27550775
_cell_formula_units_Z   72
loop_
 _symmetry_equiv_pos_site_id
 _symmetry_equiv_pos_as_xyz
  1  'x, y, z'
loop_
 _atom_type_symbol
 _atom_type_oxidation_number
  H+  1.0
  O2-  -2.0
loop_
 _atom_site_type_symbol
 _atom_site_label
 _atom_site_symmetry_multiplicity
 _atom_site_fract_x
 _atom_site_fract_y
 _atom_site_fract_z
 _atom_site_occupancy
  H+  H0  1  0.51936231  0.14346165  0.76619208  1
  H+  H1  1  0.77640247  0.64802813  0.59793020  1
  H+  H2  1  0.30711007  0.14208643  0.49035529  1
  H+  H3  1  0.69382482  0.85504368  0.22547175  1
  H+  H4  1  0.35782844  0.16084837  0.74466457  1
  H+  H5  1  0.52287772  0.17064995  0.30187175  1
  H+  H6  1  0.87133053  0.35097267  0.76822430  1
  H+  H7  1  0.86073621  0.39123764  0.13819991  1
  H+  H8  1  0.50629660  0.99672266  0.51974503  1
  H+  H9  1  0.50632316  1.05145647  0.26806342  1
  H+  H10  1  0.65261853  0.52822089  0.54792589  1
  H+  H11  1  0.15727003  0.84500309  0.46089501  1
  H+  H12  1  0.82570712  0.68169240  0.24880415  1
  H+  H13  1  0.46328436  0.45512335  0.20704671  1
  H+  H14  1  0.45630400  0.27793480  0.51521304  1
  H+  H15  1  0.18318071  0.87461804  0.01583541  1
  H+  H16  1  0.79059162  0.86038991  0.74784374  1
  H+  H17  1  0.53186044  0.14933523  0.99975665  1
  H+  H18  1  0.65276756  0.84626655  0.48782398  1
  H+  H19  1  0.47201435  0.28015260  0.75576571  1
  H+  H20  1  0.99828206  0.50639779  0.99968496  1
  H+  H21  1  0.69372036  0.15881714  0.26286252  1
  H+  H22  1  0.83027247  0.19717256  0.02819105  1
  H+  H23  1  0.17925830  0.49883067  0.48378871  1
  H+  H24  1  0.82402155  0.99193816  0.51681572  1
  H+  H25  1  0.50148272  0.74647206  0.26375834  1
  H+  H26  1  0.69795746  0.18011871  0.58527284  1
  H+  H27  1  0.85956123  0.49488597  -0.00947421  1
  H+  H28  1  0.52361854  0.86515977  0.23545461  1
  H+  H29  1  0.45949866  0.61541589  0.01550123  1
  H+  H30  1  0.85713542  0.15835342  0.53975276  1
  H+  H31  1  0.19407986  0.15028768  0.47485462  1
  H+  H32  1  0.75733441  0.49599392  0.72112850  1
  H+  H33  1  0.85524222  0.15901144  0.75827586  1
  H+  H34  1  0.83858319  1.12893623  0.25626365  1
  H+  H35  1  0.52095782  0.35725236  0.14208709  1
  H+  H36  1  0.17052198  0.70032754  0.46577962  1
  H+  H37  1  0.16172909  0.95018700  0.73276230  1
  H+  H38  1  0.47884259  0.66972059  0.50392027  1
  H+  H39  1  0.86964532  0.33164635  0.52057258  1
  H+  H40  1  0.19882444  0.80846970  0.76697554  1
  H+  H41  1  0.84612970  0.49834759  0.55844387  1
  H+  H42  1  0.73243472  0.88364240  1.00041119  1
  H+  H43  1  0.51093453  0.70346213  0.77704482  1
  H+  H44  1  0.14148707  0.17597079  0.18466179  1
  H+  H45  1  0.18190689  0.47983583  0.74750672  1
  H+  H46  1  0.36601368  0.85341866  1.04877680  1
  H+  H47  1  0.14528357  0.50014190  0.23291190  1
  H+  H48  1  0.16631200  0.34568360  0.25997226  1
  H+  H49  1  0.88557165  0.47330845  0.77960138  1
  H+  H50  1  0.50868067  0.86994862  0.51336417  1
  H+  H51  1  0.16749614  0.63716390  0.73860570  1
  H+  H52  1  0.48748577  0.85128949  0.74655399  1
  H+  H53  1  0.52339997  0.42606281  0.86945653  1
  H+  H54  1  1.02976089  0.17387411  0.73236962  1
  H+  H55  1  0.96857152  0.15999920  0.50303322  1
  H+  H56  1  0.56472820  0.11157093  0.42256018  1
  H+  H57  1  0.28667637  0.45633978  0.74587733  1
  H+  H58  1  0.18741796  0.69235178  0.23690331  1
  H+  H59  1  0.50984476  0.80471931  1.02384375  1
  H+  H60  1  0.67706241  0.54051106  0.49982142  1
  H+  H61  1  0.27420863  0.46485785  0.98424516  1
  H+  H62  1  0.51483832  0.14716820  0.50839576  1
  H+  H63  1  0.07422884  0.21628793  0.12412756  1
  H+  H64  1  0.35650439  0.85031051  0.19354079  1
  H+  H65  1  1.05666452  0.82909386  0.75133866  1
  H+  H66  1  0.17394303  0.14054125  0.74778767  1
  H+  H67  1  0.81632802  0.62660352  0.99711744  1
  H+  H68  1  0.39920271  0.19439344  1.06018375  1
  H+  H69  1  0.50119678  0.47895075  0.99830335  1
  H+  H70  1  0.06918240  0.87949346  0.00687253  1
  H+  H71  1  1.04178239  0.87056375  0.46260574  1
  H+  H72  1  0.02243251  0.82789891  0.23722722  1
  H+  H73  1  0.52561873  1.02922086  0.00400704  1
  H+  H74  1  0.84317251  1.00456293  0.24278299  1
  H+  H75  1  0.31380452  0.51671759  0.48208132  1
  H+  H76  1  0.29105531  0.45321702  0.25650843  1
  H+  H77  1  0.67639777  0.49004270  0.20777251  1
  H+  H78  1  0.79691989  0.44566927  0.57905365  1
  H+  H79  1  0.80129777  0.57878352  0.80588231  1
  H+  H80  1  0.43664146  0.56986681  0.58303336  1
  H+  H81  1  0.29992133  0.15240363  0.33599940  1
  H+  H82  1  0.69631806  0.17841216  0.72835959  1
  H+  H83  1  0.16048043  0.30135920  0.50466205  1
  H+  H84  1  0.85443967  0.81332460  0.98309038  1
  H+  H85  1  0.31661293  0.81144243  0.76678092  1
  H+  H86  1  0.59900486  0.46700003  0.78107831  1
  H+  H87  1  0.89867119  0.07406438  0.99377500  1
  H+  H88  1  0.21117896  0.06639651  1.05728419  1
  H+  H89  1  0.88252272  0.75993879  0.49364632  1
  H+  H90  1  0.52563350  0.44825911  0.44762570  1
  H+  H91  1  0.47330939  0.57273382  0.23863612  1
  H+  H92  1  0.14708054  0.51512539  -0.00174439  1
  H+  H93  1  0.86813253  0.86310780  0.47150792  1
  H+  H94  1  0.88427278  0.78358964  0.70538964  1
  H+  H95  1  0.62414397  0.82493467  0.77571439  1
  H+  H96  1  0.45066724  0.45988335  0.72604385  1
  H+  H97  1  0.50046625  0.29856369  0.00969250  1
  H+  H98  1  0.80333342  0.83370077  0.23004052  1
  H+  H99  1  0.17271107  -0.01478350  0.46822323  1
  H+  H100  1  0.05158104  0.51543913  0.73781241  1
  H+  H101  1  0.14564528  0.29234247  0.73531084  1
  H+  H102  1  0.19418526  0.70942426  0.99886962  1
  H+  H103  1  0.79842429  0.49792856  0.21794392  1
  H+  H104  1  0.18018211  0.80746309  0.24248584  1
  H+  H105  1  0.37159371  0.39956148  0.64264220  1
  H+  H106  1  1.03848254  0.49535187  0.50442642  1
  H+  H107  1  0.96639972  0.13316295  0.23772505  1
  H+  H108  1  0.62576380  0.48547988  0.99179475  1
  H+  H109  1  0.20514341  0.43816926  0.89031327  1
  H+  H110  1  0.11623054  0.89009205  0.16095383  1
  H+  H111  1  0.20564167  0.09395992  0.83586597  1
  H+  H112  1  0.70265070  0.17509732  0.02489970  1
  H+  H113  1  0.21827819  0.77244679  0.37247692  1
  H+  H114  1  0.90569651  0.13495041  0.84930317  1
  H+  H115  1  0.45677649  0.33330670  0.39220821  1
  H+  H116  1  0.49291854  0.97296577  0.74423321  1
  H+  H117  1  0.79702765  0.97985488  0.75001821  1
  H+  H118  1  0.88029583  0.77427267  0.88976425  1
  H+  H119  1  0.46214809  0.90068096  0.61144109  1
  H+  H120  1  0.50365477  0.33120278  0.25205260  1
  H+  H121  1  0.77433539  0.90050099  0.59787524  1
  H+  H122  1  0.56809496  0.10736168  0.85207865  1
  H+  H123  1  0.84091145  0.33881115  0.23298435  1
  H+  H124  1  0.12375836  0.55954759  0.58922947  1
  H+  H125  1  0.11561523  0.55316548  0.09487679  1
  H+  H126  1  0.12071093  0.21901443  0.59092479  1
  H+  H127  1  0.57221105  0.82215367  0.39901069  1
  H+  H128  1  0.87296043  0.39106462  0.42824445  1
  H+  H129  1  0.77582586  0.54729384  0.08746739  1
  H+  H130  1  0.24724993  0.78834805  0.91279617  1
  H+  H131  1  0.89128809  0.65645814  0.62169811  1
  H+  H132  1  0.80362473  0.90715506  0.08906526  1
  H+  H133  1  0.08877053  0.28991701  0.98307109  1
  H+  H134  1  0.76351816  0.18678093  0.16676191  1
  H+  H135  1  0.90695577  0.43715621  0.90959366  1
  H+  H136  1  0.02554618  0.49634004  0.21621520  1
  H+  H137  1  0.23071606  0.18341206  1.02008292  1
  H+  H138  1  0.87112147  0.77148476  0.33348074  1
  H+  H139  1  0.53972347  0.77251772  0.92759491  1
  H+  H140  1  0.95513738  0.90358165  0.75679556  1
  H+  H141  1  0.43883656  0.20733946  0.60987614  1
  H+  H142  1  0.41158113  0.52231898  0.09538683  1
  H+  H143  1  0.22180072  0.44765846  0.38996650  1
  O2-  O144  1  0.09106580  0.20875628  0.18971609  1
  O2-  O145  1  0.11054934  0.21239218  0.71045204  1
  O2-  O146  1  0.10970459  0.54229514  0.20571210  1
  O2-  O147  1  0.12726523  0.56000008  0.70783423  1
  O2-  O148  1  0.10556281  0.86827920  0.22614123  1
  O2-  O149  1  0.12917492  0.86790214  0.71857486  1
  O2-  O150  1  0.46188351  0.24859069  0.31395365  1
  O2-  O151  1  0.44033693  0.20303503  0.72775198  1
  O2-  O152  1  0.41925227  0.50100067  0.20938525  1
  O2-  O153  1  0.40205751  0.46932995  0.67920710  1
  O2-  O154  1  0.43905214  0.90403209  0.17412047  1
  O2-  O155  1  0.45212922  0.89344317  0.71769674  1
  O2-  O156  1  0.77137848  0.18628163  0.23592706  1
  O2-  O157  1  0.77946821  0.22077625  0.70718740  1
  O2-  O158  1  0.76172857  0.54272614  0.20051439  1
  O2-  O159  1  0.82608645  0.55326504  0.75261930  1
  O2-  O160  1  0.77473321  0.88573321  0.20625965  1
  O2-  O161  1  0.74955456  0.89965680  0.72652615  1
  O2-  O162  1  0.34355582  0.18023306  0.27839829  1
  O2-  O163  1  0.21226083  0.09676081  0.76946625  1
  O2-  O164  1  0.21233700  0.42537422  0.28258497  1
  O2-  O165  1  0.21095257  0.43069833  0.77437484  1
  O2-  O166  1  0.23202275  0.77409052  0.25458446  1
  O2-  O167  1  0.23798509  0.76794130  0.79259649  1
  O2-  O168  1  0.55827434  0.11905350  0.30397568  1
  O2-  O169  1  0.56690913  0.10861028  0.78361868  1
  O2-  O170  1  0.53628483  0.40121586  0.19922428  1
  O2-  O171  1  0.51983333  0.41854448  0.79943814  1
  O2-  O172  1  0.55926852  0.82679990  0.27056711  1
  O2-  O173  1  0.54391933  0.78086349  0.80131463  1
  O2-  O174  1  0.88718273  0.08887344  0.26631711  1
  O2-  O175  1  0.89346891  0.11798626  0.78286745  1
  O2-  O176  1  0.87598498  0.41493502  0.20238510  1
  O2-  O177  1  0.91914093  0.42580767  0.79930449  1
  O2-  O178  1  0.86557915  0.76435567  0.26574785  1
  O2-  O179  1  0.89788637  0.82318128  0.76603925  1
  O2-  O180  1  0.23546200  0.11107683  0.45296489  1
  O2-  O181  1  0.24848809  0.14939434  1.07156519  1
  O2-  O182  1  0.22760343  0.46017992  0.45958697  1
  O2-  O183  1  0.19591464  0.43526539  0.95839255  1
  O2-  O184  1  0.20683061  0.77796546  0.43958327  1
  O2-  O185  1  0.24249421  0.79070971  0.98095381  1
  O2-  O186  1  0.56115381  0.10967277  0.49112548  1
  O2-  O187  1  0.56656661  0.10465340  0.97365813  1
  O2-  O188  1  0.45340849  0.37636011  0.44810280  1
  O2-  O189  1  0.54411498  0.44134248  0.97343768  1
  O2-  O190  1  0.57068043  0.81091194  0.46591264  1
  O2-  O191  1  0.54583293  0.76459632  0.99425595  1
  O2-  O192  1  0.88455872  0.12216890  0.49595172  1
  O2-  O193  1  0.93035611  0.15554245  0.97358510  1
  O2-  O194  1  0.92122310  0.37985943  0.47147697  1
  O2-  O195  1  0.90942963  0.45844484  0.97667282  1
  O2-  O196  1  0.90469681  0.81986342  0.44670683  1
  O2-  O197  1  0.88276249  0.76448594  0.95609656  1
  O2-  O198  1  0.04920599  0.20991621  0.00806357  1
  O2-  O199  1  0.12169805  0.22044032  0.52263972  1
  O2-  O200  1  0.11116192  0.55893649  0.02600949  1
  O2-  O201  1  0.12009834  0.55316610  0.52077254  1
  O2-  O202  1  0.14363321  0.91620577  0.03740447  1
  O2-  O203  1  0.12301949  0.89833668  0.48288045  1
  O2-  O204  1  0.48296309  0.23243758  0.04914843  1
  O2-  O205  1  0.43607519  0.20115623  0.54195632  1
  O2-  O206  1  0.41579789  0.53114055  0.02733198  1
  O2-  O207  1  0.41826802  0.59283382  0.52449937  1
  O2-  O208  1  0.44657871  0.89005012  0.07352087  1
  O2-  O209  1  0.46669891  0.90817933  0.54145078  1
  O2-  O210  1  0.77638590  0.21522265  0.05909963  1
  O2-  O211  1  0.77929175  0.21970715  0.60562794  1
  O2-  O212  1  0.77927917  0.54506552  0.01822064  1
  O2-  O213  1  0.85757388  0.70413731  0.60749618  1
  O2-  O214  1  0.81198132  0.91750742  0.02147562  1
  O2-  O215  1  0.78304270  0.90580662  0.53061945  1
