# generated using pymatgen
data_H2O
_symmetry_space_group_name_H-M   'P 1'
_cell_length_a   13.53269974
_cell_length_b   13.52224791
_cell_length_c   14.69447585
_cell_angle_alpha   90.00899865
_cell_angle_beta   90.01715838
_cell_angle_gamma   119.98829178
_symmetry_Int_Tables_number   1
_chemical_formula_structural   H2O
_chemical_formula_sum   'H144 O72'
_cell_volume   2328.99872123
_cell_formula_units_Z   72
loop_
 _symmetry_equiv_pos_site_id
 _symmetry_equiv_pos_as_xyz
  1  'x, y, z'
loop_
 _atom_type_symbol
 _atom_type_oxidation_number
  H+  1.0
  O2-  -2.0
loop_
 _atom_site_type_symbol
 _atom_site_label
 _atom_site_symmetry_multiplicity
 _atom_site_fract_x
 _atom_site_fract_y
 _atom_site_fract_z
 _atom_site_occupancy
  H+  H0  1  0.85225239  0.19785524  0.49330907  1
  H+  H1  1  0.84478987  0.02873614  1.00402421  1
  H+  H2  1  0.89411596  0.49854632  0.27093254  1
  H+  H3  1  1.10292046  0.86248390  0.16244828  1
  H+  H4  1  0.89534080  0.74880586  0.25616572  1
  H+  H5  1  0.83389002  0.51720821  0.50671327  1
  H+  H6  1  0.31707971  0.48624824  0.49427705  1
  H+  H7  1  0.24127017  0.12056641  0.27041847  1
  H+  H8  1  0.68973331  0.84275180  0.00743402  1
  H+  H9  1  0.47573260  0.84912257  0.02483374  1
  H+  H10  1  0.46840603  0.62399326  0.74863649  1
  H+  H11  1  0.48155293  0.30211978  0.24250398  1
  H+  H12  1  0.90550826  0.78746417  0.39957243  1
  H+  H13  1  0.84379181  0.15248492  0.24152679  1
  H+  H14  1  1.00143877  0.84588176  0.74320095  1
  H+  H15  1  -0.02261968  0.15062296  0.46185557  1
  H+  H16  1  0.73949179  0.20133470  0.50583477  1
  H+  H17  1  0.81692532  0.18084703  1.01169827  1
  H+  H18  1  0.48379217  0.80423622  0.76241538  1
  H+  H19  1  0.28064950  0.85870940  0.99372729  1
  H+  H20  1  0.80934102  0.64389417  0.73034854  1
  H+  H21  1  0.88042368  0.37265864  0.49551077  1
  H+  H22  1  0.17483069  0.24378784  0.70841372  1
  H+  H23  1  0.51922583  0.69896312  0.00141070  1
  H+  H24  1  0.64527887  0.47539451  0.96869630  1
  H+  H25  1  0.15915225  -0.00230783  0.50650472  1
  H+  H26  1  0.18253845  0.12807673  0.78327369  1
  H+  H27  1  0.39325860  0.17088929  0.22181108  1
  H+  H28  1  0.85201927  1.03983656  0.73490250  1
  H+  H29  1  0.59790284  0.47540509  0.26615184  1
  H+  H30  1  0.50898590  0.35782397  0.75429398  1
  H+  H31  1  0.45359902  0.21695004  0.65415373  1
  H+  H32  1  0.69451218  0.52289212  0.72815263  1
  H+  H33  1  0.79950256  0.82718006  0.00885944  1
  H+  H34  1  0.17091768  0.52111785  0.23666782  1
  H+  H35  1  0.51472662  0.51806112  1.00614653  1
  H+  H36  1  0.17567210  0.63627848  0.54806111  1
  H+  H37  1  0.52924263  0.70991421  0.48614910  1
  H+  H38  1  0.50201537  -0.13623171  0.50207698  1
  H+  H39  1  0.77730764  0.56235475  0.24183482  1
  H+  H40  1  0.65491711  0.49855186  0.49073435  1
  H+  H41  1  0.24300153  0.46086095  1.01446850  1
  H+  H42  1  0.67341179  0.83942934  0.24067496  1
  H+  H43  1  0.15132502  0.68914335  0.74968093  1
  H+  H44  1  0.72224009  0.86316680  0.68114965  1
  H+  H45  1  0.57533434  0.78014129  0.34501601  1
  H+  H46  1  0.51316991  0.13722010  0.76308989  1
  H+  H47  1  0.19722203  0.47846058  0.50595493  1
  H+  H48  1  0.10188438  0.54802576  0.09563814  1
  H+  H49  1  0.60270120  0.81198977  0.78249369  1
  H+  H50  1  0.17014254  0.00811488  0.75736337  1
  H+  H51  1  0.15976885  0.30007347  0.49606601  1
  H+  H52  1  0.51967524  0.14619003  -0.01213805  1
  H+  H53  1  0.49859540  0.53010591  0.51898986  1
  H+  H54  1  0.98646522  0.82087779  1.03551073  1
  H+  H55  1  0.85080694  0.83701768  0.26181834  1
  H+  H56  1  0.12589679  0.17438254  0.24526640  1
  H+  H57  1  0.14126728  0.17216198  0.50711165  1
  H+  H58  1  0.49393402  0.30392735  -0.00509853  1
  H+  H59  1  0.48460639  -0.01951514  0.24553866  1
  H+  H60  1  0.80743544  0.30229684  0.75563093  1
  H+  H61  1  0.96216460  0.16135485  0.74928847  1
  H+  H62  1  0.11892298  0.83750628  0.75312560  1
  H+  H63  1  0.83156567  0.85042925  0.48320410  1
  H+  H64  1  0.27110392  0.79919770  0.75821347  1
  H+  H65  1  0.81254180  0.65369606  -0.00367951  1
  H+  H66  1  -0.03472052  0.48130855  -0.01304778  1
  H+  H67  1  0.11885335  0.87702493  0.01983304  1
  H+  H68  1  0.02037060  0.18900857  0.22652161  1
  H+  H69  1  0.36610811  0.16895760  0.73816306  1
  H+  H70  1  0.56343739  0.17391966  0.49313476  1
  H+  H71  1  0.53175592  0.69867315  0.25402153  1
  H+  H72  1  0.21008871  0.69958707  0.26119873  1
  H+  H73  1  0.65126536  0.82512850  0.47684763  1
  H+  H74  1  0.03309559  0.83248571  0.51682202  1
  H+  H75  1  0.35408087  0.84751037  0.25010204  1
  H+  H76  1  0.86016589  0.03074963  0.46005070  1
  H+  H77  1  0.68549556  0.16643038  0.75816195  1
  H+  H78  1  0.83531326  0.85249392  0.71124227  1
  H+  H79  1  0.12684575  -0.07400586  0.25748191  1
  H+  H80  1  0.84851529  0.35743855  0.98064067  1
  H+  H81  1  0.53891115  0.16233861  0.26073152  1
  H+  H82  1  0.18253415  0.36194561  0.26138189  1
  H+  H83  1  0.15309875  0.17467136  1.00385171  1
  H+  H84  1  0.71113274  0.19428915  0.24112696  1
  H+  H85  1  0.15512900  0.33480974  -0.01419591  1
  H+  H86  1  0.82223941  0.48492910  0.00620164  1
  H+  H87  1  0.30808319  0.15471055  0.99057850  1
  H+  H88  1  0.43259535  0.20749063  0.48003239  1
  H+  H89  1  0.05613064  0.52310697  0.24457730  1
  H+  H90  1  0.86592860  0.82296465  0.81896858  1
  H+  H91  1  0.11973846  0.49624123  1.00430438  1
  H+  H92  1  0.83413887  0.31016754  0.24365790  1
  H+  H93  1  0.96341109  0.14542189  1.00507643  1
  H+  H94  1  0.48296631  0.47417944  0.26539605  1
  H+  H95  1  0.15268240  0.52755524  0.70005977  1
  H+  H96  1  0.52085925  0.32882259  0.51560359  1
  H+  H97  1  0.40244480  0.51938274  -0.00861090  1
  H+  H98  1  0.81672877  0.17353490  0.75246032  1
  H+  H99  1  0.48575284  0.97191608  0.01910354  1
  H+  H100  1  0.88611744  0.10720581  0.32718909  1
  H+  H101  1  0.86052600  0.69676709  0.48340441  1
  H+  H102  1  0.11396288  0.21571206  0.09423967  1
  H+  H103  1  0.18844569  0.80416229  0.50710097  1
  H+  H104  1  0.35938217  0.51700511  0.23973311  1
  H+  H105  1  0.46772664  0.95110341  0.73721008  1
  H+  H106  1  0.80846307  0.98219318  0.22698679  1
  H+  H107  1  0.34934414  0.51034593  0.74153207  1
  H+  H108  1  0.44044596  0.89981217  0.14915642  1
  H+  H109  1  0.77934601  0.23249234  0.09287327  1
  H+  H110  1  0.50078551  0.47340637  0.75399469  1
  H+  H111  1  0.44698289  0.56391232  0.60305897  1
  H+  H112  1  0.84790443  0.58925723  0.15311275  1
  H+  H113  1  0.87612731  0.43717426  0.84102991  1
  H+  H114  1  0.92305809  0.44949531  0.35978038  1
  H+  H115  1  0.55803282  0.44348029  0.88375424  1
  H+  H116  1  0.43775287  0.87918652  0.64574058  1
  H+  H117  1  0.80532782  0.90640757  0.56680167  1
  H+  H118  1  0.44333940  0.54961181  0.15176246  1
  H+  H119  1  0.72045652  0.45227805  0.07981589  1
  H+  H120  1  0.63779072  0.14566398  0.98983310  1
  H+  H121  1  0.19875873  0.81333533  0.26404041  1
  H+  H122  1  0.83136547  0.46795832  0.75012222  1
  H+  H123  1  0.76731335  0.88870498  0.13888392  1
  H+  H124  1  0.22643186  0.09366769  0.90786118  1
  H+  H125  1  0.99248841  0.49429177  0.50765282  1
  H+  H126  1  0.53287073  0.77210493  0.91292760  1
  H+  H127  1  0.54721113  0.09109044  0.85166251  1
  H+  H128  1  0.16634845  0.38405048  0.74867836  1
  H+  H129  1  0.55682950  0.45406473  0.41251379  1
  H+  H130  1  0.78854605  0.55954949  0.59116378  1
  H+  H131  1  0.26902628  0.12034795  0.50848132  1
  H+  H132  1  0.38276692  0.86057138  0.50587990  1
  H+  H133  1  0.22670920  0.76178636  0.41954067  1
  H+  H134  1  0.57667473  0.11985351  0.35036237  1
  H+  H135  1  0.46563212  0.23474218  0.08836318  1
  H+  H136  1  0.10209411  0.87309158  0.61184695  1
  H+  H137  1  0.20284658  0.45313600  0.84170954  1
  H+  H138  1  0.09914210  0.24268324  0.62934796  1
  H+  H139  1  0.20578862  0.81964287  0.90522602  1
  H+  H140  1  0.85565466  0.72179742  0.90419202  1
  H+  H141  1  0.54526402  0.04776367  0.48954118  1
  H+  H142  1  0.17811898  0.08263688  0.36372236  1
  H+  H143  1  0.22778261  0.44218039  0.35113662  1
  O2-  O144  1  0.10447212  0.22670017  0.21470991  1
  O2-  O145  1  0.10870548  0.25277786  0.69759106  1
  O2-  O146  1  0.13347227  0.56469599  0.21586471  1
  O2-  O147  1  0.11520668  0.56524269  0.66796771  1
  O2-  O148  1  0.13259972  0.86519933  0.22616299  1
  O2-  O149  1  0.08755115  0.88329152  0.72535786  1
  O2-  O150  1  0.47142168  0.23136965  0.21128076  1
  O2-  O151  1  0.44874271  0.21456763  0.72136137  1
  O2-  O152  1  0.44184723  0.55531808  0.21918651  1
  O2-  O153  1  0.43122623  0.54608561  0.72180727  1
  O2-  O154  1  0.43927889  0.90027218  0.22046000  1
  O2-  O155  1  0.42635743  0.87136140  0.71321491  1
  O2-  O156  1  0.78905073  0.23368787  0.21393791  1
  O2-  O157  1  0.76848852  0.21374328  0.73918814  1
  O2-  O158  1  0.85554846  0.59823190  0.22002176  1
  O2-  O159  1  0.77541153  0.56314695  0.70834196  1
  O2-  O160  1  0.76544213  0.89622872  0.20833070  1
  O2-  O161  1  0.80512208  0.90709485  0.67889885  1
  O2-  O162  1  0.16540528  0.08270364  0.29680023  1
  O2-  O163  1  0.22714769  0.09006585  0.77788829  1
  O2-  O164  1  0.22917036  0.44288273  0.28322170  1
  O2-  O165  1  0.21173496  0.46246777  0.77473629  1
  O2-  O166  1  0.24773049  0.77887898  0.28769712  1
  O2-  O167  1  0.19217575  0.76314904  0.78170863  1
  O2-  O168  1  0.57047662  0.11385617  0.28178841  1
  O2-  O169  1  0.54949888  0.09220474  0.78327252  1
  O2-  O170  1  0.52091895  0.43066298  0.29031588  1
  O2-  O171  1  0.54803474  0.43940997  0.77431175  1
  O2-  O172  1  0.57799791  0.77907404  0.27592276  1
  O2-  O173  1  0.52137353  0.76436619  0.79444829  1
  O2-  O174  1  0.87950581  0.10485085  0.25816467  1
  O2-  O175  1  0.88153691  0.11428823  0.76708880  1
  O2-  O176  1  0.92076156  0.44604447  0.29115170  1
  O2-  O177  1  0.86382809  0.42189298  0.77449215  1
  O2-  O178  1  0.90125518  0.81357827  0.29098245  1
  O2-  O179  1  0.87272719  0.79066014  0.76156261  1
  O2-  O180  1  0.19361390  0.07939078  0.48091407  1
  O2-  O181  1  0.22793675  0.11977594  0.97054480  1
  O2-  O182  1  0.23567710  0.44344466  0.47262953  1
  O2-  O183  1  0.19175581  0.41856496  0.96462977  1
  O2-  O184  1  0.23275889  0.76700463  0.48680295  1
  O2-  O185  1  0.22547859  0.86986932  0.95854094  1
  O2-  O186  1  0.59145890  0.12661609  0.46388953  1
  O2-  O187  1  0.55615196  0.10087607  0.96875244  1
  O2-  O188  1  0.56959480  0.45896361  0.47911949  1
  O2-  O189  1  0.56399739  0.44404691  0.95300657  1
  O2-  O190  1  0.56894233  0.78673148  0.45690603  1
  O2-  O191  1  0.54771536  0.77841435  0.97983742  1
  O2-  O192  1  0.89852277  0.11132334  0.43642039  1
  O2-  O193  1  0.88003726  0.11178624  0.99565603  1
  O2-  O194  1  0.91840025  0.45637704  0.47542405  1
  O2-  O195  1  0.88467987  0.43935518  0.95964254  1
  O2-  O196  1  0.90458448  0.77973323  0.46783638  1
  O2-  O197  1  0.84369840  0.73020402  0.96891569  1
  O2-  O198  1  0.10932961  0.21291992  0.02657724  1
  O2-  O199  1  0.10667518  0.22086488  0.51881464  1
  O2-  O200  1  0.08723019  0.54166083  0.02896351  1
  O2-  O201  1  0.13508310  0.55500712  0.57034828  1
  O2-  O202  1  0.06031677  0.87424563  0.06258731  1
  O2-  O203  1  0.11228721  0.87312916  0.54371090  1
  O2-  O204  1  0.45783231  0.22568708  0.02156510  1
  O2-  O205  1  0.48489013  0.24433586  0.53069752  1
  O2-  O206  1  0.46973072  0.55381520  0.03057426  1
  O2-  O207  1  0.45359561  0.56761571  0.53514137  1
  O2-  O208  1  0.44094430  0.89411493  0.04780808  1
  O2-  O209  1  0.46385551  0.90502823  0.52651169  1
  O2-  O210  1  0.77609796  0.22577247  0.02532021  1
  O2-  O211  1  0.82084017  0.24203923  0.52319194  1
  O2-  O212  1  0.77404725  0.51570359  0.04176211  1
  O2-  O213  1  0.78960975  0.55599851  0.52292831  1
  O2-  O214  1  0.76894805  0.87555035  0.03226480  1
  O2-  O215  1  0.79334735  0.89560209  0.49891762  1
