# generated using pymatgen
data_H2O
_symmetry_space_group_name_H-M   'P 1'
_cell_length_a   13.51581352
_cell_length_b   13.51383958
_cell_length_c   14.69666994
_cell_angle_alpha   90.02012768
_cell_angle_beta   89.92306975
_cell_angle_gamma   120.04562370
_symmetry_Int_Tables_number   1
_chemical_formula_structural   H2O
_chemical_formula_sum   'H144 O72'
_cell_volume   2323.64756305
_cell_formula_units_Z   72
loop_
 _symmetry_equiv_pos_site_id
 _symmetry_equiv_pos_as_xyz
  1  'x, y, z'
loop_
 _atom_type_symbol
 _atom_type_oxidation_number
  H+  1.0
  O2-  -2.0
loop_
 _atom_site_type_symbol
 _atom_site_label
 _atom_site_symmetry_multiplicity
 _atom_site_fract_x
 _atom_site_fract_y
 _atom_site_fract_z
 _atom_site_occupancy
  H+  H0  1  0.02977866  0.18461602  0.24134743  1
  H+  H1  1  0.14522713  0.63338443  0.74462234  1
  H+  H2  1  0.48895737  0.21953177  1.01212076  1
  H+  H3  1  -0.02893301  0.82045961  0.24635630  1
  H+  H4  1  0.51897734  0.68048208  0.98500456  1
  H+  H5  1  0.83242457  0.47155732  0.97353360  1
  H+  H6  1  0.35585685  0.86421725  0.75039664  1
  H+  H7  1  0.54362743  1.03547289  0.51097147  1
  H+  H8  1  0.18231276  0.16394118  -0.00008832  1
  H+  H9  1  0.18189141  1.04467066  -0.00012593  1
  H+  H10  1  0.16548323  0.99175302  0.77169900  1
  H+  H11  1  0.44045433  0.23516058  0.12267280  1
  H+  H12  1  0.14173233  0.51918662  0.01026791  1
  H+  H13  1  -0.02571747  0.82843254  0.76065026  1
  H+  H14  1  0.84674248  0.03570818  0.98985262  1
  H+  H15  1  0.62055372  0.48443478  0.79732295  1
  H+  H16  1  0.17421298  0.81723257  0.77937456  1
  H+  H17  1  0.69420790  0.50886669  0.24011903  1
  H+  H18  1  0.17510621  0.37233643  -0.00835786  1
  H+  H19  1  0.14909131  0.30452899  0.51705747  1
  H+  H20  1  0.81786294  0.85294180  0.00351499  1
  H+  H21  1  0.49119982  0.62994751  0.52554640  1
  H+  H22  1  0.82587630  0.16996354  0.75837961  1
  H+  H23  1  0.51383341  0.79429338  0.98506776  1
  H+  H24  1  0.68133783  0.45960993  0.48516899  1
  H+  H25  1  0.67042137  0.50369936  0.50684231  1
  H+  H26  1  0.81511434  0.85121203  0.22987571  1
  H+  H27  1  0.62927847  0.14422855  0.24736535  1
  H+  H28  1  0.95530063  0.47785156  0.98940224  1
  H+  H29  1  0.47808502  0.51581895  -0.02573892  1
  H+  H30  1  0.81069143  0.30098367  0.00295645  1
  H+  H31  1  0.85508185  0.71159934  0.74687731  1
  H+  H32  1  0.02411880  0.51249335  0.24208842  1
  H+  H33  1  0.63214002  0.81349050  0.24919327  1
  H+  H34  1  0.95158662  0.81168534  0.97460902  1
  H+  H35  1  0.50075597  0.18406715  0.50871795  1
  H+  H36  1  0.50716173  0.08155951  0.97716761  1
  H+  H37  1  0.31784444  0.16172208  0.48482665  1
  H+  H38  1  0.81258992  0.62601907  0.23157805  1
  H+  H39  1  0.84305557  0.03049895  0.25102848  1
  H+  H40  1  0.35590526  0.19493462  0.02018805  1
  H+  H41  1  0.39012688  0.87349957  0.48044677  1
  H+  H42  1  0.15048109  0.51727767  0.74365636  1
  H+  H43  1  0.51009504  0.47981304  0.23878425  1
  H+  H44  1  0.79548751  0.31498462  0.49569116  1
  H+  H45  1  0.50275797  0.64300232  0.75263313  1
  H+  H46  1  0.76591288  0.22083673  0.09260321  1
  H+  H47  1  0.48861144  0.31683830  0.23284501  1
  H+  H48  1  0.19703954  1.04917866  0.26681037  1
  H+  H49  1  0.96586327  0.82884550  0.45432452  1
  H+  H50  1  0.86742020  0.54817821  0.52690010  1
  H+  H51  1  0.15118974  0.18947380  0.24100901  1
  H+  H52  1  0.48114016  0.97216051  0.25033411  1
  H+  H53  1  0.16875827  0.30545468  0.74907260  1
  H+  H54  1  0.86785959  0.70829418  0.48235459  1
  H+  H55  1  0.18344571  0.48621017  0.26062139  1
  H+  H56  1  0.69962636  0.84964356  0.00665583  1
  H+  H57  1  0.83972316  0.48196984  0.25362081  1
  H+  H58  1  0.36242037  0.51319004  0.22614835  1
  H+  H59  1  0.18191499  0.48720948  0.49462319  1
  H+  H60  1  0.51290938  0.81307531  0.25674376  1
  H+  H61  1  0.70293859  0.81704268  0.52828591  1
  H+  H62  1  0.83181964  0.02002478  0.48925901  1
  H+  H63  1  0.24333365  0.78216935  0.53887103  1
  H+  H64  1  0.63713731  0.18285185  0.98698949  1
  H+  H65  1  0.82789155  0.86820669  0.74044039  1
  H+  H66  1  0.96569496  0.48323591  0.76006326  1
  H+  H67  1  0.15329607  0.19091968  0.51191959  1
  H+  H68  1  0.36644709  0.52232311  0.52653106  1
  H+  H69  1  0.19999240  0.16276872  0.76795402  1
  H+  H70  1  1.00446817  0.48207721  0.52299231  1
  H+  H71  1  0.29941208  0.81315478  0.28596104  1
  H+  H72  1  0.45398544  0.22634406  0.59309719  1
  H+  H73  1  0.45908134  0.90181761  -0.06921396  1
  H+  H74  1  0.70052467  0.18807588  0.73984553  1
  H+  H75  1  0.13121297  0.84493955  0.49681243  1
  H+  H76  1  0.09018057  0.53870974  0.60815440  1
  H+  H77  1  0.37970582  0.20220162  0.73185078  1
  H+  H78  1  0.51774019  0.94189785  0.02643508  1
  H+  H79  1  0.47158374  0.45463549  0.47461446  1
  H+  H80  1  0.51610462  0.05128245  0.75476673  1
  H+  H81  1  0.13073777  0.84391407  0.01113192  1
  H+  H82  1  0.27612307  0.81029428  1.00420222  1
  H+  H83  1  0.50482647  0.50670292  0.78518985  1
  H+  H84  1  0.19680964  0.04828401  0.47180829  1
  H+  H85  1  0.64265271  0.81426605  0.75605998  1
  H+  H86  1  0.29446705  0.48956489  0.98643448  1
  H+  H87  1  0.16304567  0.85215311  0.26312918  1
  H+  H88  1  0.68403543  0.50620964  0.95846135  1
  H+  H89  1  0.36630785  0.19418012  0.23697146  1
  H+  H90  1  0.48095691  0.62892127  0.22176366  1
  H+  H91  1  0.30510320  0.49372080  0.76875468  1
  H+  H92  1  0.51277011  0.14661442  0.24908722  1
  H+  H93  1  0.73930874  0.13173949  0.50550036  1
  H+  H94  1  0.82493390  0.30634843  0.74763201  1
  H+  H95  1  0.79692678  0.48637530  0.74917795  1
  H+  H96  1  0.81247248  0.18246493  0.23169283  1
  H+  H97  1  0.84137723  0.15198123  0.99061656  1
  H+  H98  1  0.15928170  0.68940183  1.00360663  1
  H+  H99  1  0.83839422  0.03869385  0.76093560  1
  H+  H100  1  0.47867427  0.83638617  0.50632473  1
  H+  H101  1  0.63101105  0.86582888  0.45243551  1
  H+  H102  1  0.47027812  0.33651987  0.46626322  1
  H+  H103  1  0.93713042  0.14459073  0.49443760  1
  H+  H104  1  1.02926595  0.18922556  1.00958979  1
  H+  H105  1  0.81118519  0.30062992  0.23232859  1
  H+  H106  1  0.41871209  0.87588272  0.17410078  1
  H+  H107  1  0.80279625  0.61404316  -0.01566010  1
  H+  H108  1  0.52340462  0.42913273  0.33351532  1
  H+  H109  1  0.49759197  0.20577549  0.72696484  1
  H+  H110  1  0.20921160  0.76662897  0.86123959  1
  H+  H111  1  0.09949618  0.55298881  0.10137477  1
  H+  H112  1  0.87428789  0.10591067  0.34135897  1
  H+  H113  1  0.23142613  0.45520162  0.40769933  1
  H+  H114  1  0.45757305  0.54760106  0.66999653  1
  H+  H115  1  0.24209460  0.12973944  0.85990067  1
  H+  H116  1  0.87196233  0.43223045  0.34102982  1
  H+  H117  1  0.21812828  0.45221487  0.85226586  1
  H+  H118  1  0.07953420  0.90693608  0.55578552  1
  H+  H119  1  0.21012561  0.76450619  0.36994391  1
  H+  H120  1  0.13425155  0.66884325  0.50843571  1
  H+  H121  1  0.83259455  0.59018584  0.61271778  1
  H+  H122  1  0.10698413  0.22921923  0.09968890  1
  H+  H123  1  0.44336613  0.54245801  0.07634938  1
  H+  H124  1  0.88275549  0.77453809  0.32805540  1
  H+  H125  1  0.12896375  0.22459569  0.66252615  1
  H+  H126  1  0.77426108  0.89206258  0.14337250  1
  H+  H127  1  0.05770449  0.87056175  0.08322362  1
  H+  H128  1  0.69203097  0.44654074  0.68343489  1
  H+  H129  1  0.56386572  0.14394441  0.83637795  1
  H+  H130  1  0.14277422  0.63023736  0.24683283  1
  H+  H131  1  0.87571845  0.11564128  0.85512268  1
  H+  H132  1  0.90074844  0.33392019  0.44200020  1
  H+  H133  1  0.55133635  0.77104965  0.38546081  1
  H+  H134  1  0.56944091  0.76901338  0.84770278  1
  H+  H135  1  0.79089151  0.90472148  0.65084144  1
  H+  H136  1  0.82530921  0.84207083  0.50102183  1
  H+  H137  1  0.24120620  0.13865438  0.34862676  1
  H+  H138  1  0.14553327  0.91485400  0.68595082  1
  H+  H139  1  0.18392317  0.36913734  0.26197304  1
  H+  H140  1  0.88724264  0.43836525  0.85091289  1
  H+  H141  1  0.17536426  0.91863952  0.17321240  1
  H+  H142  1  0.86835222  0.77436200  0.89077597  1
  H+  H143  1  0.43534489  0.89782236  0.66361167  1
  O2-  O144  1  0.10988061  0.22831462  0.21801823  1
  O2-  O145  1  0.13859034  0.22531912  0.72931987  1
  O2-  O146  1  0.10530889  0.55262329  0.21987534  1
  O2-  O147  1  0.10560122  0.55344788  0.72076616  1
  O2-  O148  1  0.13473680  0.89975991  0.23127932  1
  O2-  O149  1  0.12117495  0.90722042  0.74912513  1
  O2-  O150  1  0.44569866  0.23227925  0.20916929  1
  O2-  O151  1  0.45570542  0.24288095  0.70229418  1
  O2-  O152  1  0.44011684  0.54940457  0.19780125  1
  O2-  O153  1  0.45809397  0.55508571  0.73790968  1
  O2-  O154  1  0.43486311  0.88427579  0.23911105  1
  O2-  O155  1  0.43502195  0.91470221  0.72845930  1
  O2-  O156  1  0.77023383  0.22032127  0.20845569  1
  O2-  O157  1  0.78517844  0.22413216  0.72601118  1
  O2-  O158  1  0.77519893  0.54298862  0.22066480  1
  O2-  O159  1  0.74323772  0.51080971  0.72223448  1
  O2-  O160  1  0.77178105  0.89019699  0.21179326  1
  O2-  O161  1  0.78646250  0.90718375  0.71821873  1
  O2-  O162  1  0.23627851  0.13228747  0.27967635  1
  O2-  O163  1  0.23882045  0.11953953  0.79284549  1
  O2-  O164  1  0.22750202  0.45013754  0.28335780  1
  O2-  O165  1  0.22261352  0.45411325  0.78402596  1
  O2-  O166  1  0.21630215  0.77285969  0.30292371  1
  O2-  O167  1  0.21179489  0.77176209  0.79362255  1
  O2-  O168  1  0.54772887  0.10076979  0.26726060  1
  O2-  O169  1  0.56726211  0.13497679  0.76980036  1
  O2-  O170  1  0.54595162  0.43767597  0.26643800  1
  O2-  O171  1  0.54273580  0.45953422  0.82214851  1
  O2-  O172  1  0.55169021  0.76927127  0.27326174  1
  O2-  O173  1  0.56427774  0.76473387  0.78019468  1
  O2-  O174  1  0.88305372  0.11116929  0.27420726  1
  O2-  O175  1  0.87071645  0.11799708  0.78661822  1
  O2-  O176  1  0.88174931  0.43981534  0.27461422  1
  O2-  O177  1  0.88449494  0.43966438  0.78176394  1
  O2-  O178  1  0.88864980  0.78107385  0.26039836  1
  O2-  O179  1  0.88998636  0.78836243  0.77295194  1
  O2-  O180  1  0.23852799  0.13143963  0.45960327  1
  O2-  O181  1  0.22797526  0.12625816  0.98213427  1
  O2-  O182  1  0.23065855  0.45528159  0.47563723  1
  O2-  O183  1  0.21173136  0.45250224  0.96844548  1
  O2-  O184  1  0.18164999  0.75393976  0.49399856  1
  O2-  O185  1  0.19711381  0.77234921  0.98213004  1
  O2-  O186  1  0.58679898  0.11167193  0.48128400  1
  O2-  O187  1  0.55866174  0.16118728  0.96046334  1
  O2-  O188  1  0.46740865  0.39766355  0.43076985  1
  O2-  O189  1  0.56217465  0.48816163  0.92005518  1
  O2-  O190  1  0.56293667  0.78963614  0.45316244  1
  O2-  O191  1  0.56382852  0.76469681  0.96677014  1
  O2-  O192  1  0.85917369  0.09962829  0.46871809  1
  O2-  O193  1  0.88632227  0.11673488  0.96741320  1
  O2-  O194  1  0.86716776  0.37723328  0.46763503  1
  O2-  O195  1  0.87881315  0.43124784  0.96095716  1
  O2-  O196  1  0.88197117  0.77698944  0.44607850  1
  O2-  O197  1  0.86958453  0.77261456  0.95845077  1
  O2-  O198  1  0.11001070  0.22989788  0.03151532  1
  O2-  O199  1  0.10697720  0.22320711  0.53653282  1
  O2-  O200  1  0.09860775  0.55687340  0.03336695  1
  O2-  O201  1  0.08465038  0.53688848  0.53947605  1
  O2-  O202  1  0.09348384  0.89151504  0.02325678  1
  O2-  O203  1  0.10285132  0.90105753  0.49416940  1
  O2-  O204  1  0.43720516  0.24150116  0.04483778  1
  O2-  O205  1  0.45178013  0.21669439  0.52439579  1
  O2-  O206  1  0.43591678  0.54955499  0.00953675  1
  O2-  O207  1  0.44561447  0.55315980  0.55135682  1
  O2-  O208  1  0.44472072  0.89172553  -0.00364083  1
  O2-  O209  1  0.44054071  0.87855093  0.52986370  1
  O2-  O210  1  0.76318453  0.21884134  0.02417321  1
  O2-  O211  1  0.69628263  0.16727136  0.53140638  1
  O2-  O212  1  0.76116451  0.52990378  -0.01381692  1
  O2-  O213  1  0.88230571  0.61785814  0.55846192  1
  O2-  O214  1  0.78059491  0.89600474  0.02776988  1
  O2-  O215  1  0.78332361  0.87712757  0.53257349  1
