# generated using pymatgen
data_H2O
_symmetry_space_group_name_H-M   'P 1'
_cell_length_a   13.54190653
_cell_length_b   13.53512877
_cell_length_c   14.73669977
_cell_angle_alpha   89.92732508
_cell_angle_beta   90.07213574
_cell_angle_gamma   119.91068238
_symmetry_Int_Tables_number   1
_chemical_formula_structural   H2O
_chemical_formula_sum   'H144 O72'
_cell_volume   2341.33081322
_cell_formula_units_Z   72
loop_
 _symmetry_equiv_pos_site_id
 _symmetry_equiv_pos_as_xyz
  1  'x, y, z'
loop_
 _atom_type_symbol
 _atom_type_oxidation_number
  H+  1.0
  O2-  -2.0
loop_
 _atom_site_type_symbol
 _atom_site_label
 _atom_site_symmetry_multiplicity
 _atom_site_fract_x
 _atom_site_fract_y
 _atom_site_fract_z
 _atom_site_occupancy
  H+  H0  1  0.82203359  0.53843047  0.22374475  1
  H+  H1  1  0.64224225  0.80501143  0.77527582  1
  H+  H2  1  0.20210852  0.51584007  0.78025237  1
  H+  H3  1  0.83009711  0.40083378  0.75016482  1
  H+  H4  1  0.35344472  0.16648806  0.74525484  1
  H+  H5  1  1.02290782  0.85813701  0.23684020  1
  H+  H6  1  0.50743584  0.46722893  0.47364788  1
  H+  H7  1  0.17326794  0.35201766  -0.01490743  1
  H+  H8  1  0.33576129  0.14766315  1.00763815  1
  H+  H9  1  0.81303308  0.84215969  0.51069904  1
  H+  H10  1  0.68754248  0.50382630  0.50258302  1
  H+  H11  1  0.17332396  0.13513742  0.75810476  1
  H+  H12  1  0.80800106  0.86002641  0.00297187  1
  H+  H13  1  0.95857118  0.14137591  0.76822112  1
  H+  H14  1  0.85126697  0.83028736  0.26478599  1
  H+  H15  1  0.18091029  0.27647333  0.51735651  1
  H+  H16  1  0.16728916  0.96212266  0.50275156  1
  H+  H17  1  0.93873513  0.45978160  0.23856374  1
  H+  H18  1  0.86128053  0.52946708  0.74974335  1
  H+  H19  1  0.78403806  0.60056548  0.07629953  1
  H+  H20  1  0.49938470  0.71413342  0.50152801  1
  H+  H21  1  0.89640188  0.77592170  0.56887748  1
  H+  H22  1  0.61396521  0.12679253  0.78065890  1
  H+  H23  1  -0.03562413  0.77891126  0.70511328  1
  H+  H24  1  0.34441602  0.16555027  0.23900658  1
  H+  H25  1  0.48200347  0.50380209  0.24346607  1
  H+  H26  1  0.84971782  0.01604394  0.77998058  1
  H+  H27  1  0.48928104  0.79618263  1.03583501  1
  H+  H28  1  0.79737189  0.15994170  0.76779891  1
  H+  H29  1  0.81853375  0.71502022  0.96099124  1
  H+  H30  1  0.93119115  0.83481324  0.94952000  1
  H+  H31  1  0.86287178  1.02439665  0.48027936  1
  H+  H32  1  0.26928275  0.83012872  0.16614785  1
  H+  H33  1  0.37172307  0.49807723  0.00582209  1
  H+  H34  1  0.13752027  0.29661505  0.23675606  1
  H+  H35  1  0.36974145  0.78594311  0.04358467  1
  H+  H36  1  0.63394998  0.81478355  0.49395211  1
  H+  H37  1  0.70197119  0.84605525  0.23984633  1
  H+  H38  1  0.43936567  0.28736119  0.21106160  1
  H+  H39  1  0.04614933  0.19112182  0.50466384  1
  H+  H40  1  0.15671805  1.02533784  -0.01518067  1
  H+  H41  1  0.47044324  0.54057919  0.70167908  1
  H+  H42  1  0.36980032  0.54447455  0.57098772  1
  H+  H43  1  0.05121907  0.84197315  0.50507758  1
  H+  H44  1  0.49765183  0.63101371  0.77841153  1
  H+  H45  1  0.47826244  0.29171475  0.50888382  1
  H+  H46  1  0.50773716  0.44004562  1.00484783  1
  H+  H47  1  0.82537911  0.65734430  0.23725329  1
  H+  H48  1  0.12937594  0.48362429  0.22259704  1
  H+  H49  1  0.74284851  0.17465506  0.26115673  1
  H+  H50  1  0.79417269  0.59723938  0.63627644  1
  H+  H51  1  0.81269364  0.51624974  0.49886719  1
  H+  H52  1  0.80722804  0.83606917  0.83698740  1
  H+  H53  1  0.51930099  0.46040803  0.79879664  1
  H+  H54  1  0.31086496  0.49251448  0.78117999  1
  H+  H55  1  0.14496977  -0.06473411  0.74578037  1
  H+  H56  1  0.70337511  0.88188392  0.01278674  1
  H+  H57  1  0.34509189  0.63870808  0.60492164  1
  H+  H58  1  0.48291911  0.11780412  0.99483845  1
  H+  H59  1  0.85175205  0.04344446  0.99991962  1
  H+  H60  1  0.71475217  0.17271467  0.10957351  1
  H+  H61  1  0.12051436  0.59934427  -0.01204174  1
  H+  H62  1  0.48225215  0.17727110  0.50628037  1
  H+  H63  1  0.14197201  0.30087070  0.75568398  1
  H+  H64  1  0.89512975  0.40568623  0.47195019  1
  H+  H65  1  0.09526803  0.83521197  -0.00362229  1
  H+  H66  1  0.17384258  0.47554623  -0.01436304  1
  H+  H67  1  0.29012996  0.47388717  0.25471094  1
  H+  H68  1  0.44519285  0.54176795  0.15488883  1
  H+  H69  1  0.63507724  0.16242940  0.47086003  1
  H+  H70  1  0.84663489  0.01354956  0.24803564  1
  H+  H71  1  0.11192816  0.59024880  0.22032472  1
  H+  H72  1  0.46630459  0.93392731  0.74053807  1
  H+  H73  1  0.50551716  0.99063942  0.48003142  1
  H+  H74  1  0.48996858  0.30986337  0.00193016  1
  H+  H75  1  0.50787849  0.33662431  0.78197600  1
  H+  H76  1  0.58293337  0.37738515  0.26610220  1
  H+  H77  1  0.60593579  0.10726189  1.00307576  1
  H+  H78  1  0.13293821  0.39584464  0.47904145  1
  H+  H79  1  0.77481316  0.14469836  1.02385240  1
  H+  H80  1  0.20659483  0.82747470  0.50111537  1
  H+  H81  1  0.80581199  0.54688611  0.98881399  1
  H+  H82  1  0.15542923  0.65636623  0.55105610  1
  H+  H83  1  0.14875947  0.87714877  0.21765355  1
  H+  H84  1  0.52240278  0.68362131  0.26302164  1
  H+  H85  1  0.16570124  0.03311863  0.25221093  1
  H+  H86  1  0.44077560  0.90373902  0.24123163  1
  H+  H87  1  0.17228768  0.15071351  0.98614931  1
  H+  H88  1  0.38358493  0.86438315  0.50279544  1
  H+  H89  1  0.66104064  0.50816011  0.25187594  1
  H+  H90  1  0.31120813  0.14426859  0.48899290  1
  H+  H91  1  0.97469186  0.14438707  0.24733151  1
  H+  H92  1  0.36079253  0.91013325  0.95749758  1
  H+  H93  1  0.91759473  0.46204810  0.98365868  1
  H+  H94  1  0.46160450  0.83526127  0.14423764  1
  H+  H95  1  0.51034239  0.86581141  0.48999223  1
  H+  H96  1  0.28993233  0.79360679  0.90545773  1
  H+  H97  1  0.84008801  0.69050564  0.49217521  1
  H+  H98  1  0.52421560  0.84836221  0.25178189  1
  H+  H99  1  0.88677449  0.15365163  0.47380906  1
  H+  H100  1  0.14265004  0.18013483  0.23674144  1
  H+  H101  1  0.18600754  0.12548047  0.49736865  1
  H+  H102  1  0.80898295  0.36702630  0.25718090  1
  H+  H103  1  1.02259600  0.19047231  1.00585968  1
  H+  H104  1  0.58735000  0.93054189  0.94306912  1
  H+  H105  1  0.17103185  0.75617670  0.76006218  1
  H+  H106  1  0.36115658  0.80901909  0.73183357  1
  H+  H107  1  0.81071137  0.24693216  0.54829840  1
  H+  H108  1  0.52962158  0.08683051  0.89628534  1
  H+  H109  1  0.89850619  0.09460038  0.34390412  1
  H+  H110  1  0.23513483  0.75669602  0.42931384  1
  H+  H111  1  0.56851869  0.81821434  0.89322181  1
  H+  H112  1  0.54646867  0.18003591  0.23915988  1
  H+  H113  1  0.49919347  0.59924163  0.00445986  1
  H+  H114  1  0.44072651  0.21162856  0.66159381  1
  H+  H115  1  0.54401073  0.39824628  0.90321599  1
  H+  H116  1  0.90151122  0.47919937  0.38754067  1
  H+  H117  1  0.55952043  0.43602400  0.38972859  1
  H+  H118  1  0.52126541  0.80608151  0.75707679  1
  H+  H119  1  0.24842082  0.79461618  0.26681855  1
  H+  H120  1  0.21148857  0.09787701  0.84672263  1
  H+  H121  1  0.21457132  0.10679178  0.34455687  1
  H+  H122  1  0.13341009  0.87483694  0.65228901  1
  H+  H123  1  0.77595221  0.89535758  0.58999448  1
  H+  H124  1  0.49532368  0.12828390  0.77095527  1
  H+  H125  1  0.89412672  0.79400965  0.35374085  1
  H+  H126  1  0.10300365  0.23185596  0.66417277  1
  H+  H127  1  0.81876756  0.82228138  0.73468842  1
  H+  H128  1  0.41356512  0.17967898  0.09931473  1
  H+  H129  1  0.77862454  0.89135467  0.14726965  1
  H+  H130  1  0.22136096  0.44446371  0.88559671  1
  H+  H131  1  0.19962610  0.44459079  0.33658655  1
  H+  H132  1  0.09162695  0.52714171  0.08001231  1
  H+  H133  1  0.74794821  0.19971261  0.68879070  1
  H+  H134  1  0.93890647  0.30659054  0.57155900  1
  H+  H135  1  0.22928075  0.52309912  0.47697487  1
  H+  H136  1  0.88144219  0.11861700  0.91020971  1
  H+  H137  1  1.03122986  0.55388904  0.54329141  1
  H+  H138  1  0.07182239  0.88638856  0.08504890  1
  H+  H139  1  0.56399989  0.76196218  0.35377458  1
  H+  H140  1  0.86113780  0.45940849  0.89052812  1
  H+  H141  1  0.10566327  0.22664418  0.09234470  1
  H+  H142  1  0.12498034  0.59362813  0.69204213  1
  H+  H143  1  0.56936281  0.13139151  0.37793495  1
  O2-  O144  1  0.09777493  0.21576291  0.21318699  1
  O2-  O145  1  0.10196448  0.22269639  0.73095781  1
  O2-  O146  1  0.08048150  0.51360254  0.19552373  1
  O2-  O147  1  0.15091635  0.59918207  0.75748336  1
  O2-  O148  1  0.09563026  0.90470386  0.20205768  1
  O2-  O149  1  0.11502272  0.85901178  0.71759242  1
  O2-  O150  1  0.42310338  0.20834437  0.21079967  1
  O2-  O151  1  0.43681162  0.20653688  0.72880924  1
  O2-  O152  1  0.44262920  0.54454107  0.22214035  1
  O2-  O153  1  0.45457457  0.54558522  0.76563700  1
  O2-  O154  1  0.50214326  0.89608305  0.21207792  1
  O2-  O155  1  0.44281864  0.85768327  0.71569288  1
  O2-  O156  1  0.70652288  0.21354465  0.23071389  1
  O2-  O157  1  0.75131203  0.19775464  0.75463169  1
  O2-  O158  1  0.78225133  0.58138431  0.20766152  1
  O2-  O159  1  0.81748587  0.63019033  0.69891887  1
  O2-  O160  1  0.78185939  0.89286782  0.21662453  1
  O2-  O161  1  0.78807243  0.85770639  0.77719769  1
  O2-  O162  1  0.21220423  0.11258973  0.27724730  1
  O2-  O163  1  0.21365374  0.09505504  0.77905546  1
  O2-  O164  1  0.20744248  0.43400316  0.26941838  1
  O2-  O165  1  0.22843611  0.45936496  0.79847492  1
  O2-  O166  1  0.27865377  0.86153828  0.22737161  1
  O2-  O167  1  0.22168341  0.72469166  0.77697328  1
  O2-  O168  1  0.58875054  0.14530775  0.26782750  1
  O2-  O169  1  0.53094663  0.08552045  0.79888648  1
  O2-  O170  1  0.58262225  0.44847255  0.27723823  1
  O2-  O171  1  0.55001968  0.41021615  0.81667914  1
  O2-  O172  1  0.56792068  0.76391132  0.28610856  1
  O2-  O173  1  0.55951478  0.76939299  0.79210868  1
  O2-  O174  1  0.89300022  0.09662792  0.27445928  1
  O2-  O175  1  0.87915567  0.09836054  0.79226202  1
  O2-  O176  1  0.86795731  0.44713118  0.26908601  1
  O2-  O177  1  0.88400212  0.47596357  0.77439970  1
  O2-  O178  1  0.89448220  0.79255110  0.28724066  1
  O2-  O179  1  0.88613028  0.75424760  0.67951737  1
  O2-  O180  1  0.23056844  0.09909930  0.46375349  1
  O2-  O181  1  0.20879058  0.10625951  0.96557952  1
  O2-  O182  1  0.16785661  0.46371486  0.44005384  1
  O2-  O183  1  0.21847733  0.43605504  0.96303719  1
  O2-  O184  1  0.25385563  0.78836803  0.49049721  1
  O2-  O185  1  0.31025779  0.82811770  0.96652892  1
  O2-  O186  1  0.55808801  0.11920481  0.44614596  1
  O2-  O187  1  0.52364368  0.07752979  0.96861315  1
  O2-  O188  1  0.54747642  0.42654226  0.45742937  1
  O2-  O189  1  0.53887291  0.39191428  0.98092569  1
  O2-  O190  1  0.55508114  0.78420844  0.46834829  1
  O2-  O191  1  0.57965839  0.85605825  0.95526514  1
  O2-  O192  1  0.91252568  0.10075795  0.45127425  1
  O2-  O193  1  0.88411993  0.12416963  0.97796472  1
  O2-  O194  1  0.90686015  0.48118679  0.45506636  1
  O2-  O195  1  0.84619998  0.44976940  0.95722459  1
  O2-  O196  1  0.88868847  0.77562139  0.50012673  1
  O2-  O197  1  0.84885958  0.79681048  0.93674804  1
  O2-  O198  1  0.10583836  0.22900533  0.02454670  1
  O2-  O199  1  0.10571749  0.25470216  0.54179366  1
  O2-  O200  1  0.09867661  0.52410862  0.01245278  1
  O2-  O201  1  0.10198814  0.58242346  0.57873100  1
  O2-  O202  1  0.07066342  0.88796530  0.01712480  1
  O2-  O203  1  0.13145617  0.88210256  0.52614963  1
  O2-  O204  1  0.41640017  0.17783059  0.03110642  1
  O2-  O205  1  0.43949624  0.21212508  0.53295003  1
  O2-  O206  1  0.44853864  0.52487972  0.03171828  1
  O2-  O207  1  0.36780037  0.61245322  0.55117036  1
  O2-  O208  1  0.42457324  0.77210968  0.08102011  1
  O2-  O209  1  0.47126785  0.91177165  0.50915940  1
  O2-  O210  1  0.70165143  0.13197471  0.05114809  1
  O2-  O211  1  0.88544229  0.27430377  0.52067306  1
  O2-  O212  1  0.77755763  0.59888481  0.00977716  1
  O2-  O213  1  0.76788619  0.55152770  0.52218762  1
  O2-  O214  1  0.77985543  0.90604013  0.03895520  1
  O2-  O215  1  0.77405609  0.88815001  0.52382179  1
