# generated using pymatgen
data_H2O
_symmetry_space_group_name_H-M   'P 1'
_cell_length_a   13.52218152
_cell_length_b   13.52332446
_cell_length_c   14.67656630
_cell_angle_alpha   89.96476536
_cell_angle_beta   89.99925664
_cell_angle_gamma   120.04941227
_symmetry_Int_Tables_number   1
_chemical_formula_structural   H2O
_chemical_formula_sum   'H144 O72'
_cell_volume   2323.10454481
_cell_formula_units_Z   72
loop_
 _symmetry_equiv_pos_site_id
 _symmetry_equiv_pos_as_xyz
  1  'x, y, z'
loop_
 _atom_type_symbol
 _atom_type_oxidation_number
  H+  1.0
  O2-  -2.0
loop_
 _atom_site_type_symbol
 _atom_site_label
 _atom_site_symmetry_multiplicity
 _atom_site_fract_x
 _atom_site_fract_y
 _atom_site_fract_z
 _atom_site_occupancy
  H+  H0  1  0.09952764  0.86554027  0.13781702  1
  H+  H1  1  0.88078973  0.99786540  0.22450634  1
  H+  H2  1  0.16428219  1.03412431  0.48881077  1
  H+  H3  1  0.27861227  0.75398666  0.73546388  1
  H+  H4  1  0.14377087  0.62126981  0.24077369  1
  H+  H5  1  0.46184771  0.81449904  0.27289977  1
  H+  H6  1  0.13651518  0.86515106  0.50479650  1
  H+  H7  1  0.85041894  0.13502202  0.24856518  1
  H+  H8  1  0.96528353  0.47731205  0.99790901  1
  H+  H9  1  0.83268428  0.80345491  -0.02412835  1
  H+  H10  1  -0.02377651  0.15093963  0.76239802  1
  H+  H11  1  1.03189422  0.86317282  0.74314873  1
  H+  H12  1  0.48100468  0.84866095  0.73725763  1
  H+  H13  1  0.49916679  0.50967198  -0.00908475  1
  H+  H14  1  0.33287460  0.16802150  0.52875850  1
  H+  H15  1  0.65805714  0.78545153  0.23375612  1
  H+  H16  1  0.96960100  0.46682267  0.24042248  1
  H+  H17  1  0.18368083  0.48405387  0.25730381  1
  H+  H18  1  0.12712382  0.95450381  0.00956412  1
  H+  H19  1  0.62753663  0.17623514  0.50374758  1
  H+  H20  1  0.50917890  0.05756531  0.50490868  1
  H+  H21  1  0.16829124  0.05660340  0.26978623  1
  H+  H22  1  0.35724315  0.82916054  -0.02236555  1
  H+  H23  1  0.81165846  0.64619576  0.56545220  1
  H+  H24  1  0.15696678  0.30474609  0.75174262  1
  H+  H25  1  0.67964452  0.82520238  0.27388591  1
  H+  H26  1  0.85800822  0.15382374  0.75523785  1
  H+  H27  1  0.81774118  0.31717518  0.52114652  1
  H+  H28  1  0.15173269  0.30715070  0.23278296  1
  H+  H29  1  0.84588969  0.35989374  -0.00396692  1
  H+  H30  1  0.12639553  0.16746153  0.51894039  1
  H+  H31  1  0.69164113  0.16687282  0.24629741  1
  H+  H32  1  0.49419041  0.30896735  0.73795656  1
  H+  H33  1  0.20944933  0.75183262  0.86519161  1
  H+  H34  1  0.80853170  0.50705753  0.99933376  1
  H+  H35  1  0.48632603  0.55475938  0.23264488  1
  H+  H36  1  0.36862604  0.49171778  0.74738999  1
  H+  H37  1  0.19283261  0.94625801  0.20774754  1
  H+  H38  1  0.64579230  0.47864386  0.97508857  1
  H+  H39  1  0.70024142  0.84222029  0.01840732  1
  H+  H40  1  0.49623745  0.74021621  0.51613003  1
  H+  H41  1  0.46268736  0.18437890  0.52514971  1
  H+  H42  1  0.19146507  0.03905789  0.76841512  1
  H+  H43  1  0.79007631  0.17190227  -0.00171283  1
  H+  H44  1  0.15325777  0.62396204  0.00393031  1
  H+  H45  1  0.84122217  0.70059324  0.73067081  1
  H+  H46  1  0.25244204  0.87355018  0.90108220  1
  H+  H47  1  0.53280532  0.69541310  0.97697793  1
  H+  H48  1  0.85767368  0.50955253  0.55701474  1
  H+  H49  1  0.94749143  0.80094181  0.97550664  1
  H+  H50  1  0.82248900  -0.02797173  0.72564111  1
  H+  H51  1  0.87704813  0.86645212  0.23081588  1
  H+  H52  1  0.98979012  0.49338786  0.77407979  1
  H+  H53  1  0.51865708  0.46692317  0.74714810  1
  H+  H54  1  0.80811163  0.19450825  0.50570325  1
  H+  H55  1  0.12031394  0.83122472  -0.00003505  1
  H+  H56  1  0.36438631  0.19093072  0.23269998  1
  H+  H57  1  0.65262914  0.48270828  0.53044522  1
  H+  H58  1  0.18331642  0.17805966  0.25448988  1
  H+  H59  1  0.49329658  1.02309399  -0.01387569  1
  H+  H60  1  0.29675285  0.44945578  0.48590390  1
  H+  H61  1  0.52658833  0.45030398  0.31778188  1
  H+  H62  1  0.12860203  0.23198149  0.13586429  1
  H+  H63  1  0.92853358  0.14369733  0.97911155  1
  H+  H64  1  0.64444147  0.15204063  0.76436230  1
  H+  H65  1  0.75919611  0.88786562  0.59245787  1
  H+  H66  1  0.98124547  0.81467250  0.27725601  1
  H+  H67  1  0.16191592  0.51009915  0.01029924  1
  H+  H68  1  0.48806490  0.17969566  1.00098641  1
  H+  H69  1  0.30042965  0.83811660  0.50231094  1
  H+  H70  1  0.46010330  0.68460927  0.26848012  1
  H+  H71  1  0.16238731  0.79254991  0.26304234  1
  H+  H72  1  0.53960470  0.10421840  0.89742775  1
  H+  H73  1  0.48590954  0.46814416  0.51282261  1
  H+  H74  1  0.03703924  0.51451066  0.53678934  1
  H+  H75  1  0.85789154  0.70206405  0.27219358  1
  H+  H76  1  0.81487557  0.84935275  0.72274891  1
  H+  H77  1  0.19630628  0.15930832  0.77318299  1
  H+  H78  1  0.48760847  0.58324006  0.50426075  1
  H+  H79  1  0.83507268  0.30612479  0.75049886  1
  H+  H80  1  0.47963799  0.88471910  0.51444788  1
  H+  H81  1  0.33540633  0.85155555  0.25083533  1
  H+  H82  1  0.01398399  0.85537875  0.51602877  1
  H+  H83  1  0.83344119  0.52916545  0.24164124  1
  H+  H84  1  0.56302331  0.43042144  0.88415146  1
  H+  H85  1  0.52888949  0.34895896  0.26749968  1
  H+  H86  1  0.31354301  0.48616568  -0.00911256  1
  H+  H87  1  0.50333248  1.04017592  0.28313320  1
  H+  H88  1  0.80153495  0.62120886  -0.01100341  1
  H+  H89  1  0.36505190  0.18520404  0.75474780  1
  H+  H90  1  0.12837367  0.28375375  0.51444189  1
  H+  H91  1  0.50780832  0.32102839  0.99537672  1
  H+  H92  1  0.07895413  0.20086340  0.01442128  1
  H+  H93  1  0.82914106  0.81451679  0.49797610  1
  H+  H94  1  0.43355014  0.90435774  0.60926453  1
  H+  H95  1  0.64256312  0.47695631  0.73128128  1
  H+  H96  1  0.63854869  0.83563357  0.74530277  1
  H+  H97  1  0.90179944  0.44201858  0.85584979  1
  H+  H98  1  0.98171976  0.15976757  0.24849761  1
  H+  H99  1  0.52550974  0.81000018  -0.02207874  1
  H+  H100  1  0.16175014  0.60236020  0.50360450  1
  H+  H101  1  0.71641425  0.52387048  0.25953159  1
  H+  H102  1  0.79665051  -0.03505145  0.50096182  1
  H+  H103  1  0.47815867  0.18103029  0.23939122  1
  H+  H104  1  0.94960867  0.14311659  0.49363080  1
  H+  H105  1  0.17526507  0.74452899  0.53268351  1
  H+  H106  1  0.18436008  0.13917372  1.00981661  1
  H+  H107  1  0.20005749  0.36288802  1.00600318  1
  H+  H108  1  0.81122611  0.27916625  0.23074493  1
  H+  H109  1  0.41277142  0.82376315  0.07058822  1
  H+  H110  1  0.42269404  0.92760021  0.17088707  1
  H+  H111  1  0.46133399  0.23858542  0.09503034  1
  H+  H112  1  0.46545299  0.55721970  0.07882543  1
  H+  H113  1  0.20598079  0.49590930  0.77666474  1
  H+  H114  1  0.22535899  0.44146111  0.34550962  1
  H+  H115  1  0.76823808  0.20793217  0.09539542  1
  H+  H116  1  0.87631870  0.76972143  0.41874487  1
  H+  H117  1  0.18451184  0.46034240  0.49578067  1
  H+  H118  1  0.11463381  0.90937247  0.66007185  1
  H+  H119  1  0.88920622  0.41648965  0.32565408  1
  H+  H120  1  0.87000988  0.09295011  0.88393740  1
  H+  H121  1  0.83140587  0.90456448  0.13000077  1
  H+  H122  1  0.35367410  0.52241983  0.23751190  1
  H+  H123  1  0.50328637  0.77120572  0.37005612  1
  H+  H124  1  0.55039243  0.13169824  0.36339656  1
  H+  H125  1  0.52697199  0.15272739  0.75813860  1
  H+  H126  1  0.11630795  0.55002126  0.14644799  1
  H+  H127  1  0.20416390  0.76292111  0.35684906  1
  H+  H128  1  0.59887676  0.42831718  0.43298234  1
  H+  H129  1  0.11268229  0.22270104  0.66351410  1
  H+  H130  1  0.21166636  0.09396610  0.91768676  1
  H+  H131  1  0.87206429  0.76877022  0.82660445  1
  H+  H132  1  0.43191763  0.51366692  0.65174385  1
  H+  H133  1  0.42302860  0.21061874  0.64176095  1
  H+  H134  1  0.46264383  0.95545784  0.74407609  1
  H+  H135  1  0.62795932  0.83361220  0.49241206  1
  H+  H136  1  0.22934813  0.44009981  0.86356321  1
  H+  H137  1  0.88434171  0.10725293  0.39820901  1
  H+  H138  1  0.56743509  0.79334508  0.83698051  1
  H+  H139  1  0.81433412  0.96111327  0.00354154  1
  H+  H140  1  0.21655638  0.12691593  0.40642431  1
  H+  H141  1  0.89462154  0.50779025  0.45765738  1
  H+  H142  1  0.14449615  0.58350624  0.66760881  1
  H+  H143  1  0.78619713  0.23045867  0.66031621  1
  O2-  O144  1  0.11326627  0.22706215  0.21119056  1
  O2-  O145  1  0.11804893  0.22314493  0.73123647  1
  O2-  O146  1  0.10924322  0.54293282  0.21498189  1
  O2-  O147  1  0.15255279  0.59022263  0.73538528  1
  O2-  O148  1  0.11915275  0.87550282  0.20614983  1
  O2-  O149  1  0.11456907  0.90857934  0.72719286  1
  O2-  O150  1  0.44478447  0.22521258  0.21048533  1
  O2-  O151  1  0.44248327  0.22109535  0.72157256  1
  O2-  O152  1  0.43423626  0.58099474  0.21348297  1
  O2-  O153  1  0.44433932  0.52048895  0.71804598  1
  O2-  O154  1  0.41913172  0.89929362  0.23274261  1
  O2-  O155  1  0.42746962  0.87807738  0.71681724  1
  O2-  O156  1  0.76831331  0.19537972  0.21872418  1
  O2-  O157  1  0.78855085  0.22465845  0.72756920  1
  O2-  O158  1  0.79598595  0.57560579  0.23982518  1
  O2-  O159  1  0.76793844  0.57237822  0.68787386  1
  O2-  O160  1  0.87949830  0.92951193  0.18985954  1
  O2-  O161  1  0.77709754  0.89321772  0.70020283  1
  O2-  O162  1  0.22340927  0.13637055  0.28252267  1
  O2-  O163  1  0.23781231  0.11953448  0.79373347  1
  O2-  O164  1  0.23161725  0.45041227  0.27757546  1
  O2-  O165  1  0.23117321  0.44180790  0.79493885  1
  O2-  O166  1  0.20833489  0.75988285  0.28937540  1
  O2-  O167  1  0.19612569  0.71248936  0.75393951  1
  O2-  O168  1  0.54919240  0.12298299  0.29522108  1
  O2-  O169  1  0.56185850  0.10923040  0.78281124  1
  O2-  O170  1  0.57733891  0.42116899  0.30297951  1
  O2-  O171  1  0.56562035  0.42896334  0.76365029  1
  O2-  O172  1  0.46234154  0.75020687  0.30784979  1
  O2-  O173  1  0.56048849  0.80375269  0.77120285  1
  O2-  O174  1  0.90066841  0.10499878  0.27064711  1
  O2-  O175  1  0.89243163  0.10699985  0.77709587  1
  O2-  O176  1  0.88697775  0.42462435  0.25986194  1
  O2-  O177  1  0.90973735  0.43876633  0.78849286  1
  O2-  O178  1  0.90061618  0.78604931  0.29329818  1
  O2-  O179  1  0.88065957  0.78028712  0.75941283  1
  O2-  O180  1  0.20978982  0.11815045  0.47383733  1
  O2-  O181  1  0.19731356  0.07739356  0.98367694  1
  O2-  O182  1  0.21726473  0.41983022  0.46238384  1
  O2-  O183  1  0.23007352  0.44369375  0.97826719  1
  O2-  O184  1  0.21917701  0.78764201  0.47939117  1
  O2-  O185  1  0.23044667  0.79723330  0.92373880  1
  O2-  O186  1  0.54737523  0.13719212  0.48004448  1
  O2-  O187  1  0.51873435  0.10051585  0.96333361  1
  O2-  O188  1  0.58024204  0.43423629  0.49661038  1
  O2-  O189  1  0.55983684  0.43240297  0.95234144  1
  O2-  O190  1  0.54267935  0.79956849  0.47194562  1
  O2-  O191  1  0.57601959  0.77905128  0.96262310  1
  O2-  O192  1  0.87169275  0.10711653  0.46493462  1
  O2-  O193  1  0.85623238  0.08661926  0.95285804  1
  O2-  O194  1  0.89747155  0.47818434  0.51758545  1
  O2-  O195  1  0.88690710  0.44135415  0.97338409  1
  O2-  O196  1  0.87354874  0.77501271  0.48605995  1
  O2-  O197  1  0.86953738  0.76279717  0.94849096  1
  O2-  O198  1  0.15225927  0.23874740  0.04512558  1
  O2-  O199  1  0.08481845  0.20637947  0.54218508  1
  O2-  O200  1  0.11910465  0.54929277  0.03335766  1
  O2-  O201  1  0.12012633  0.54135031  0.54788226  1
  O2-  O202  1  0.08285930  0.86841114  0.03039487  1
  O2-  O203  1  0.09757663  0.90377746  0.53063560  1
  O2-  O204  1  0.46504751  0.23878024  0.02651002  1
  O2-  O205  1  0.41012596  0.20380460  0.55872197  1
  O2-  O206  1  0.46288380  0.55513313  0.01208721  1
  O2-  O207  1  0.43613444  0.50469349  0.52315365  1
  O2-  O208  1  0.43130253  0.86289886  0.01202937  1
  O2-  O209  1  0.43354156  0.91617365  0.54023049  1
  O2-  O210  1  0.77290750  0.22582619  0.02975883  1
  O2-  O211  1  0.77203832  0.23465453  0.53567004  1
  O2-  O212  1  0.76018870  0.54178295  0.01311760  1
  O2-  O213  1  0.77908466  0.56613903  0.58759544  1
  O2-  O214  1  0.78358564  0.88575456  0.03591367  1
  O2-  O215  1  0.75115519  0.88393933  0.52297967  1
