# generated using pymatgen
data_H2O
_symmetry_space_group_name_H-M   'P 1'
_cell_length_a   13.50336072
_cell_length_b   13.51295645
_cell_length_c   14.68774126
_cell_angle_alpha   90.01931496
_cell_angle_beta   89.97667174
_cell_angle_gamma   120.00279889
_symmetry_Int_Tables_number   1
_chemical_formula_structural   H2O
_chemical_formula_sum   'H144 O72'
_cell_volume   2320.94901829
_cell_formula_units_Z   72
loop_
 _symmetry_equiv_pos_site_id
 _symmetry_equiv_pos_as_xyz
  1  'x, y, z'
loop_
 _atom_type_symbol
 _atom_type_oxidation_number
  H+  1.0
  O2-  -2.0
loop_
 _atom_site_type_symbol
 _atom_site_label
 _atom_site_symmetry_multiplicity
 _atom_site_fract_x
 _atom_site_fract_y
 _atom_site_fract_z
 _atom_site_occupancy
  H+  H0  1  0.82038123  0.84927746  0.50431897  1
  H+  H1  1  0.43562589  0.21640742  0.16196493  1
  H+  H2  1  0.83894898  0.97267309  0.01055021  1
  H+  H3  1  0.18577962  0.14526498  0.25983952  1
  H+  H4  1  0.36282071  0.52035794  0.50709310  1
  H+  H5  1  1.03755883  0.18460525  0.75639421  1
  H+  H6  1  0.97245237  0.48087403  0.75013464  1
  H+  H7  1  0.87787545  0.81167425  0.25611785  1
  H+  H8  1  0.47100926  0.51240142  0.23676189  1
  H+  H9  1  0.13231657  0.81973053  0.73072520  1
  H+  H10  1  0.19533754  0.71142828  -0.01630924  1
  H+  H11  1  0.13972894  0.50083052  0.51850544  1
  H+  H12  1  0.06059837  0.53719314  -0.00584428  1
  H+  H13  1  0.82611913  0.64677057  -0.06384994  1
  H+  H14  1  0.37573386  0.85954087  0.22418316  1
  H+  H15  1  0.42765549  0.85508987  0.49172473  1
  H+  H16  1  0.81214445  0.61683499  0.72758401  1
  H+  H17  1  0.79713549  0.20136643  -0.02402534  1
  H+  H18  1  0.10841914  0.86907118  0.63992897  1
  H+  H19  1  0.22045692  0.10917434  0.85649050  1
  H+  H20  1  0.36290965  0.49688949  0.74274496  1
  H+  H21  1  0.14704979  0.18243136  0.50288258  1
  H+  H22  1  0.98632698  0.82637850  0.49138613  1
  H+  H23  1  0.17400778  0.99720000  -0.00469212  1
  H+  H24  1  0.42210783  0.54847986  0.15221927  1
  H+  H25  1  0.01701440  0.49177563  0.52099800  1
  H+  H26  1  0.84618035  0.45595106  0.27549379  1
  H+  H27  1  0.13808628  0.62135986  0.73921451  1
  H+  H28  1  0.30456149  0.14594635  0.26482058  1
  H+  H29  1  0.86262870  1.01877428  0.27567101  1
  H+  H30  1  0.82069202  0.84020307  0.72490996  1
  H+  H31  1  0.50550297  0.04628971  1.00958348  1
  H+  H32  1  0.84654745  0.50114905  -0.03391276  1
  H+  H33  1  0.85610592  1.02624307  0.75353343  1
  H+  H34  1  0.49151469  1.02475683  0.73779954  1
  H+  H35  1  0.87150370  0.83270925  -0.01974951  1
  H+  H36  1  0.51268990  1.04068285  0.25753443  1
  H+  H37  1  0.48498285  0.79938062  0.97848477  1
  H+  H38  1  0.27355505  0.87752283  0.50138331  1
  H+  H39  1  0.47448896  0.85561293  0.72271473  1
  H+  H40  1  0.64284629  0.80955945  0.49475112  1
  H+  H41  1  0.48700785  0.18258980  0.25007739  1
  H+  H42  1  0.48920713  0.48105464  -0.00296753  1
  H+  H43  1  0.50956333  0.69160577  0.26841996  1
  H+  H44  1  0.56574637  0.77402127  1.03723229  1
  H+  H45  1  0.03139746  0.50360481  0.23156287  1
  H+  H46  1  0.46461857  0.18375256  0.02516729  1
  H+  H47  1  0.44932293  0.29324838  1.01689204  1
  H+  H48  1  0.15217567  0.29780364  0.24057547  1
  H+  H49  1  0.28742202  0.80477667  0.74743069  1
  H+  H50  1  0.80856951  0.28844400  0.72895290  1
  H+  H51  1  0.99545841  0.14975072  0.99773836  1
  H+  H52  1  0.32480188  0.48409064  0.00929082  1
  H+  H53  1  0.30380524  0.15229532  0.48577218  1
  H+  H54  1  0.17617480  0.28161671  0.00106661  1
  H+  H55  1  0.46809010  0.92724623  -0.08384881  1
  H+  H56  1  0.83287088  0.13497400  0.48837847  1
  H+  H57  1  0.44120443  0.60548405  1.00761493  1
  H+  H58  1  0.77588951  0.54139615  0.36279662  1
  H+  H59  1  0.29264582  0.47778905  0.26251343  1
  H+  H60  1  0.58411295  0.45862176  1.03843672  1
  H+  H61  1  0.99921285  0.81800010  0.25377158  1
  H+  H62  1  0.28580821  0.12857575  -0.00608505  1
  H+  H63  1  0.15811034  0.31174091  0.76088205  1
  H+  H64  1  0.16116930  0.96535887  0.23735959  1
  H+  H65  1  0.81539525  0.51039439  0.49325897  1
  H+  H66  1  0.20134514  0.70047723  0.25009701  1
  H+  H67  1  0.20086087  0.81679176  0.25184860  1
  H+  H68  1  0.81247718  0.49195798  0.74261038  1
  H+  H69  1  0.47481328  0.29363215  0.73606545  1
  H+  H70  1  0.80675759  0.17065709  0.73130758  1
  H+  H71  1  0.17349941  0.47414295  0.25820521  1
  H+  H72  1  0.81238786  0.31931954  1.00937775  1
  H+  H73  1  0.60663430  0.82775475  0.26653163  1
  H+  H74  1  0.68514990  0.49271537  0.74623373  1
  H+  H75  1  0.61148458  0.14013265  0.74079266  1
  H+  H76  1  0.47692159  0.30609501  0.50408292  1
  H+  H77  1  0.62150664  0.16685558  1.01097171  1
  H+  H78  1  0.72574297  0.85664305  -0.01050064  1
  H+  H79  1  0.82636748  0.63674633  0.49118069  1
  H+  H80  1  0.90188453  0.49093912  1.05647026  1
  H+  H81  1  0.17198368  0.17919294  0.76985437  1
  H+  H82  1  0.82963905  0.62135229  0.27930653  1
  H+  H83  1  0.17914132  0.47902463  0.76069312  1
  H+  H84  1  0.84797357  0.33826747  0.26166742  1
  H+  H85  1  0.18539385  0.36424218  0.49233632  1
  H+  H86  1  0.96394303  0.78641936  0.72559598  1
  H+  H87  1  0.67156386  0.15998650  0.49290234  1
  H+  H88  1  0.62392486  0.47744340  0.26511733  1
  H+  H89  1  0.88429971  0.14088567  1.03962319  1
  H+  H90  1  0.82795768  0.34186283  0.49257764  1
  H+  H91  1  0.99314925  0.11707905  0.27925906  1
  H+  H92  1  0.17886669  0.98378017  0.49783187  1
  H+  H93  1  0.50464107  0.35847838  0.25421614  1
  H+  H94  1  0.51930170  0.14912505  0.47835474  1
  H+  H95  1  0.70331614  0.53640385  -0.06396855  1
  H+  H96  1  0.51357828  0.47572107  0.75542042  1
  H+  H97  1  0.64559513  0.84022945  0.75493187  1
  H+  H98  1  0.30070522  0.16021054  0.76276155  1
  H+  H99  1  0.81050705  0.96415095  0.50833251  1
  H+  H100  1  0.15568513  0.15178593  0.00350875  1
  H+  H101  1  0.12851809  0.37742782  0.97685255  1
  H+  H102  1  0.03151620  0.18487064  0.51170041  1
  H+  H103  1  0.62905400  0.48892350  0.47701107  1
  H+  H104  1  0.05497536  0.83916305  0.02341119  1
  H+  H105  1  0.35125084  0.85091617  0.97077603  1
  H+  H106  1  0.17444556  0.52851454  -0.00304801  1
  H+  H107  1  0.68102430  0.16153390  0.24248629  1
  H+  H108  1  0.11571847  0.55177534  0.14418715  1
  H+  H109  1  0.42250968  0.88991759  0.63582525  1
  H+  H110  1  0.55121483  0.43586352  0.84655098  1
  H+  H111  1  0.18767266  0.83148269  0.99092452  1
  H+  H112  1  0.97938787  0.86492508  0.91813793  1
  H+  H113  1  0.54157990  0.44602921  0.39404078  1
  H+  H114  1  0.89140304  0.43334208  0.83850292  1
  H+  H115  1  0.88293372  0.10162007  0.84355214  1
  H+  H116  1  0.13100567  0.88952385  0.14476609  1
  H+  H117  1  0.46682884  0.17129245  0.73025283  1
  H+  H118  1  0.74611907  0.93452688  0.14990712  1
  H+  H119  1  0.78216040  0.88898868  0.64286382  1
  H+  H120  1  0.22133358  0.10391581  0.39751011  1
  H+  H121  1  0.12052745  0.21725580  0.15151894  1
  H+  H122  1  0.89465390  0.09065627  0.41522228  1
  H+  H123  1  0.75713735  0.55987190  0.11380488  1
  H+  H124  1  0.75374674  0.19981161  0.58388934  1
  H+  H125  1  0.47619351  0.99448519  0.49380349  1
  H+  H126  1  0.55214699  0.10974568  0.35670110  1
  H+  H127  1  0.21705042  0.44399157  0.85520655  1
  H+  H128  1  0.75627365  0.19983667  0.15098630  1
  H+  H129  1  0.44641500  0.91341151  0.13413866  1
  H+  H130  1  0.72877734  1.02633133  0.20625499  1
  H+  H131  1  0.81418583  0.56299488  0.11912268  1
  H+  H132  1  0.51318730  0.68332853  0.49731727  1
  H+  H133  1  0.91378135  0.79088779  0.40116406  1
  H+  H134  1  0.22027210  0.44467151  0.40495160  1
  H+  H135  1  0.21426681  0.77259422  0.84045414  1
  H+  H136  1  0.43434355  0.22388089  0.59138516  1
  H+  H137  1  0.48171289  0.51902730  0.50386648  1
  H+  H138  1  0.87965194  0.74975927  0.81366142  1
  H+  H139  1  0.44132042  0.53837345  0.65401250  1
  H+  H140  1  0.88839162  0.42355432  0.40864042  1
  H+  H141  1  0.09804638  0.53703414  0.65056718  1
  H+  H142  1  0.55747710  0.76581831  0.39800201  1
  H+  H143  1  0.55727263  0.78419564  0.83577824  1
  O2-  O144  1  0.11837631  0.21677003  0.21878928  1
  O2-  O145  1  0.12174250  0.22640125  0.74522143  1
  O2-  O146  1  0.11279357  0.54686684  0.21173188  1
  O2-  O147  1  0.09629751  0.53866899  0.72112800  1
  O2-  O148  1  0.12259424  0.88514913  0.21399303  1
  O2-  O149  1  0.08495919  0.85113269  0.70468122  1
  O2-  O150  1  0.44256657  0.22157583  0.22957090  1
  O2-  O151  1  0.42591336  0.21505212  0.71252525  1
  O2-  O152  1  0.43142307  0.55562749  0.21969832  1
  O2-  O153  1  0.44245616  0.52651158  0.72039772  1
  O2-  O154  1  0.45506498  0.91336189  0.19979218  1
  O2-  O155  1  0.42158659  0.88324221  0.70411437  1
  O2-  O156  1  0.75831467  0.18113756  0.21531712  1
  O2-  O157  1  0.76438339  0.20796484  0.70879648  1
  O2-  O158  1  0.77839352  0.53938309  0.29479870  1
  O2-  O159  1  0.76633989  0.52816640  0.71794129  1
  O2-  O160  1  0.72916328  0.95299504  0.21055545  1
  O2-  O161  1  0.78894635  0.89082076  0.71107003  1
  O2-  O162  1  0.22216413  0.10171609  0.28363060  1
  O2-  O163  1  0.22104364  0.12689397  0.78963801  1
  O2-  O164  1  0.21182281  0.43309107  0.28404341  1
  O2-  O165  1  0.22109216  0.44132422  0.78516731  1
  O2-  O166  1  0.24797221  0.78159321  0.26713834  1
  O2-  O167  1  0.20766659  0.76142589  0.77282809  1
  O2-  O168  1  0.55465240  0.11916618  0.28480527  1
  O2-  O169  1  0.53096002  0.10510879  0.76067425  1
  O2-  O170  1  0.53985148  0.44174681  0.27202397  1
  O2-  O171  1  0.56033017  0.43923284  0.78012916  1
  O2-  O172  1  0.55028268  0.76373461  0.30437081  1
  O2-  O173  1  0.56893317  0.82190827  0.77692341  1
  O2-  O174  1  0.93016381  0.05655245  0.31569542  1
  O2-  O175  1  0.89155157  0.10691108  0.77718668  1
  O2-  O176  1  0.89402350  0.41904099  0.28137215  1
  O2-  O177  1  0.88723792  0.43828099  0.77252038  1
  O2-  O178  1  0.91832313  0.77553946  0.28206077  1
  O2-  O179  1  0.87649665  0.74339019  0.74699915  1
  O2-  O180  1  0.22137487  0.10375408  0.46605935  1
  O2-  O181  1  0.20726328  0.08269500  0.96739351  1
  O2-  O182  1  0.22698209  0.44741105  0.47261725  1
  O2-  O183  1  0.20588426  0.43676109  0.96166931  1
  O2-  O184  1  0.19272957  0.84239842  0.47711043  1
  O2-  O185  1  0.22678855  0.78916915  0.95657321  1
  O2-  O186  1  0.55186245  0.10203365  0.45761218  1
  O2-  O187  1  0.53837542  0.12897409  1.00023397  1
  O2-  O188  1  0.54559140  0.44972975  0.46190852  1
  O2-  O189  1  0.54354780  0.45066228  0.98143280  1
  O2-  O190  1  0.55944499  0.76708977  0.47190108  1
  O2-  O191  1  0.52461819  0.75238650  0.97959335  1
  O2-  O192  1  0.87801069  0.09472948  0.48149424  1
  O2-  O193  1  0.90872185  0.11279498  0.98789058  1
  O2-  O194  1  0.87562661  0.42532691  0.47492567  1
  O2-  O195  1  0.88900834  0.46398833  0.99346652  1
  O2-  O196  1  0.90624866  0.78944205  0.46883835  1
  O2-  O197  1  0.91162196  0.79989574  0.94451462  1
  O2-  O198  1  0.12462555  0.20449659  0.02552073  1
  O2-  O199  1  0.11469287  0.22999571  0.52359162  1
  O2-  O200  1  0.13677841  0.57342966  0.02219024  1
  O2-  O201  1  0.09542795  0.53343468  0.54682327  1
  O2-  O202  1  0.13650912  0.88869221  0.03455148  1
  O2-  O203  1  0.14013965  0.90037958  0.52444100  1
  O2-  O204  1  0.41437429  0.21658008  0.04432664  1
  O2-  O205  1  0.43628589  0.22477549  0.52353845  1
  O2-  O206  1  0.40778102  0.52670795  0.03253203  1
  O2-  O207  1  0.44510463  0.56241460  0.52905095  1
  O2-  O208  1  0.44114050  0.89287267  -0.02392407  1
  O2-  O209  1  0.41334476  0.91064080  0.52252905  1
  O2-  O210  1  0.77249355  0.23542807  0.02292736  1
  O2-  O211  1  0.75705724  0.20255786  0.51651665  1
  O2-  O212  1  0.78369325  0.56505667  -0.08085909  1
  O2-  O213  1  0.77343517  0.55327350  0.48406968  1
  O2-  O214  1  0.79301730  0.88987410  0.02915810  1
  O2-  O215  1  0.77084870  0.87952428  0.52714309  1
