# generated using pymatgen
data_H2O
_symmetry_space_group_name_H-M   'P 1'
_cell_length_a   13.50812428
_cell_length_b   13.51750625
_cell_length_c   14.69366042
_cell_angle_alpha   89.99660595
_cell_angle_beta   90.02417751
_cell_angle_gamma   119.99456644
_symmetry_Int_Tables_number   1
_chemical_formula_structural   H2O
_chemical_formula_sum   'H144 O72'
_cell_volume   2323.67822350
_cell_formula_units_Z   72
loop_
 _symmetry_equiv_pos_site_id
 _symmetry_equiv_pos_as_xyz
  1  'x, y, z'
loop_
 _atom_type_symbol
 _atom_type_oxidation_number
  H+  1.0
  O2-  -2.0
loop_
 _atom_site_type_symbol
 _atom_site_label
 _atom_site_symmetry_multiplicity
 _atom_site_fract_x
 _atom_site_fract_y
 _atom_site_fract_z
 _atom_site_occupancy
  H+  H0  1  0.17916300  0.81015541  0.47253492  1
  H+  H1  1  0.04090584  0.85639248  0.50008109  1
  H+  H2  1  0.28775676  0.43971594  0.76280749  1
  H+  H3  1  0.47761836  0.17456568  0.01833499  1
  H+  H4  1  0.13529353  0.22244223  0.09920056  1
  H+  H5  1  0.84723886  0.35230859  0.26974017  1
  H+  H6  1  0.80416943  0.28561814  -0.01578518  1
  H+  H7  1  0.48451910  0.50835637  0.23532966  1
  H+  H8  1  0.46135649  0.45967488  0.74159259  1
  H+  H9  1  0.44662788  0.97681346  0.74757606  1
  H+  H10  1  0.13892693  0.72930462  0.25344353  1
  H+  H11  1  0.82541365  0.27926302  0.50370969  1
  H+  H12  1  0.50659475  0.34426128  0.99176641  1
  H+  H13  1  0.14324104  0.66670122  0.02906747  1
  H+  H14  1  0.51944564  0.82158726  1.01909839  1
  H+  H15  1  0.49000045  0.18919022  0.51794270  1
  H+  H16  1  0.17252105  0.88702284  0.23728115  1
  H+  H17  1  0.82894640  0.85346959  0.24326352  1
  H+  H18  1  0.13217122  0.28846941  0.73671938  1
  H+  H19  1  0.19173316  0.46637148  0.26300772  1
  H+  H20  1  0.72174809  0.49432747  0.72742193  1
  H+  H21  1  0.81720898  0.84508570  1.01217861  1
  H+  H22  1  0.17843448  0.61389463  0.24741682  1
  H+  H23  1  0.11219297  0.90071275  0.08866305  1
  H+  H24  1  0.69736683  0.84050304  0.01842755  1
  H+  H25  1  -0.03045285  0.47253369  0.26676647  1
  H+  H26  1  0.86775997  1.04101933  0.48977015  1
  H+  H27  1  0.17628175  0.15841823  0.25766533  1
  H+  H28  1  0.16761269  0.50386909  0.73435192  1
  H+  H29  1  1.00167846  0.48839475  0.74641094  1
  H+  H30  1  1.02078399  0.17269201  0.25073162  1
  H+  H31  1  0.22851399  0.07077169  0.75256739  1
  H+  H32  1  0.32724775  0.19373678  0.76845360  1
  H+  H33  1  0.79117743  0.31246677  0.71607664  1
  H+  H34  1  0.66058572  0.17102053  0.47940639  1
  H+  H35  1  0.70313751  0.18310540  0.24833329  1
  H+  H36  1  0.30048436  0.80759573  0.77233919  1
  H+  H37  1  0.87167562  0.70891397  0.27111855  1
  H+  H38  1  0.88495073  0.49349815  0.74501207  1
  H+  H39  1  0.15537967  0.50957361  0.50119991  1
  H+  H40  1  0.83331732  0.50403277  -0.02083867  1
  H+  H41  1  0.47720892  0.83889276  0.53326698  1
  H+  H42  1  -0.02749489  0.47348636  0.49670851  1
  H+  H43  1  0.52351861  0.80268779  0.25022731  1
  H+  H44  1  0.35182948  0.16748286  0.01328613  1
  H+  H45  1  0.37325655  0.84262014  0.23084419  1
  H+  H46  1  0.02254522  0.17644287  0.49886129  1
  H+  H47  1  0.49037962  0.63230433  0.23741851  1
  H+  H48  1  0.64009859  0.56053315  0.80311437  1
  H+  H49  1  0.51817441  0.36202879  0.49221814  1
  H+  H50  1  0.15290725  0.18447162  0.73459028  1
  H+  H51  1  0.36873424  0.18566643  0.51529581  1
  H+  H52  1  0.62523088  0.81465251  0.50849306  1
  H+  H53  1  0.17844228  0.62584693  0.73948400  1
  H+  H54  1  0.15721304  -0.00418806  0.24183937  1
  H+  H55  1  0.83781625  1.03870944  -0.01832759  1
  H+  H56  1  0.51503583  0.03096090  1.01284591  1
  H+  H57  1  0.70510568  0.51026046  0.49985491  1
  H+  H58  1  0.31216553  0.47212973  0.26268091  1
  H+  H59  1  0.97104522  0.47953695  0.97718756  1
  H+  H60  1  0.18603777  0.16381904  0.48625322  1
  H+  H61  1  0.48261688  0.50893608  0.51013349  1
  H+  H62  1  0.36114746  0.50300603  0.51447463  1
  H+  H63  1  0.81498262  0.96177812  0.74704389  1
  H+  H64  1  0.47525277  0.65944540  1.01517505  1
  H+  H65  1  0.64267646  0.86480415  0.77839300  1
  H+  H66  1  0.85938516  0.69847070  0.48789628  1
  H+  H67  1  0.51761092  0.32620712  0.74294545  1
  H+  H68  1  0.89461779  0.43426707  0.40738809  1
  H+  H69  1  0.98624817  0.83289025  0.26101600  1
  H+  H70  1  0.16584659  -0.01019057  1.00245338  1
  H+  H71  1  0.81543447  0.84778053  0.51482294  1
  H+  H72  1  0.82112133  0.18294741  0.26248332  1
  H+  H73  1  0.27781863  0.92802536  0.69558357  1
  H+  H74  1  0.17797891  0.35259127  0.49458293  1
  H+  H75  1  0.50455988  0.13713884  0.24960747  1
  H+  H76  1  0.19058786  0.04732138  0.47677434  1
  H+  H77  1  0.79869756  0.66120601  0.76374187  1
  H+  H78  1  0.76770246  0.82309556  0.74249241  1
  H+  H79  1  0.82787814  0.50885438  0.26300396  1
  H+  H80  1  0.80504630  0.16512599  -0.01881672  1
  H+  H81  1  0.17110464  0.45784293  0.00758589  1
  H+  H82  1  0.18678036  0.82899073  1.00045157  1
  H+  H83  1  0.86739605  0.70119401  -0.00578620  1
  H+  H84  1  0.52591930  0.86727872  0.78411952  1
  H+  H85  1  0.16932596  0.76244649  0.79645533  1
  H+  H86  1  0.51025890  0.14754297  0.77754610  1
  H+  H87  1  0.51133794  0.35049363  0.25837188  1
  H+  H88  1  0.43671390  0.56478463  0.10996544  1
  H+  H89  1  0.36251433  0.84176102  0.51418652  1
  H+  H90  1  0.19221879  0.18652260  1.01428364  1
  H+  H91  1  0.14795513  0.89050129  0.72090895  1
  H+  H92  1  0.45398182  0.64903605  0.76328026  1
  H+  H93  1  0.36252203  0.18442201  0.23848546  1
  H+  H94  1  0.63296301  0.14727214  0.98925258  1
  H+  H95  1  0.87858460  0.09006555  0.85869947  1
  H+  H96  1  0.82852427  0.16084870  0.49854511  1
  H+  H97  1  0.63959618  0.79967938  0.25458523  1
  H+  H98  1  0.99530327  0.84410440  0.76601855  1
  H+  H99  1  0.51183716  0.65552108  0.75616364  1
  H+  H100  1  0.74633360  0.23703540  0.62942989  1
  H+  H101  1  0.85258750  0.03341834  0.27358199  1
  H+  H102  1  0.48973381  0.96250665  0.24047965  1
  H+  H103  1  -0.02928804  0.81618815  0.72056206  1
  H+  H104  1  0.62808899  0.45928721  -0.01168447  1
  H+  H105  1  0.62412605  0.25053399  0.43000269  1
  H+  H106  1  0.96398681  0.12256172  0.76674861  1
  H+  H107  1  0.20097336  0.35230122  1.00757518  1
  H+  H108  1  0.55198376  0.79591666  0.91881214  1
  H+  H109  1  0.89778991  0.11255838  0.36818927  1
  H+  H110  1  0.55086003  0.43414389  0.39914214  1
  H+  H111  1  0.21670983  0.77092859  0.34345522  1
  H+  H112  1  0.10701817  0.21579022  0.58966390  1
  H+  H113  1  0.82284016  0.50622258  0.50231755  1
  H+  H114  1  0.21837354  0.43161732  0.85577216  1
  H+  H115  1  0.76699862  0.49216600  0.06869085  1
  H+  H116  1  0.23357640  0.77170385  0.92816509  1
  H+  H117  1  0.11394460  0.55288661  0.15729602  1
  H+  H118  1  0.89985575  0.78557356  0.40403809  1
  H+  H119  1  0.77301888  0.88917351  0.60090484  1
  H+  H120  1  0.17781865  0.68921095  0.47690505  1
  H+  H121  1  0.22870881  0.43403112  0.40734247  1
  H+  H122  1  0.97805254  0.82476201  0.98263090  1
  H+  H123  1  0.78448903  0.88987126  0.15575888  1
  H+  H124  1  0.43862280  0.21718251  0.14675681  1
  H+  H125  1  0.12750202  0.55697443  0.59019654  1
  H+  H126  1  0.79251905  0.54687007  0.63669631  1
  H+  H127  1  0.41214955  0.48306320  0.64968397  1
  H+  H128  1  0.14359820  0.28899094  0.24795724  1
  H+  H129  1  0.63018583  0.46932489  0.27168278  1
  H+  H130  1  0.02149288  0.60303401  0.07847144  1
  H+  H131  1  0.34443883  0.52261648  1.01818994  1
  H+  H132  1  0.22747218  0.12857956  0.34686800  1
  H+  H133  1  0.81626016  0.72826310  0.85738099  1
  H+  H134  1  0.52410128  0.08768523  0.86740941  1
  H+  H135  1  0.79599207  0.57009397  0.18442195  1
  H+  H136  1  0.41252403  0.89168850  0.65075779  1
  H+  H137  1  0.23346858  0.11332183  0.91483501  1
  H+  H138  1  0.56640733  0.44862594  0.86217612  1
  H+  H139  1  0.46215153  0.24004676  0.66064456  1
  H+  H140  1  0.14704160  0.91115700  0.57187518  1
  H+  H141  1  0.55052380  0.10912746  0.33991737  1
  H+  H142  1  0.50916620  0.69523598  0.51637547  1
  H+  H143  1  0.91131938  0.44628254  0.87721653  1
  O2-  O144  1  0.10087695  0.20997184  0.22344985  1
  O2-  O145  1  0.10236389  0.21179055  0.70895045  1
  O2-  O146  1  0.12333026  0.53804813  0.22321497  1
  O2-  O147  1  0.13731525  0.55182685  0.70635003  1
  O2-  O148  1  0.11979911  0.91358004  0.21875124  1
  O2-  O149  1  0.21283493  0.94355047  0.68403528  1
  O2-  O150  1  0.44321812  0.21895942  0.21654491  1
  O2-  O151  1  0.46522235  0.24567053  0.72839040  1
  O2-  O152  1  0.44368907  0.54820153  0.21380536  1
  O2-  O153  1  0.39002970  0.44159882  0.70897699  1
  O2-  O154  1  0.45645855  0.87976765  0.22253883  1
  O2-  O155  1  0.38782091  0.90087123  0.71546255  1
  O2-  O156  1  0.78708762  0.23086289  0.24375320  1
  O2-  O157  1  0.72548454  0.27734208  0.67486217  1
  O2-  O158  1  0.78802896  0.55486014  0.24945302  1
  O2-  O159  1  0.79946147  0.54747529  0.70492619  1
  O2-  O160  1  0.78346542  0.88903475  0.22409132  1
  O2-  O161  1  0.75538836  0.88330358  0.71628998  1
  O2-  O162  1  0.22392488  0.12316376  0.27874238  1
  O2-  O163  1  0.24458944  0.14201599  0.78311336  1
  O2-  O164  1  0.23300970  0.42932127  0.28897910  1
  O2-  O165  1  0.21255404  0.42794914  0.78860701  1
  O2-  O166  1  0.21816768  0.77384802  0.27341451  1
  O2-  O167  1  0.23009795  0.74538691  0.80816662  1
  O2-  O168  1  0.54441457  0.09657213  0.27294502  1
  O2-  O169  1  0.51774925  0.08247383  0.79928523  1
  O2-  O170  1  0.54740596  0.43051313  0.28477861  1
  O2-  O171  1  0.58690325  0.47677531  0.79631770  1
  O2-  O172  1  0.55601685  0.75377869  0.26695723  1
  O2-  O173  1  0.57785649  0.85238899  0.81963760  1
  O2-  O174  1  0.89424181  0.11357569  0.29549913  1
  O2-  O175  1  0.88570078  0.07118540  0.78875307  1
  O2-  O176  1  0.89031461  0.43888162  0.28928466  1
  O2-  O177  1  0.92274143  0.45332966  0.77230339  1
  O2-  O178  1  0.90708993  0.79053379  0.28753897  1
  O2-  O179  1  0.76703881  0.69922628  0.80250866  1
  O2-  O180  1  0.23417151  0.13031554  0.46265989  1
  O2-  O181  1  0.23179869  0.10617926  0.98149603  1
  O2-  O182  1  0.22268528  0.43616510  0.47489209  1
  O2-  O183  1  0.22735198  0.43927914  0.98424509  1
  O2-  O184  1  0.21740961  0.76787977  0.44982241  1
  O2-  O185  1  0.22031189  0.77723872  0.99369339  1
  O2-  O186  1  0.59053289  0.17201840  0.45125105  1
  O2-  O187  1  0.54451767  0.10475425  0.98042812  1
  O2-  O188  1  0.56084453  0.44129802  0.46694706  1
  O2-  O189  1  0.54908441  0.42454883  0.96666419  1
  O2-  O190  1  0.54148395  0.77564468  0.49727643  1
  O2-  O191  1  0.54601746  0.77345124  0.98557935  1
  O2-  O192  1  0.90573235  0.12030944  0.46686240  1
  O2-  O193  1  0.86935123  0.11306380  0.95102192  1
  O2-  O194  1  0.89130508  0.43281316  0.47523453  1
  O2-  O195  1  0.89662473  0.44180668  0.94573452  1
  O2-  O196  1  0.89985254  0.78133101  0.47204507  1
  O2-  O197  1  0.89447542  0.77654953  0.96631426  1
  O2-  O198  1  0.16513239  0.24253441  0.03665255  1
  O2-  O199  1  0.11005457  0.21892558  0.52172260  1
  O2-  O200  1  0.08059861  0.58665778  0.05821216  1
  O2-  O201  1  0.11744791  0.55344351  0.52258182  1
  O2-  O202  1  0.11596540  0.89908771  0.02158570  1
  O2-  O203  1  0.12666001  0.89876835  0.50639287  1
  O2-  O204  1  0.43640899  0.21521668  0.03872215  1
  O2-  O205  1  0.44728445  0.22584035  0.54229712  1
  O2-  O206  1  0.42787257  0.57445458  0.04133912  1
  O2-  O207  1  0.43998604  0.54150943  0.54119083  1
  O2-  O208  1  0.47132382  0.89789453  0.07226513  1
  O2-  O209  1  0.43270844  0.87858457  0.55089270  1
  O2-  O210  1  0.75981669  0.20628471  0.00501773  1
  O2-  O211  1  0.77805071  0.19720496  0.51878104  1
  O2-  O212  1  0.79307224  0.53989775  0.01460811  1
  O2-  O213  1  0.78620272  0.55188248  0.52158098  1
  O2-  O214  1  0.77743456  0.88239629  0.04018538  1
  O2-  O215  1  0.77494546  0.88868711  0.53258950  1
