# generated using pymatgen
data_H2O
_symmetry_space_group_name_H-M   'P 1'
_cell_length_a   13.52945849
_cell_length_b   13.52046277
_cell_length_c   14.69230811
_cell_angle_alpha   89.98656505
_cell_angle_beta   90.02398390
_cell_angle_gamma   120.02732193
_symmetry_Int_Tables_number   1
_chemical_formula_structural   H2O
_chemical_formula_sum   'H144 O72'
_cell_volume   2326.87449301
_cell_formula_units_Z   72
loop_
 _symmetry_equiv_pos_site_id
 _symmetry_equiv_pos_as_xyz
  1  'x, y, z'
loop_
 _atom_type_symbol
 _atom_type_oxidation_number
  H+  1.0
  O2-  -2.0
loop_
 _atom_site_type_symbol
 _atom_site_label
 _atom_site_symmetry_multiplicity
 _atom_site_fract_x
 _atom_site_fract_y
 _atom_site_fract_z
 _atom_site_occupancy
  H+  H0  1  0.63201228  0.14985657  1.01490326  1
  H+  H1  1  0.55374078  0.43354641  0.90155099  1
  H+  H2  1  0.81622043  0.63551941  0.73550009  1
  H+  H3  1  0.38661751  0.84316499  0.24053164  1
  H+  H4  1  0.13483893  0.98456569  0.74895298  1
  H+  H5  1  0.50167638  0.51875549  1.01571143  1
  H+  H6  1  0.78677310  0.33181570  0.52714295  1
  H+  H7  1  0.14937341  0.84276189  -0.00448259  1
  H+  H8  1  -0.00035049  0.86224479  0.22186129  1
  H+  H9  1  0.17669472  0.65941608  0.73960167  1
  H+  H10  1  0.11032088  0.23147807  0.66810802  1
  H+  H11  1  0.62753412  0.48287731  0.26124404  1
  H+  H12  1  0.48975685  0.26643217  0.49595097  1
  H+  H13  1  0.86819132  0.11764133  0.90022562  1
  H+  H14  1  0.02750867  0.52654001  0.01737402  1
  H+  H15  1  0.25543154  0.49613958  0.49495219  1
  H+  H16  1  0.48060566  0.83887064  0.00603315  1
  H+  H17  1  0.16973012  0.88513992  0.28618715  1
  H+  H18  1  0.16943291  0.38350243  0.97827147  1
  H+  H19  1  0.20846486  0.16671751  0.48370216  1
  H+  H20  1  0.15931272  0.47219347  0.25500032  1
  H+  H21  1  0.84702375  1.02380335  0.25606863  1
  H+  H22  1  0.52063834  0.02855608  0.25225612  1
  H+  H23  1  0.48164411  0.63357817  0.24511945  1
  H+  H24  1  0.68923910  0.84722102  0.23593323  1
  H+  H25  1  0.03035682  0.84189303  -0.00600901  1
  H+  H26  1  0.52775807  0.69537204  1.00141352  1
  H+  H27  1  0.78647119  0.72743197  0.96455867  1
  H+  H28  1  0.84440828  0.47631565  -0.00885949  1
  H+  H29  1  0.38739197  0.84194113  0.76082356  1
  H+  H30  1  0.44365518  0.21622328  0.15754165  1
  H+  H31  1  0.50065451  0.26655934  0.75835082  1
  H+  H32  1  0.30296269  0.14817410  0.99517543  1
  H+  H33  1  0.81591403  0.51199834  0.23792598  1
  H+  H34  1  0.46459857  0.87999423  0.67171734  1
  H+  H35  1  0.37519860  0.46401754  0.46548627  1
  H+  H36  1  0.51582813  1.04594433  0.76097422  1
  H+  H37  1  0.53113073  0.81108224  0.77678551  1
  H+  H38  1  0.62856771  0.47997212  0.76047173  1
  H+  H39  1  0.96505238  0.46249668  0.24821259  1
  H+  H40  1  1.03820938  0.19053850  0.25280930  1
  H+  H41  1  0.52359170  0.82113633  0.24655448  1
  H+  H42  1  0.20940295  0.45954577  0.84837812  1
  H+  H43  1  -0.01736721  0.50349012  0.75948257  1
  H+  H44  1  0.80918841  0.62882553  0.23464648  1
  H+  H45  1  0.51219030  0.48453409  0.77109132  1
  H+  H46  1  0.12600911  0.52619993  0.50778356  1
  H+  H47  1  0.04104676  0.39618338  0.17442471  1
  H+  H48  1  0.29547127  0.49338983  0.27020437  1
  H+  H49  1  0.18830987  0.71914837  0.49636800  1
  H+  H50  1  0.84191168  0.68446471  0.47327758  1
  H+  H51  1  0.96667184  0.49819367  0.48312919  1
  H+  H52  1  0.20704597  0.89053183  0.32621240  1
  H+  H53  1  0.68309798  0.85216575  1.00784472  1
  H+  H54  1  0.02958038  0.19155108  -0.00946941  1
  H+  H55  1  0.83943278  0.35937655  0.26303786  1
  H+  H56  1  0.83111732  1.04167165  -0.00899823  1
  H+  H57  1  0.36330632  0.17845926  0.24489272  1
  H+  H58  1  0.69690297  0.17417524  0.24982944  1
  H+  H59  1  0.51630469  0.14498175  0.26110101  1
  H+  H60  1  0.21136555  0.84744203  0.49667735  1
  H+  H61  1  0.78665405  0.13227231  0.52205606  1
  H+  H62  1  0.86712487  0.76359553  0.33566146  1
  H+  H63  1  0.24909855  0.83341819  0.74630952  1
  H+  H64  1  0.54268252  0.41102151  0.58132755  1
  H+  H65  1  0.85309902  -0.04272896  0.51502666  1
  H+  H66  1  0.36502405  0.15978849  0.48855666  1
  H+  H67  1  0.29052363  0.68260987  0.31747252  1
  H+  H68  1  0.36251977  0.84194263  1.00115592  1
  H+  H69  1  0.81617940  0.30605610  1.02108443  1
  H+  H70  1  0.51652818  1.02923624  0.00514633  1
  H+  H71  1  0.40512732  0.74046583  0.56378811  1
  H+  H72  1  0.83799424  0.79906523  0.47920981  1
  H+  H73  1  0.19671936  0.44877978  0.39736930  1
  H+  H74  1  0.15246039  0.30385294  0.51606772  1
  H+  H75  1  0.52922630  0.47721769  0.49980024  1
  H+  H76  1  0.82568235  0.80440671  0.24734947  1
  H+  H77  1  0.63068177  0.16940770  0.76216530  1
  H+  H78  1  0.81936506  0.18323762  0.49086327  1
  H+  H79  1  0.13038765  0.86294988  0.74948916  1
  H+  H80  1  0.51133432  0.11921803  0.48835436  1
  H+  H81  1  0.67223361  0.20884069  0.52914720  1
  H+  H82  1  0.18642151  0.16856682  0.26227774  1
  H+  H83  1  0.15657515  0.14829283  0.77576487  1
  H+  H84  1  0.82629100  0.51570481  0.50307941  1
  H+  H85  1  0.55125238  0.85409444  0.47924506  1
  H+  H86  1  0.81557636  0.18868250  0.01923023  1
  H+  H87  1  0.63451775  0.47106385  -0.01044491  1
  H+  H88  1  0.26956822  0.77347595  0.36762310  1
  H+  H89  1  0.48141913  0.17174035  1.02075236  1
  H+  H90  1  0.48086754  0.29028500  0.01439016  1
  H+  H91  1  0.95211365  0.15823597  0.76391237  1
  H+  H92  1  0.14457549  0.31447409  0.75391074  1
  H+  H93  1  0.78120543  0.21986172  0.16430135  1
  H+  H94  1  0.47785402  0.51319381  0.24960325  1
  H+  H95  1  0.90311249  0.12611805  0.48020984  1
  H+  H96  1  0.30550558  0.49224678  0.77248824  1
  H+  H97  1  0.67185753  0.85911786  0.47775648  1
  H+  H98  1  0.86087423  0.49723269  0.75871642  1
  H+  H99  1  0.06556401  0.17181611  0.51214881  1
  H+  H100  1  0.44746071  0.88666848  0.14120029  1
  H+  H101  1  0.83063759  0.62493304  0.01638762  1
  H+  H102  1  0.36462945  0.82229386  0.52455390  1
  H+  H103  1  0.17655022  -0.01327966  0.50467229  1
  H+  H104  1  0.16964728  1.04410256  0.25106954  1
  H+  H105  1  -0.03695066  0.82553706  0.75396447  1
  H+  H106  1  0.80797673  -0.03138189  0.74655867  1
  H+  H107  1  0.51913678  0.68053362  0.78162380  1
  H+  H108  1  0.89146109  0.44932688  0.39039033  1
  H+  H109  1  0.45283088  0.57901154  0.69016495  1
  H+  H110  1  0.20600657  0.10604142  0.85703514  1
  H+  H111  1  0.83182388  0.15475706  0.75858478  1
  H+  H112  1  0.18335847  0.70331080  0.98614091  1
  H+  H113  1  0.89196088  0.44536606  0.90182004  1
  H+  H114  1  0.81723428  0.31192509  0.75373504  1
  H+  H115  1  0.75647714  0.24686999  0.66293371  1
  H+  H116  1  0.10703029  0.57673860  0.60049397  1
  H+  H117  1  0.14850545  0.19373365  -0.00857528  1
  H+  H118  1  0.84854266  0.14272402  0.26907776  1
  H+  H119  1  0.77769902  0.54690122  0.10560536  1
  H+  H120  1  0.46021659  0.55844493  0.10455972  1
  H+  H121  1  0.22609898  0.11835574  0.38622241  1
  H+  H122  1  0.39823398  0.49841576  0.56759419  1
  H+  H123  1  0.10050825  0.54420910  0.10746128  1
  H+  H124  1  0.87818124  0.77793239  0.88594582  1
  H+  H125  1  0.16097091  0.53282800  0.73236770  1
  H+  H126  1  0.56247195  0.77169237  0.90787217  1
  H+  H127  1  0.84167609  0.81974739  0.75681962  1
  H+  H128  1  0.51198929  0.36619857  0.26514103  1
  H+  H129  1  0.18326120  1.03131640  -0.00800740  1
  H+  H130  1  0.16937811  0.50217562  -0.01233104  1
  H+  H131  1  0.78603995  0.55583813  0.64788830  1
  H+  H132  1  0.13216757  0.91194647  0.59544604  1
  H+  H133  1  0.57190244  0.09933782  0.40507868  1
  H+  H134  1  0.15283671  0.31227227  0.26360171  1
  H+  H135  1  0.81543713  0.87957276  0.00558947  1
  H+  H136  1  0.69538262  0.84249638  0.75086627  1
  H+  H137  1  0.78870477  0.88750965  0.60601443  1
  H+  H138  1  0.70784729  0.51162011  0.51854052  1
  H+  H139  1  0.76869948  0.89456891  0.14709308  1
  H+  H140  1  0.08621769  0.90292656  0.13682730  1
  H+  H141  1  0.92663727  0.08784723  0.38763399  1
  H+  H142  1  0.57337280  0.80032286  0.33924896  1
  H+  H143  1  0.23142150  0.77616893  0.89101806  1
  O2-  O144  1  0.12087996  0.23374637  0.23914675  1
  O2-  O145  1  0.09744243  0.23171857  0.73441165  1
  O2-  O146  1  0.07386256  0.47212622  0.20160132  1
  O2-  O147  1  0.12407771  0.57765877  0.71247576  1
  O2-  O148  1  0.07355189  0.92458570  0.19800130  1
  O2-  O149  1  0.09596744  0.90267785  0.71955188  1
  O2-  O150  1  0.44539410  0.21702166  0.22590002  1
  O2-  O151  1  0.46755584  0.19735287  0.71821473  1
  O2-  O152  1  0.43531962  0.55168755  0.22653900  1
  O2-  O153  1  0.45136565  0.56229484  0.75452911  1
  O2-  O154  1  0.46091522  0.89408311  0.20891327  1
  O2-  O155  1  0.47043980  0.89320458  0.73829868  1
  O2-  O156  1  0.78025114  0.21507340  0.23254998  1
  O2-  O157  1  0.76831771  0.23309298  0.72970812  1
  O2-  O158  1  0.77132834  0.54686295  0.21290000  1
  O2-  O159  1  0.77947660  0.55425381  0.71610688  1
  O2-  O160  1  0.77168038  0.88968107  0.21478337  1
  O2-  O161  1  0.77524528  0.88852952  0.72398053  1
  O2-  O162  1  0.22273269  0.12053441  0.27895518  1
  O2-  O163  1  0.19138371  0.10056093  0.78987120  1
  O2-  O164  1  0.21781585  0.45869566  0.29794914  1
  O2-  O165  1  0.21984766  0.45377445  0.77983462  1
  O2-  O166  1  0.28124344  0.74838310  0.30642672  1
  O2-  O167  1  0.25493016  0.77655993  0.78269934  1
  O2-  O168  1  0.56024976  0.10682763  0.27974413  1
  O2-  O169  1  0.54820040  0.12660191  0.78242452  1
  O2-  O170  1  0.54868817  0.44714058  0.28549432  1
  O2-  O171  1  0.54988648  0.43667028  0.78476262  1
  O2-  O172  1  0.55896391  0.77739071  0.27273438  1
  O2-  O173  1  0.57122650  0.77016730  0.79832338  1
  O2-  O174  1  0.89119850  0.10182807  0.28433386  1
  O2-  O175  1  0.86999053  0.11238806  0.78207967  1
  O2-  O176  1  0.88675326  0.44287854  0.27650933  1
  O2-  O177  1  0.90316778  0.46037061  0.78430565  1
  O2-  O178  1  0.86623955  0.76285604  0.26611462  1
  O2-  O179  1  0.88267485  0.77888018  0.77838467  1
  O2-  O180  1  0.23454255  0.11754085  0.45510068  1
  O2-  O181  1  0.22295173  0.11192045  0.97092289  1
  O2-  O182  1  0.18253165  0.44035992  0.46799400  1
  O2-  O183  1  0.20421161  0.46308186  0.95471122  1
  O2-  O184  1  0.24585029  0.79813392  0.47696694  1
  O2-  O185  1  0.22455070  0.78209112  0.96008466  1
  O2-  O186  1  0.56969926  0.09656323  0.47233332  1
  O2-  O187  1  0.55218014  0.11214221  0.99258007  1
  O2-  O188  1  0.56301561  0.43027729  0.51748063  1
  O2-  O189  1  0.55367324  0.43179651  0.97004432  1
  O2-  O190  1  0.60966225  0.85443208  0.43871346  1
  O2-  O191  1  0.56147785  0.77711681  0.97677316  1
  O2-  O192  1  0.94116427  0.08654835  0.45558308  1
  O2-  O193  1  0.87489191  0.12190516  0.96806961  1
  O2-  O194  1  0.88788990  0.45006695  0.45889550  1
  O2-  O195  1  0.88803428  0.43925975  0.96978242  1
  O2-  O196  1  0.86904718  0.75938258  0.44271061  1
  O2-  O197  1  0.86856225  0.77461799  0.95549872  1
  O2-  O198  1  0.11204429  0.24023247  0.00263504  1
  O2-  O199  1  0.13757593  0.23001290  0.54250372  1
  O2-  O200  1  0.10611733  0.57263891  0.04204085  1
  O2-  O201  1  0.09987490  0.57789298  0.53177589  1
  O2-  O202  1  0.10785542  0.88246047  0.01873569  1
  O2-  O203  1  0.14647866  0.90850266  0.53008427  1
  O2-  O204  1  0.43792254  0.21183153  0.04039624  1
  O2-  O205  1  0.44300347  0.18631586  0.51371009  1
  O2-  O206  1  0.47934343  0.57370150  0.03904009  1
  O2-  O207  1  0.42202963  0.52784481  0.50591451  1
  O2-  O208  1  0.44103914  0.87989538  0.02827240  1
  O2-  O209  1  0.43211381  0.82111333  0.55386497  1
  O2-  O210  1  0.77809269  0.22834847  0.04923935  1
  O2-  O211  1  0.72626846  0.27615128  0.56763378  1
  O2-  O212  1  0.77968588  0.54598367  0.03584138  1
  O2-  O213  1  0.79077587  0.55811637  0.53233292  1
  O2-  O214  1  0.76590556  0.90609609  0.03126880  1
  O2-  O215  1  0.79230787  0.88244498  0.53836218  1
