# generated using pymatgen
data_H2O
_symmetry_space_group_name_H-M   'P 1'
_cell_length_a   13.51410991
_cell_length_b   13.52458158
_cell_length_c   14.71191467
_cell_angle_alpha   89.95099017
_cell_angle_beta   90.07215583
_cell_angle_gamma   119.92097720
_symmetry_Int_Tables_number   1
_chemical_formula_structural   H2O
_chemical_formula_sum   'H144 O72'
_cell_volume   2330.53713018
_cell_formula_units_Z   72
loop_
 _symmetry_equiv_pos_site_id
 _symmetry_equiv_pos_as_xyz
  1  'x, y, z'
loop_
 _atom_type_symbol
 _atom_type_oxidation_number
  H+  1.0
  O2-  -2.0
loop_
 _atom_site_type_symbol
 _atom_site_label
 _atom_site_symmetry_multiplicity
 _atom_site_fract_x
 _atom_site_fract_y
 _atom_site_fract_z
 _atom_site_occupancy
  H+  H0  1  0.45693844  0.97048933  0.51167339  1
  H+  H1  1  0.79326103  0.55415088  0.07704453  1
  H+  H2  1  0.50522768  0.15207711  0.49052121  1
  H+  H3  1  0.69870882  0.21988798  0.00843271  1
  H+  H4  1  0.16161766  0.87028209  0.72786541  1
  H+  H5  1  0.17443645  0.62244224  0.03972328  1
  H+  H6  1  0.04087390  0.19063543  0.51013776  1
  H+  H7  1  0.08970444  0.97398253  0.24081251  1
  H+  H8  1  0.43374017  0.87211102  0.15175220  1
  H+  H9  1  0.17078562  0.15405634  0.26615083  1
  H+  H10  1  0.47142942  0.61929314  0.55814205  1
  H+  H11  1  0.51907290  0.14861321  0.75009910  1
  H+  H12  1  0.85911746  0.69171773  0.51713232  1
  H+  H13  1  -0.03055562  0.12461662  0.74310550  1
  H+  H14  1  0.82738987  0.92849303  -0.01827171  1
  H+  H15  1  -0.07013963  0.52222168  0.71336323  1
  H+  H16  1  0.69319473  0.18542261  0.72898199  1
  H+  H17  1  0.52095738  0.82530566  0.75602606  1
  H+  H18  1  0.84667799  0.52033597  0.99265008  1
  H+  H19  1  0.49390018  0.50497899  0.75790465  1
  H+  H20  1  0.15558350  0.17167647  0.73957108  1
  H+  H21  1  0.83414888  0.13834271  0.25746364  1
  H+  H22  1  0.85890518  0.03322245  0.25700808  1
  H+  H23  1  0.64046211  0.80085815  0.21501579  1
  H+  H24  1  0.75751603  0.20065988  0.60416505  1
  H+  H25  1  0.80717124  0.48710386  0.22177846  1
  H+  H26  1  0.14798322  -0.03657633  0.46454084  1
  H+  H27  1  0.66101975  0.48843517  0.97190149  1
  H+  H28  1  0.87162550  0.79839190  0.97406076  1
  H+  H29  1  0.27050484  0.59838333  0.45690042  1
  H+  H30  1  0.31531315  0.51779754  0.50187239  1
  H+  H31  1  0.49982835  0.52447494  0.25226302  1
  H+  H32  1  0.93970743  0.41831721  0.25565351  1
  H+  H33  1  0.21150902  0.10950211  0.35215553  1
  H+  H34  1  0.17862407  0.15064420  0.48931201  1
  H+  H35  1  0.51771412  0.08468717  0.98918158  1
  H+  H36  1  0.22619016  0.79865430  0.83012809  1
  H+  H37  1  0.49509551  0.97667717  0.74584152  1
  H+  H38  1  0.04737909  0.85721723  0.00388270  1
  H+  H39  1  0.98495980  0.48784575  1.00432439  1
  H+  H40  1  0.51038744  0.48270125  0.51195671  1
  H+  H41  1  0.15022905  0.30952926  0.25398938  1
  H+  H42  1  0.14208229  0.69514569  0.93888089  1
  H+  H43  1  0.83359198  0.47580145  0.47391681  1
  H+  H44  1  0.55181304  0.77148508  0.47859159  1
  H+  H45  1  0.44163195  0.89938052  0.00482298  1
  H+  H46  1  0.81833378  0.95126386  0.73346836  1
  H+  H47  1  0.94585872  0.46686383  0.47625925  1
  H+  H48  1  0.48101404  0.30304631  0.51362675  1
  H+  H49  1  0.74436972  0.85923948  0.47298524  1
  H+  H50  1  0.87786223  0.68557601  0.97619734  1
  H+  H51  1  0.60629125  0.81142820  0.57529789  1
  H+  H52  1  0.69690372  0.87649618  0.00270050  1
  H+  H53  1  0.13658975  0.28005335  0.73649838  1
  H+  H54  1  0.29771517  0.77868388  0.49003928  1
  H+  H55  1  0.70044142  0.50981598  0.53636320  1
  H+  H56  1  0.12446444  0.60426864  0.50574119  1
  H+  H57  1  0.81561626  0.21332825  0.01304644  1
  H+  H58  1  0.80283694  0.77607654  0.28143193  1
  H+  H59  1  0.21246325  0.50390014  0.26839712  1
  H+  H60  1  0.04278579  0.86502866  0.73405580  1
  H+  H61  1  0.61469318  0.13649147  0.25442341  1
  H+  H62  1  0.27303505  0.77425482  0.97553430  1
  H+  H63  1  0.63578085  0.49350090  0.26269999  1
  H+  H64  1  0.26558312  0.45929017  0.75932604  1
  H+  H65  1  0.84464845  0.08113025  0.99764039  1
  H+  H66  1  0.27693001  0.45798720  0.97600387  1
  H+  H67  1  1.02708193  0.19483302  0.24924804  1
  H+  H68  1  0.90988094  0.90697996  0.20568345  1
  H+  H69  1  0.63822851  0.81831151  0.75579679  1
  H+  H70  1  0.42284852  0.61049362  0.02260349  1
  H+  H71  1  0.29710369  0.14890963  0.48780961  1
  H+  H72  1  0.85061743  0.79385597  0.74978931  1
  H+  H73  1  0.97391627  0.80592098  0.47831222  1
  H+  H74  1  0.11637449  0.21285984  0.59804519  1
  H+  H75  1  0.15380774  0.49616372  1.02310448  1
  H+  H76  1  0.63993198  0.45608611  0.76252852  1
  H+  H77  1  0.32556469  0.15282286  0.23564261  1
  H+  H78  1  0.86161924  0.37998048  0.99583447  1
  H+  H79  1  0.46522073  0.85897651  0.53274013  1
  H+  H80  1  0.36784410  0.17027623  0.73844955  1
  H+  H81  1  0.54186043  0.48407954  0.97690327  1
  H+  H82  1  0.30788610  0.83038898  0.74552104  1
  H+  H83  1  0.48929148  0.62214831  0.75763103  1
  H+  H84  1  0.48802136  0.28731430  0.73773729  1
  H+  H85  1  0.16123762  0.86050569  1.02510765  1
  H+  H86  1  0.11532479  0.48799987  0.52224012  1
  H+  H87  1  1.13543996  0.86384137  0.40149179  1
  H+  H88  1  0.11007296  0.65146741  0.72771567  1
  H+  H89  1  0.48471096  0.63008298  0.21323072  1
  H+  H90  1  0.31963789  0.84430552  0.27354967  1
  H+  H91  1  0.52729725  0.81002993  0.21172990  1
  H+  H92  1  0.79462493  0.31110725  0.70382122  1
  H+  H93  1  0.78786125  0.27542155  0.24528830  1
  H+  H94  1  0.48961641  0.12502582  0.24966849  1
  H+  H95  1  0.79894864  0.15147375  0.50611467  1
  H+  H96  1  0.56660523  0.70571632  0.96577484  1
  H+  H97  1  0.48887698  -0.03727710  0.23463150  1
  H+  H98  1  0.19211794  0.03430113  0.75596068  1
  H+  H99  1  0.44619477  0.26217145  0.21437866  1
  H+  H100  1  0.46025500  0.79597001  0.00398399  1
  H+  H101  1  0.80320158  0.60146331  0.23134435  1
  H+  H102  1  0.84160880  0.84523805  0.51526203  1
  H+  H103  1  0.07642044  0.56681824  0.26621442  1
  H+  H104  1  0.85743566  0.03353148  0.49172643  1
  H+  H105  1  0.15725699  0.18271662  0.02057021  1
  H+  H106  1  0.26072397  0.48188232  0.36131957  1
  H+  H107  1  0.56202697  0.78270977  0.88581060  1
  H+  H108  1  0.35690982  0.17032214  0.08153840  1
  H+  H109  1  0.87258936  0.42728587  0.34568928  1
  H+  H110  1  0.53630658  0.10300757  0.40093093  1
  H+  H111  1  0.79685652  0.51825713  0.60668505  1
  H+  H112  1  0.56051868  0.42323628  0.84731107  1
  H+  H113  1  0.80782432  0.89946094  0.14533600  1
  H+  H114  1  0.51974888  0.72925036  0.36619756  1
  H+  H115  1  0.58281358  0.74876500  0.37120493  1
  H+  H116  1  0.35449343  0.50665677  0.25446478  1
  H+  H117  1  0.20304742  0.03623698  1.00311718  1
  H+  H118  1  0.65938792  0.60112684  0.31401471  1
  H+  H119  1  0.96926992  0.18459105  0.99889853  1
  H+  H120  1  0.77585708  0.86852748  0.64842543  1
  H+  H121  1  0.15963692  0.34472985  0.99041785  1
  H+  H122  1  0.42184888  0.52278501  0.09090558  1
  H+  H123  1  0.67034982  0.15141224  0.50621284  1
  H+  H124  1  0.44155118  0.21760685  0.59860298  1
  H+  H125  1  0.75634468  0.21036407  0.15162430  1
  H+  H126  1  0.83486780  0.60783536  0.76096658  1
  H+  H127  1  0.05933049  0.90156219  0.15097306  1
  H+  H128  1  0.87971826  0.10810434  0.40084753  1
  H+  H129  1  0.82660808  0.73052656  0.37640289  1
  H+  H130  1  0.12555983  0.55693112  0.16846088  1
  H+  H131  1  0.85552494  0.13099114  0.74118528  1
  H+  H132  1  0.11487922  0.22312971  0.10780383  1
  H+  H133  1  0.20439082  0.73489782  0.25769771  1
  H+  H134  1  0.49000260  0.17943531  0.96917518  1
  H+  H135  1  0.23865620  0.74348473  0.39307725  1
  H+  H136  1  0.17461372  0.41577876  0.83624109  1
  H+  H137  1  0.24045574  0.11231324  0.84686020  1
  H+  H138  1  0.90685987  0.76744445  0.83500254  1
  H+  H139  1  0.42695107  0.52384155  0.63112711  1
  H+  H140  1  0.56892055  0.13066355  0.84218271  1
  H+  H141  1  0.07102425  0.55816966  0.64918978  1
  H+  H142  1  0.44186932  0.90280879  0.65552118  1
  H+  H143  1  0.56338695  0.46442288  0.42077790  1
  O2-  O144  1  0.10794389  0.23265328  0.22706563  1
  O2-  O145  1  0.10607920  0.19987964  0.71339132  1
  O2-  O146  1  0.14334901  0.57354222  0.23523480  1
  O2-  O147  1  0.05346024  0.57173950  0.71203479  1
  O2-  O148  1  0.02650689  0.90720268  0.20941352  1
  O2-  O149  1  0.12254467  0.91425579  0.71386082  1
  O2-  O150  1  0.40015395  0.18110485  0.20020340  1
  O2-  O151  1  0.44828227  0.20729152  0.71308703  1
  O2-  O152  1  0.44141192  0.54187313  0.21862264  1
  O2-  O153  1  0.44593672  0.54011755  0.74230745  1
  O2-  O154  1  0.45147910  0.87952984  0.21719790  1
  O2-  O155  1  0.45227295  0.89628379  0.72234480  1
  O2-  O156  1  0.75103055  0.19655587  0.21931254  1
  O2-  O157  1  0.76933913  0.22896680  0.69652167  1
  O2-  O158  1  0.76772789  0.52790109  0.19877158  1
  O2-  O159  1  0.79504982  0.52332712  0.77299635  1
  O2-  O160  1  0.83018891  0.89930284  0.20944694  1
  O2-  O161  1  0.77169434  0.86680811  0.71533091  1
  O2-  O162  1  0.20409986  0.10542673  0.28323260  1
  O2-  O163  1  0.23975773  0.11640366  0.78001827  1
  O2-  O164  1  0.25511905  0.46562736  0.29143405  1
  O2-  O165  1  0.18311073  0.41351772  0.76987366  1
  O2-  O166  1  0.23922217  0.80464853  0.29475095  1
  O2-  O167  1  0.22568181  0.79406115  0.76337101  1
  O2-  O168  1  0.53399481  0.09255831  0.27802465  1
  O2-  O169  1  0.56714923  0.11623389  0.77584692  1
  O2-  O170  1  0.59363416  0.52057858  0.30151826  1
  O2-  O171  1  0.55788357  0.42236072  0.77824661  1
  O2-  O172  1  0.56039430  0.76034957  0.19576941  1
  O2-  O173  1  0.55855097  0.78298126  0.78125252  1
  O2-  O174  1  0.88453549  0.11046063  0.28324662  1
  O2-  O175  1  0.88569195  0.08149084  0.75870492  1
  O2-  O176  1  0.86951719  0.41594945  0.27439262  1
  O2-  O177  1  0.83947993  0.47645906  0.70380779  1
  O2-  O178  1  0.78636221  0.70700247  0.31630416  1
  O2-  O179  1  0.89640605  0.75794218  0.76793360  1
  O2-  O180  1  0.21864074  0.11077316  0.46189831  1
  O2-  O181  1  0.24193362  0.11817452  0.97980588  1
  O2-  O182  1  0.25887363  0.51909827  0.45831274  1
  O2-  O183  1  0.19397004  0.42468107  0.96551629  1
  O2-  O184  1  0.24513802  0.71106519  0.45304343  1
  O2-  O185  1  0.20142104  0.77201494  0.95570917  1
  O2-  O186  1  0.54092714  0.10560418  0.46865380  1
  O2-  O187  1  0.54923385  0.15754277  0.95789944  1
  O2-  O188  1  0.55612377  0.44922414  0.48688835  1
  O2-  O189  1  0.57845713  0.44174733  0.95580120  1
  O2-  O190  1  0.53314894  0.77236348  0.54312395  1
  O2-  O191  1  0.56402887  0.77600816  0.95616194  1
  O2-  O192  1  0.87976788  0.11126032  0.46906064  1
  O2-  O193  1  0.89109663  0.16072667  0.97776734  1
  O2-  O194  1  0.87103378  0.43672616  0.44439308  1
  O2-  O195  1  0.91240168  0.45790881  0.97088338  1
  O2-  O196  1  0.88734693  0.76557254  0.48416847  1
  O2-  O197  1  0.92044936  0.76911602  0.95331791  1
  O2-  O198  1  0.11282731  0.21926627  0.04015399  1
  O2-  O199  1  0.11991920  0.21952196  0.53013304  1
  O2-  O200  1  0.12526548  0.54322987  0.05785323  1
  O2-  O201  1  0.07285768  0.52829033  0.53410376  1
  O2-  O202  1  0.12040764  0.90218479  0.03862787  1
  O2-  O203  1  0.11015558  0.87857872  0.45934825  1
  O2-  O204  1  0.36111058  0.17314606  0.01355105  1
  O2-  O205  1  0.44113465  0.22047005  0.53026933  1
  O2-  O206  1  0.42065965  0.53728396  0.02521027  1
  O2-  O207  1  0.43023016  0.53523844  0.56287465  1
  O2-  O208  1  0.40657197  0.82130084  0.02743122  1
  O2-  O209  1  0.41697049  0.89391706  0.54205858  1
  O2-  O210  1  0.77131097  0.24806826  0.04150189  1
  O2-  O211  1  0.75074855  0.18485250  0.53194694  1
  O2-  O212  1  0.80316755  0.56223613  0.01008213  1
  O2-  O213  1  0.78384480  0.54574665  0.54703947  1
  O2-  O214  1  0.77495600  0.92547078  0.02856569  1
  O2-  O215  1  0.79702176  0.88807119  0.52432214  1
