# generated using pymatgen
data_H2O
_symmetry_space_group_name_H-M   'P 1'
_cell_length_a   13.50035820
_cell_length_b   13.49966049
_cell_length_c   14.70018263
_cell_angle_alpha   90.02454371
_cell_angle_beta   90.03740381
_cell_angle_gamma   119.97645015
_symmetry_Int_Tables_number   1
_chemical_formula_structural   H2O
_chemical_formula_sum   'H144 O72'
_cell_volume   2320.72806200
_cell_formula_units_Z   72
loop_
 _symmetry_equiv_pos_site_id
 _symmetry_equiv_pos_as_xyz
  1  'x, y, z'
loop_
 _atom_type_symbol
 _atom_type_oxidation_number
  H+  1.0
  O2-  -2.0
loop_
 _atom_site_type_symbol
 _atom_site_label
 _atom_site_symmetry_multiplicity
 _atom_site_fract_x
 _atom_site_fract_y
 _atom_site_fract_z
 _atom_site_occupancy
  H+  H0  1  0.50408291  0.64032367  0.27016913  1
  H+  H1  1  0.17202687  0.67903925  0.50206787  1
  H+  H2  1  0.79332049  0.21893484  0.59794452  1
  H+  H3  1  0.49599376  0.17996170  0.24254972  1
  H+  H4  1  0.90310230  0.77400719  0.88736686  1
  H+  H5  1  0.96239086  0.47771498  0.49651171  1
  H+  H6  1  0.18576181  0.02472427  0.99807732  1
  H+  H7  1  0.09457263  0.26261755  0.25662114  1
  H+  H8  1  0.88402805  0.18035937  0.23951197  1
  H+  H9  1  0.13222737  0.88906688  0.66561047  1
  H+  H10  1  0.35936447  0.17784639  0.75984499  1
  H+  H11  1  0.85088652  0.99296709  0.27059376  1
  H+  H12  1  0.13644184  0.49028500  0.51254311  1
  H+  H13  1  -0.01014816  0.16407970  0.48354350  1
  H+  H14  1  0.85806364  0.90306464  0.52501898  1
  H+  H15  1  0.82741525  0.31892903  1.00961474  1
  H+  H16  1  0.81662068  0.30097080  0.74541359  1
  H+  H17  1  0.70389362  0.17893836  0.22996864  1
  H+  H18  1  0.52293551  0.15768167  0.99108195  1
  H+  H19  1  0.13143585  0.56943736  0.75364324  1
  H+  H20  1  0.79101436  -0.05980144  0.74915805  1
  H+  H21  1  0.07630441  0.55024739  0.20217751  1
  H+  H22  1  0.51071721  0.35432890  0.76724140  1
  H+  H23  1  0.31766890  0.81747303  -0.02633373  1
  H+  H24  1  0.51105097  0.36208243  0.99625243  1
  H+  H25  1  0.49674643  0.95065054  0.50991190  1
  H+  H26  1  0.41821547  0.61248367  0.54478836  1
  H+  H27  1  0.14961095  0.16621106  0.50275349  1
  H+  H28  1  0.97240108  0.47775090  0.99437475  1
  H+  H29  1  0.65770721  0.80763688  -0.03115808  1
  H+  H30  1  0.80281170  0.83353657  0.77581652  1
  H+  H31  1  0.53136728  0.04589228  0.75947129  1
  H+  H32  1  0.54192052  0.82816507  0.96229262  1
  H+  H33  1  0.48738032  0.49319741  0.74619595  1
  H+  H34  1  0.50161854  0.78795895  0.73997771  1
  H+  H35  1  0.50370818  0.47694108  0.98857175  1
  H+  H36  1  0.26854954  0.73132652  0.72826041  1
  H+  H37  1  0.69818124  0.50817829  0.74598273  1
  H+  H38  1  0.17412140  0.47242678  0.96811758  1
  H+  H39  1  0.67114182  0.13425819  0.48206421  1
  H+  H40  1  0.42484829  0.11142762  0.50986630  1
  H+  H41  1  0.34810031  0.51458191  -0.03900195  1
  H+  H42  1  0.36933143  0.17648538  0.01410518  1
  H+  H43  1  0.83306583  0.83467239  -0.02328724  1
  H+  H44  1  0.51739209  0.69215928  -0.03641573  1
  H+  H45  1  0.83072317  0.99739929  0.49095408  1
  H+  H46  1  0.18603135  0.65629901  0.24036272  1
  H+  H47  1  0.84978838  0.16975981  0.75791334  1
  H+  H48  1  0.48357903  0.62206892  0.73586187  1
  H+  H49  1  -0.03978980  0.81953722  0.74125763  1
  H+  H50  1  0.16331096  0.03920389  0.75607798  1
  H+  H51  1  0.95164487  0.45778215  0.77302849  1
  H+  H52  1  0.14563221  0.83858165  0.24644573  1
  H+  H53  1  0.64135740  0.49882700  0.50831226  1
  H+  H54  1  0.52066061  0.15924940  0.75866168  1
  H+  H55  1  0.64817619  0.82709815  0.28463732  1
  H+  H56  1  0.69996797  0.52485754  1.00584341  1
  H+  H57  1  0.30062058  0.82287635  0.29022696  1
  H+  H58  1  0.82240914  0.51761305  0.27150946  1
  H+  H59  1  0.44376177  0.31434930  0.53454048  1
  H+  H60  1  1.03047808  0.17404369  1.00297015  1
  H+  H61  1  0.69612322  0.19379570  1.00850354  1
  H+  H62  1  0.33386212  0.48626203  0.51716552  1
  H+  H63  1  0.12800414  0.01415964  0.47856699  1
  H+  H64  1  0.83718538  0.64893947  0.52652838  1
  H+  H65  1  0.29967066  0.14177481  0.26008397  1
  H+  H66  1  0.84231168  0.13623989  0.99145713  1
  H+  H67  1  0.53046918  0.48144518  0.28389503  1
  H+  H68  1  0.17147185  0.44567072  0.82045627  1
  H+  H69  1  0.84615832  0.19574460  0.50576897  1
  H+  H70  1  0.57201604  0.13348774  0.89727768  1
  H+  H71  1  0.52154290  0.49686860  0.50153593  1
  H+  H72  1  0.85100606  0.69203237  0.75501079  1
  H+  H73  1  0.53222541  0.02936209  0.25372366  1
  H+  H74  1  0.51400746  0.98400593  -0.02335325  1
  H+  H75  1  0.97355173  0.80905074  0.26013693  1
  H+  H76  1  0.17340337  0.34293630  0.49461317  1
  H+  H77  1  0.09508979  0.21905778  0.09504283  1
  H+  H78  1  0.14265732  0.56001457  0.08217251  1
  H+  H79  1  0.15686865  0.84297029  1.00697769  1
  H+  H80  1  0.81418964  0.30530620  0.23621210  1
  H+  H81  1  0.85605588  0.69679950  -0.02031979  1
  H+  H82  1  0.82268291  0.52446242  0.51745864  1
  H+  H83  1  0.84502328  1.01876527  -0.02239354  1
  H+  H84  1  0.32469897  0.19807216  0.53262723  1
  H+  H85  1  0.95252030  0.46644881  0.29004252  1
  H+  H86  1  0.57181476  0.71339207  0.50140623  1
  H+  H87  1  0.69708996  0.51598745  0.27489014  1
  H+  H88  1  0.03873748  0.91105153  0.61535297  1
  H+  H89  1  0.18066706  1.02711675  0.25536890  1
  H+  H90  1  0.28963895  0.79677595  0.50134228  1
  H+  H91  1  -0.01957345  0.16591449  0.75755031  1
  H+  H92  1  0.14294514  0.18648249  0.75126029  1
  H+  H93  1  0.43903076  0.10278089  0.55802358  1
  H+  H94  1  0.16213447  0.63174162  -0.00706751  1
  H+  H95  1  0.85858868  0.81634158  0.27426513  1
  H+  H96  1  0.17749962  0.35614853  0.96513652  1
  H+  H97  1  0.42098608  0.22874270  0.66736021  1
  H+  H98  1  0.38597040  0.88893907  0.74359477  1
  H+  H99  1  0.49371046  0.29596980  0.24888594  1
  H+  H100  1  0.54999501  0.12278543  0.47442316  1
  H+  H101  1  0.67335952  0.84377687  0.49694345  1
  H+  H102  1  0.19777994  0.48398790  0.26292599  1
  H+  H103  1  0.70144893  0.18134085  0.73999825  1
  H+  H104  1  0.49387658  0.83506235  0.52513937  1
  H+  H105  1  0.16727640  0.75474225  0.74140121  1
  H+  H106  1  0.18540608  0.14324412  0.99962153  1
  H+  H107  1  0.30393357  0.46692826  0.27470298  1
  H+  H108  1  0.55239723  0.43960569  0.85347245  1
  H+  H109  1  0.89004167  0.12094012  0.85103772  1
  H+  H110  1  0.92520266  0.14954220  0.38864323  1
  H+  H111  1  0.78429602  0.85806936  0.06624544  1
  H+  H112  1  0.56994768  0.78166828  0.37215398  1
  H+  H113  1  0.86834876  0.42863633  0.37177231  1
  H+  H114  1  0.45472619  0.89630020  0.65237382  1
  H+  H115  1  0.09350702  0.51716144  0.60446354  1
  H+  H116  1  0.56713702  0.43967571  0.37180736  1
  H+  H117  1  0.77860785  0.23318990  0.10829754  1
  H+  H118  1  0.62079052  0.78906902  0.76018929  1
  H+  H119  1  0.40058097  0.56574888  0.05472105  1
  H+  H120  1  0.10757744  0.87178553  0.15220013  1
  H+  H121  1  0.22971395  0.76701661  0.89204222  1
  H+  H122  1  0.20719451  0.76291540  0.36728209  1
  H+  H123  1  0.45185769  0.21892392  0.10182472  1
  H+  H124  1  0.93744426  0.80312481  0.42337935  1
  H+  H125  1  0.41482410  0.84292723  0.18996139  1
  H+  H126  1  0.84069605  0.47476448  0.76894601  1
  H+  H127  1  0.03789554  0.84128089  0.00426359  1
  H+  H128  1  0.13098672  0.30058797  0.73120859  1
  H+  H129  1  0.88390536  0.43578058  0.90946456  1
  H+  H130  1  0.20514597  0.09385255  0.39477080  1
  H+  H131  1  0.48698558  0.90347394  0.05957827  1
  H+  H132  1  0.82816328  0.64970929  0.26950767  1
  H+  H133  1  0.20724283  0.10156203  0.85446339  1
  H+  H134  1  0.21308357  0.42679006  0.40674437  1
  H+  H135  1  0.78423880  0.92105286  0.18891889  1
  H+  H136  1  0.78023175  0.54961293  0.65834689  1
  H+  H137  1  0.49143763  0.84104303  0.27043748  1
  H+  H138  1  0.42635463  0.52004940  0.65465148  1
  H+  H139  1  0.81562685  0.52252919  0.01259782  1
  H+  H140  1  0.11023684  0.20371514  0.59581080  1
  H+  H141  1  0.47859934  0.55980744  0.18502500  1
  H+  H142  1  0.84368318  0.36069979  0.50024219  1
  H+  H143  1  0.58800369  0.10657364  0.33994704  1
  O2-  O144  1  0.03830167  0.20552282  0.21354472  1
  O2-  O145  1  0.09460323  0.21615753  0.72238509  1
  O2-  O146  1  0.15882283  0.58211995  0.20486628  1
  O2-  O147  1  0.08739766  0.48915612  0.73111882  1
  O2-  O148  1  0.10194357  0.87317327  0.21984920  1
  O2-  O149  1  0.07808443  0.91430820  0.68051005  1
  O2-  O150  1  0.45567138  0.21959746  0.21968723  1
  O2-  O151  1  0.43760640  0.21802189  0.73295310  1
  O2-  O152  1  0.46515030  0.55774987  0.25031001  1
  O2-  O153  1  0.44118694  0.53089018  0.72266447  1
  O2-  O154  1  0.44813856  0.87958841  0.24784928  1
  O2-  O155  1  0.45943483  0.90095284  0.72161826  1
  O2-  O156  1  0.78422698  0.23019002  0.20424545  1
  O2-  O157  1  0.78408677  0.22097457  0.72058724  1
  O2-  O158  1  0.78182918  0.56060484  0.25323737  1
  O2-  O159  1  0.77976675  0.54604140  0.72660220  1
  O2-  O160  1  0.79773764  0.91203966  0.25265190  1
  O2-  O161  1  0.75486118  0.87012800  0.78500760  1
  O2-  O162  1  0.21992657  0.10494954  0.28169198  1
  O2-  O163  1  0.20799062  0.11437656  0.78736406  1
  O2-  O164  1  0.22222040  0.43272817  0.29046103  1
  O2-  O165  1  0.16525003  0.44396481  0.75243997  1
  O2-  O166  1  0.21736994  0.77227495  0.29834471  1
  O2-  O167  1  0.21164491  0.72556721  0.77246188  1
  O2-  O168  1  0.57888264  0.11095192  0.27230840  1
  O2-  O169  1  0.56829216  0.12615274  0.78214923  1
  O2-  O170  1  0.57253803  0.44155107  0.30311216  1
  O2-  O171  1  0.55286045  0.43796392  0.78516530  1
  O2-  O172  1  0.56669897  0.78012536  0.30313243  1
  O2-  O173  1  0.53544826  0.73893152  0.75001152  1
  O2-  O174  1  0.93019898  0.14781168  0.26553352  1
  O2-  O175  1  0.89442205  0.12932588  0.78211630  1
  O2-  O176  1  0.87056045  0.43093776  0.30116063  1
  O2-  O177  1  0.87278795  0.42774393  0.79650955  1
  O2-  O178  1  0.89476591  0.77032626  0.28997062  1
  O2-  O179  1  0.88853859  0.77256192  0.77737930  1
  O2-  O180  1  0.19593078  0.08953438  0.46321628  1
  O2-  O181  1  0.22633513  0.10506533  0.97466798  1
  O2-  O182  1  0.21086153  0.42591025  0.47496256  1
  O2-  O183  1  0.21051930  0.43298491  0.93604308  1
  O2-  O184  1  0.21098474  0.75783903  0.47737143  1
  O2-  O185  1  0.23522049  0.77329290  0.95909258  1
  O2-  O186  1  0.59326459  0.08677891  0.45269572  1
  O2-  O187  1  0.57189709  0.12613454  0.96568133  1
  O2-  O188  1  0.56173043  0.45580950  0.48337030  1
  O2-  O189  1  0.54906497  0.44128291  0.97034190  1
  O2-  O190  1  0.58567524  0.78839138  0.48215398  1
  O2-  O191  1  0.57369513  0.77562234  0.94728070  1
  O2-  O192  1  0.91241286  0.13837000  0.45484624  1
  O2-  O193  1  0.88242981  0.10148314  0.96050733  1
  O2-  O194  1  0.88021308  0.44119026  0.47602238  1
  O2-  O195  1  0.88921202  0.43468695  0.97806841  1
  O2-  O196  1  0.94870681  0.79181938  0.48795001  1
  O2-  O197  1  0.90172053  0.77843426  0.95610412  1
  O2-  O198  1  0.10848019  0.21868058  0.02884288  1
  O2-  O199  1  0.11395586  0.21182949  0.52900224  1
  O2-  O200  1  0.12209412  0.55138662  0.01667625  1
  O2-  O201  1  0.09613392  0.52968201  0.53801376  1
  O2-  O202  1  0.11590846  0.88035488  0.03248654  1
  O2-  O203  1  -0.01378942  0.90669415  0.52772626  1
  O2-  O204  1  0.45161091  0.21866027  0.03345938  1
  O2-  O205  1  0.37936603  0.26025709  0.57264251  1
  O2-  O206  1  0.42490341  0.56263466  -0.00733376  1
  O2-  O207  1  0.41331098  0.53779303  0.54570211  1
  O2-  O208  1  0.47990153  0.90022995  -0.00665619  1
  O2-  O209  1  0.45224224  0.87619361  0.54179100  1
  O2-  O210  1  0.77833108  0.23270521  0.03465054  1
  O2-  O211  1  0.79469702  0.22415740  0.53047476  1
  O2-  O212  1  0.78115863  0.57044998  0.02454096  1
  O2-  O213  1  0.78577094  0.56698138  0.54235594  1
  O2-  O214  1  0.78429645  0.87068821  0.00091492  1
  O2-  O215  1  0.79380292  0.92048321  0.51953951  1
