# generated using pymatgen
data_H2O
_symmetry_space_group_name_H-M   'P 1'
_cell_length_a   13.51239731
_cell_length_b   13.50762256
_cell_length_c   14.67640058
_cell_angle_alpha   89.93890036
_cell_angle_beta   90.00600018
_cell_angle_gamma   120.04155285
_symmetry_Int_Tables_number   1
_chemical_formula_structural   H2O
_chemical_formula_sum   'H144 O72'
_cell_volume   2318.88501529
_cell_formula_units_Z   72
loop_
 _symmetry_equiv_pos_site_id
 _symmetry_equiv_pos_as_xyz
  1  'x, y, z'
loop_
 _atom_type_symbol
 _atom_type_oxidation_number
  H+  1.0
  O2-  -2.0
loop_
 _atom_site_type_symbol
 _atom_site_label
 _atom_site_symmetry_multiplicity
 _atom_site_fract_x
 _atom_site_fract_y
 _atom_site_fract_z
 _atom_site_occupancy
  H+  H0  1  0.83770976  -0.02395845  0.53007174  1
  H+  H1  1  0.49442868  0.18792327  0.50796063  1
  H+  H2  1  0.19754588  0.07371113  0.54449137  1
  H+  H3  1  0.65969478  0.17980188  0.70938349  1
  H+  H4  1  0.02757835  0.17802534  0.21634693  1
  H+  H5  1  0.64944851  0.50413014  -0.01040457  1
  H+  H6  1  0.82703895  0.63549747  0.01482105  1
  H+  H7  1  0.49895527  0.67141473  0.51859053  1
  H+  H8  1  0.70722314  0.19031024  0.01907311  1
  H+  H9  1  0.15902046  0.29960603  -0.00114414  1
  H+  H10  1  0.52456685  0.48821894  0.75102398  1
  H+  H11  1  0.19522324  0.16415132  0.25263989  1
  H+  H12  1  0.18162916  0.47691494  0.98518560  1
  H+  H13  1  0.10004042  0.55088612  0.14385137  1
  H+  H14  1  0.00827472  0.49792015  0.22223326  1
  H+  H15  1  0.20739200  0.69355918  0.74689849  1
  H+  H16  1  0.24530781  0.78611542  0.36989004  1
  H+  H17  1  0.70026370  0.51094298  0.24657151  1
  H+  H18  1  0.15925893  0.21085009  0.51623495  1
  H+  H19  1  0.50187026  0.64730118  0.24285080  1
  H+  H20  1  0.51317834  0.12159804  1.02017598  1
  H+  H21  1  0.49412174  0.53085921  0.99982239  1
  H+  H22  1  0.46585017  0.90250894  0.64469800  1
  H+  H23  1  0.49519221  0.23523433  -0.02415202  1
  H+  H24  1  0.50789417  0.97675325  0.01284228  1
  H+  H25  1  0.37755921  0.19483006  0.23951109  1
  H+  H26  1  0.05678864  0.53438956  0.73308392  1
  H+  H27  1  0.49134720  0.63506504  0.74803532  1
  H+  H28  1  0.18763328  0.15056352  -0.01980585  1
  H+  H29  1  0.93699420  0.77387480  0.49899423  1
  H+  H30  1  0.84466452  0.39922556  0.50495874  1
  H+  H31  1  0.78683613  0.53352462  0.64708628  1
  H+  H32  1  0.30652099  0.73986543  0.96064912  1
  H+  H33  1  0.63950928  0.81737766  0.76559964  1
  H+  H34  1  0.17686751  0.66972630  0.50129013  1
  H+  H35  1  1.01618389  0.85402636  0.74203470  1
  H+  H36  1  0.52529928  0.82640208  0.27080073  1
  H+  H37  1  0.83897385  0.80166022  0.76517544  1
  H+  H38  1  0.79560077  0.09714152  0.79542044  1
  H+  H39  1  0.85205964  0.36845798  0.98616385  1
  H+  H40  1  0.20067862  0.03965779  0.95253025  1
  H+  H41  1  0.45868031  0.57287206  0.65041051  1
  H+  H42  1  0.97254647  0.17123477  0.50727603  1
  H+  H43  1  0.18267225  0.16976062  0.74666164  1
  H+  H44  1  0.84955902  0.03241489  1.00343917  1
  H+  H45  1  0.84583071  1.02071889  0.21935803  1
  H+  H46  1  0.51561226  0.69884327  0.99001872  1
  H+  H47  1  0.16275762  0.37560915  0.47905882  1
  H+  H48  1  0.87167021  0.13244881  0.42827481  1
  H+  H49  1  0.54499426  0.06139831  0.26361124  1
  H+  H50  1  1.02555811  0.50565936  1.00428266  1
  H+  H51  1  0.38003548  0.87657549  0.01546256  1
  H+  H52  1  0.15381599  0.35388719  0.25354492  1
  H+  H53  1  0.90298288  0.40432193  0.75677793  1
  H+  H54  1  0.23528729  0.84430688  0.48633566  1
  H+  H55  1  0.79070229  0.89211991  0.66685377  1
  H+  H56  1  0.82675081  0.85112361  0.52600939  1
  H+  H57  1  0.68969253  0.84002221  0.24996444  1
  H+  H58  1  0.39115730  0.86052103  0.50708079  1
  H+  H59  1  0.53775899  0.17556861  0.26222202  1
  H+  H60  1  0.85050128  0.68379768  0.26788083  1
  H+  H61  1  0.11203978  0.90046059  0.38894887  1
  H+  H62  1  0.36947016  0.51920049  0.00335080  1
  H+  H63  1  0.81561739  0.51289367  0.01509902  1
  H+  H64  1  0.82530466  0.96168518  0.76134130  1
  H+  H65  1  0.46666981  0.12651140  0.78487684  1
  H+  H66  1  0.82573218  0.21349646  0.51800164  1
  H+  H67  1  0.84560818  0.68599993  0.75184315  1
  H+  H68  1  0.31930945  0.49098941  0.75415141  1
  H+  H69  1  0.18137772  0.85386837  0.93891151  1
  H+  H70  1  0.89569913  0.23844659  0.72307305  1
  H+  H71  1  0.52711158  0.38129734  0.25761444  1
  H+  H72  1  0.18503775  0.43828564  0.35985420  1
  H+  H73  1  0.89828230  0.45673584  0.90039223  1
  H+  H74  1  0.19401973  0.71713263  0.27186077  1
  H+  H75  1  0.36633448  0.19899299  -0.00409019  1
  H+  H76  1  0.82526651  0.59175612  0.50067655  1
  H+  H77  1  0.86241195  0.15789875  1.00365553  1
  H+  H78  1  0.70089366  0.50613540  0.73193865  1
  H+  H79  1  0.51170580  0.85986956  0.50256940  1
  H+  H80  1  0.47148603  0.00970847  0.78319526  1
  H+  H81  1  0.88279764  0.75226585  0.89952307  1
  H+  H82  1  0.48767754  0.30234636  0.74090662  1
  H+  H83  1  0.14764550  0.47491714  0.25107838  1
  H+  H84  1  0.15812944  0.85832321  0.30808309  1
  H+  H85  1  0.15860466  0.32213598  0.74291788  1
  H+  H86  1  0.53295162  0.50407392  0.25283257  1
  H+  H87  1  0.14620521  0.62085203  0.99789691  1
  H+  H88  1  0.13174204  0.97929504  0.73179096  1
  H+  H89  1  -0.01613271  0.80013868  -0.03313260  1
  H+  H90  1  0.49579134  0.37147860  0.48539408  1
  H+  H91  1  0.87056042  0.50341629  0.76305208  1
  H+  H92  1  -0.03887216  0.80532921  0.29385672  1
  H+  H93  1  0.19784367  0.05328139  0.28695011  1
  H+  H94  1  0.16558890  0.49876053  0.47266150  1
  H+  H95  1  0.09117962  0.77317558  0.53957068  1
  H+  H96  1  0.80621326  0.83397306  0.24556949  1
  H+  H97  1  0.48102476  0.54381983  0.51635069  1
  H+  H98  1  0.69883001  0.86186620  1.01243154  1
  H+  H99  1  0.49981383  0.85888682  0.73614167  1
  H+  H100  1  0.13520324  0.88633305  -0.14728945  1
  H+  H101  1  0.32503839  0.81627724  0.75062621  1
  H+  H102  1  0.36287995  0.19100718  0.73205370  1
  H+  H103  1  0.68430425  0.18073091  0.75556725  1
  H+  H104  1  0.52448277  0.39391473  0.98854542  1
  H+  H105  1  0.37871433  0.87329853  0.25486289  1
  H+  H106  1  0.51665160  0.81815734  -0.00541982  1
  H+  H107  1  1.03710580  0.20468043  0.74592886  1
  H+  H108  1  0.22952484  0.44736153  0.89503662  1
  H+  H109  1  0.56107078  0.78772085  0.36568913  1
  H+  H110  1  0.56860704  0.45534724  0.84072397  1
  H+  H111  1  0.22630730  0.12952258  0.83259108  1
  H+  H112  1  0.45829665  0.23781089  0.15195186  1
  H+  H113  1  0.46553585  0.57331936  0.15115943  1
  H+  H114  1  0.09084986  0.90582990  0.14350185  1
  H+  H115  1  0.86994424  0.12471406  0.28754718  1
  H+  H116  1  0.53626858  0.45372701  0.39953055  1
  H+  H117  1  0.53366725  0.03826772  0.49413542  1
  H+  H118  1  0.24565409  0.75846456  0.87213664  1
  H+  H119  1  0.57497430  0.12510783  0.40801704  1
  H+  H120  1  0.88469140  0.11270475  0.87197697  1
  H+  H121  1  0.08524570  0.86086403  0.60687585  1
  H+  H122  1  0.45515690  0.90734579  0.16504637  1
  H+  H123  1  0.04442777  0.55816513  0.50900291  1
  H+  H124  1  0.31339313  0.17413265  0.50816060  1
  H+  H125  1  0.12802766  0.56688881  0.63853122  1
  H+  H126  1  0.85022149  0.28238745  0.64043481  1
  H+  H127  1  0.45862117  0.22745096  0.59835216  1
  H+  H128  1  0.63758805  0.82902058  0.48657570  1
  H+  H129  1  0.85490909  0.14221235  0.35668156  1
  H+  H130  1  0.20162845  0.49508120  0.74968673  1
  H+  H131  1  0.77199557  0.89337526  0.10399104  1
  H+  H132  1  0.52814036  0.09813002  0.91177005  1
  H+  H133  1  0.11429042  0.25229662  0.59925410  1
  H+  H134  1  0.03984831  0.18084019  0.00627170  1
  H+  H135  1  0.55652772  0.78189204  0.85195474  1
  H+  H136  1  0.77933873  0.55030447  0.15675676  1
  H+  H137  1  0.81600090  0.43895075  0.23167595  1
  H+  H138  1  0.79241111  0.25257219  0.10226847  1
  H+  H139  1  0.85634778  0.74004294  0.41123984  1
  H+  H140  1  0.70533770  0.20741555  0.51779326  1
  H+  H141  1  0.10753282  0.90299102  0.09509121  1
  H+  H142  1  0.12557190  0.23220585  0.14294018  1
  H+  H143  1  0.73164542  0.24812491  0.28507725  1
  O2-  O144  1  0.11324422  0.22885829  0.21014113  1
  O2-  O145  1  0.11329388  0.24100328  0.71819193  1
  O2-  O146  1  0.09126894  0.54755773  0.21172436  1
  O2-  O147  1  0.13438257  0.56320307  0.70667120  1
  O2-  O148  1  0.11161005  0.89632351  0.32243294  1
  O2-  O149  1  0.09729113  0.89602644  0.71993310  1
  O2-  O150  1  0.46054988  0.23561158  0.21880627  1
  O2-  O151  1  0.44592502  0.22107022  0.71970821  1
  O2-  O152  1  0.47012735  0.56853652  0.21788181  1
  O2-  O153  1  0.45400521  0.55702194  0.72096141  1
  O2-  O154  1  0.45948921  0.91569673  0.23195907  1
  O2-  O155  1  0.45922771  0.89894041  0.71369311  1
  O2-  O156  1  0.81317444  0.30758380  0.29808989  1
  O2-  O157  1  0.90382637  0.30679189  0.69328037  1
  O2-  O158  1  0.78222577  0.54094215  0.22427037  1
  O2-  O159  1  0.78352796  0.54679899  0.71327457  1
  O2-  O160  1  0.76839460  0.87476812  0.22035994  1
  O2-  O161  1  0.78338583  0.88373600  0.73539389  1
  O2-  O162  1  0.24622936  0.13462533  0.27077464  1
  O2-  O163  1  0.22063960  0.12527584  0.76472767  1
  O2-  O164  1  0.18517447  0.43363439  0.28000912  1
  O2-  O165  1  0.23727385  0.45234500  0.77725593  1
  O2-  O166  1  0.23787823  0.79455215  0.29713906  1
  O2-  O167  1  0.24673751  0.77006567  0.77808151  1
  O2-  O168  1  0.58486727  0.14250312  0.28522488  1
  O2-  O169  1  0.46865670  0.06709225  0.82446090  1
  O2-  O170  1  0.57176321  0.46174689  0.27884918  1
  O2-  O171  1  0.56421471  0.44604765  0.77320357  1
  O2-  O172  1  0.56275202  0.78411850  0.29267662  1
  O2-  O173  1  0.55747595  0.78077167  0.78366027  1
  O2-  O174  1  0.88537829  0.10640393  0.22211256  1
  O2-  O175  1  0.87266163  0.10907030  0.80205112  1
  O2-  O176  1  0.84612708  0.38415720  0.21862727  1
  O2-  O177  1  0.92189166  0.47735013  0.78962214  1
  O2-  O178  1  0.87617591  0.76027286  0.29592169  1
  O2-  O179  1  0.88319518  0.76288772  0.78143798  1
  O2-  O180  1  0.22805299  0.13826059  0.50273307  1
  O2-  O181  1  0.23846044  0.12484602  0.95104624  1
  O2-  O182  1  0.19301685  0.44903819  0.44408616  1
  O2-  O183  1  0.22666779  0.44122247  0.96317831  1
  O2-  O184  1  0.25143829  0.78502724  0.46666809  1
  O2-  O185  1  0.24454027  0.75470865  0.94653128  1
  O2-  O186  1  0.57167850  0.12235320  0.47574446  1
  O2-  O187  1  0.56487100  0.11386908  0.97797246  1
  O2-  O188  1  0.51679538  0.44914889  0.46500245  1
  O2-  O189  1  0.57098735  0.47064763  0.96096233  1
  O2-  O190  1  0.55874347  0.79381022  0.46473555  1
  O2-  O191  1  0.55624367  0.78044349  0.96713035  1
  O2-  O192  1  0.88716963  0.12590216  0.49763857  1
  O2-  O193  1  0.89724318  0.11481190  0.97730074  1
  O2-  O194  1  0.88435869  0.48411876  0.49209977  1
  O2-  O195  1  0.89194470  0.45075206  0.96901128  1
  O2-  O196  1  0.85559244  0.73099987  0.47926994  1
  O2-  O197  1  0.89988937  0.75634432  0.96586987  1
  O2-  O198  1  0.12288760  0.21959675  0.02303847  1
  O2-  O199  1  0.11301522  0.24862836  0.53142998  1
  O2-  O200  1  0.10735521  0.54347297  0.02629140  1
  O2-  O201  1  0.12455145  0.58368611  0.52468688  1
  O2-  O202  1  0.14185237  0.89481431  -0.08028599  1
  O2-  O203  1  0.07656094  0.83712127  0.54083633  1
  O2-  O204  1  0.44731791  0.24480506  0.02067743  1
  O2-  O205  1  0.45321816  0.22727434  0.53074687  1
  O2-  O206  1  0.44992540  0.56599901  0.02493287  1
  O2-  O207  1  0.46067947  0.59427706  0.55112836  1
  O2-  O208  1  0.45649167  0.89869932  0.03896821  1
  O2-  O209  1  0.47193989  0.90551290  0.53022486  1
  O2-  O210  1  0.78907663  0.23330161  0.03742708  1
  O2-  O211  1  0.78804341  0.25803552  0.53525241  1
  O2-  O212  1  0.77718925  0.55431660  0.03877578  1
  O2-  O213  1  0.80216144  0.51462590  0.52870048  1
  O2-  O214  1  0.77651339  0.91078574  0.03755244  1
  O2-  O215  1  0.79610663  0.89662662  0.55417185  1
