# generated using pymatgen
data_H2O
_symmetry_space_group_name_H-M   'P 1'
_cell_length_a   13.52199104
_cell_length_b   13.54303041
_cell_length_c   14.71963864
_cell_angle_alpha   90.00986679
_cell_angle_beta   90.00984013
_cell_angle_gamma   120.11755504
_symmetry_Int_Tables_number   1
_chemical_formula_structural   H2O
_chemical_formula_sum   'H144 O72'
_cell_volume   2331.67804203
_cell_formula_units_Z   72
loop_
 _symmetry_equiv_pos_site_id
 _symmetry_equiv_pos_as_xyz
  1  'x, y, z'
loop_
 _atom_type_symbol
 _atom_type_oxidation_number
  H+  1.0
  O2-  -2.0
loop_
 _atom_site_type_symbol
 _atom_site_label
 _atom_site_symmetry_multiplicity
 _atom_site_fract_x
 _atom_site_fract_y
 _atom_site_fract_z
 _atom_site_occupancy
  H+  H0  1  0.35285577  0.83864014  0.25832356  1
  H+  H1  1  0.82204790  0.84356882  0.73709079  1
  H+  H2  1  0.36887738  0.18965276  0.50734368  1
  H+  H3  1  0.15070464  0.51446232  0.24837244  1
  H+  H4  1  0.97839057  0.84755031  0.98144280  1
  H+  H5  1  1.02630347  0.18380164  0.50833811  1
  H+  H6  1  1.01780570  0.18410661  1.01874541  1
  H+  H7  1  0.48583936  0.62818121  0.74492808  1
  H+  H8  1  0.30037656  0.48173872  0.76388100  1
  H+  H9  1  0.79904482  0.61677315  0.78324469  1
  H+  H10  1  -0.02630409  0.48096946  0.49004089  1
  H+  H11  1  0.52438771  0.04205550  0.49593288  1
  H+  H12  1  0.18029673  0.80039334  0.75675013  1
  H+  H13  1  0.16097246  0.99067101  0.23615395  1
  H+  H14  1  0.83984974  0.46864974  0.99445401  1
  H+  H15  1  0.14723112  0.50426311  0.02025686  1
  H+  H16  1  0.50339842  0.78397819  0.31597806  1
  H+  H17  1  0.47924143  0.31100778  0.25302933  1
  H+  H18  1  0.17777977  0.15049858  0.26491349  1
  H+  H19  1  0.21542912  0.43721841  -0.09394074  1
  H+  H20  1  0.30124650  0.15786147  0.26548418  1
  H+  H21  1  0.50810366  0.48067746  -0.00535916  1
  H+  H22  1  0.81436392  0.17577730  1.01278475  1
  H+  H23  1  0.20860550  0.80724520  0.49553224  1
  H+  H24  1  0.85491763  0.70190027  0.25845053  1
  H+  H25  1  0.84404718  0.14681036  0.49605707  1
  H+  H26  1  0.85462506  0.31499583  0.23628223  1
  H+  H27  1  0.14665841  0.18700904  0.73199124  1
  H+  H28  1  0.14911696  0.30202988  0.50804475  1
  H+  H29  1  0.82221579  0.52509060  0.24724442  1
  H+  H30  1  0.49124806  0.89103815  0.22832655  1
  H+  H31  1  0.86587951  0.15880999  0.26307088  1
  H+  H32  1  0.70997197  0.52268319  0.45926627  1
  H+  H33  1  0.50537848  0.16160050  0.27585295  1
  H+  H34  1  0.51648796  0.37188157  0.48934100  1
  H+  H35  1  0.12331603  0.75131892  0.96640148  1
  H+  H36  1  0.48482950  0.30144370  0.74162309  1
  H+  H37  1  0.81250036  0.23035811  0.14933357  1
  H+  H38  1  0.48821899  0.18992024  0.50691201  1
  H+  H39  1  0.69706389  0.86250628  0.01438379  1
  H+  H40  1  0.18059779  0.36390088  0.76190053  1
  H+  H41  1  0.18959148  0.06143348  0.99384070  1
  H+  H42  1  0.50027460  0.46876818  0.76098635  1
  H+  H43  1  0.02478816  0.17228867  0.25591301  1
  H+  H44  1  0.64828430  0.15763137  0.74109976  1
  H+  H45  1  0.85877531  0.48721489  0.46888260  1
  H+  H46  1  0.52374009  0.49451504  0.49018005  1
  H+  H47  1  0.51255318  0.48568397  0.25753296  1
  H+  H48  1  0.49442018  0.04049279  0.26967862  1
  H+  H49  1  0.17108833  0.36017824  0.99798987  1
  H+  H50  1  0.28975669  0.47207695  0.26388446  1
  H+  H51  1  0.25735498  0.76378621  0.41277413  1
  H+  H52  1  0.69349215  0.49716503  1.01393340  1
  H+  H53  1  0.38095019  0.54321510  0.50301467  1
  H+  H54  1  0.84875533  0.82169262  0.48759589  1
  H+  H55  1  0.17021664  0.35466699  0.26985483  1
  H+  H56  1  0.81547599  0.84469070  0.24564121  1
  H+  H57  1  0.49218077  0.31204740  1.02471846  1
  H+  H58  1  0.84934964  1.02494320  -0.00452929  1
  H+  H59  1  0.37125322  0.20147789  0.03012797  1
  H+  H60  1  0.19450561  0.48603751  0.49635172  1
  H+  H61  1  0.61730712  0.93024206  0.92345061  1
  H+  H62  1  0.64221994  0.80224491  0.75139854  1
  H+  H63  1  0.14605808  0.50512315  0.74500354  1
  H+  H64  1  0.69523468  0.83744278  0.25758940  1
  H+  H65  1  0.70394686  0.52558017  0.24655116  1
  H+  H66  1  0.51215186  0.02905186  0.74743835  1
  H+  H67  1  0.81622825  0.29495233  0.74320587  1
  H+  H68  1  0.82802441  0.64100135  0.46271681  1
  H+  H69  1  0.88661845  0.78415679  0.85050064  1
  H+  H70  1  0.17973084  0.15203321  0.49330901  1
  H+  H71  1  0.20388735  0.79472345  0.30735020  1
  H+  H72  1  0.16442741  0.62669406  0.51708214  1
  H+  H73  1  0.33366105  0.81616629  0.01464497  1
  H+  H74  1  0.52353741  0.16278335  0.74302787  1
  H+  H75  1  0.44296667  0.23144449  0.16496540  1
  H+  H76  1  0.11521934  0.55289656  0.11010698  1
  H+  H77  1  0.79952885  0.49799158  0.78172408  1
  H+  H78  1  0.46692395  0.62632649  0.01084170  1
  H+  H79  1  0.46615975  1.00627973  0.99205602  1
  H+  H80  1  0.19541955  0.91035278  0.00810804  1
  H+  H81  1  0.89763606  0.44835239  0.34538072  1
  H+  H82  1  0.95677407  0.79803183  0.75921642  1
  H+  H83  1  0.81177385  0.29073922  1.01319701  1
  H+  H84  1  0.15530737  0.96321432  0.51386587  1
  H+  H85  1  0.84282814  0.14148090  0.76009069  1
  H+  H86  1  0.14091223  0.19495745  0.02415037  1
  H+  H87  1  0.48075378  0.12833325  -0.00619956  1
  H+  H88  1  0.96120054  0.47058309  0.76389303  1
  H+  H89  1  0.50601765  0.85409452  0.52839080  1
  H+  H90  1  0.16688302  0.87754137  0.21663430  1
  H+  H91  1  0.47101793  0.62089411  0.24916387  1
  H+  H92  1  0.15964403  0.66148757  0.99222672  1
  H+  H93  1  0.61900462  0.46876705  0.78236405  1
  H+  H94  1  0.03674356  0.84834778  0.50965074  1
  H+  H95  1  0.14427400  0.94391138  0.73979053  1
  H+  H96  1  0.97866698  0.50119341  0.25939422  1
  H+  H97  1  0.96045524  0.47206517  0.99759160  1
  H+  H98  1  0.85413415  0.83186204  0.99017790  1
  H+  H99  1  0.17355932  0.64182994  0.25386557  1
  H+  H100  1  0.51467917  0.84714065  0.98420460  1
  H+  H101  1  0.21218707  0.09733485  0.66221841  1
  H+  H102  1  0.38467737  0.84503579  0.51925591  1
  H+  H103  1  0.37041573  0.86325403  0.74732558  1
  H+  H104  1  0.78690609  0.94523152  0.50857356  1
  H+  H105  1  0.82067088  -0.03765332  0.73723644  1
  H+  H106  1  0.82151555  0.30538744  0.50996687  1
  H+  H107  1  -0.02868086  0.82361255  0.25103542  1
  H+  H108  1  0.31234821  0.15100535  0.73099769  1
  H+  H109  1  0.96325660  0.14750454  0.75932800  1
  H+  H110  1  0.23657345  0.15515918  0.91579959  1
  H+  H111  1  0.10301630  0.22729672  0.64795261  1
  H+  H112  1  0.41031456  0.86707237  0.10567498  1
  H+  H113  1  0.53747895  0.43259779  0.90573667  1
  H+  H114  1  0.44108994  0.55468247  0.65497312  1
  H+  H115  1  0.90063290  0.79903959  0.39678684  1
  H+  H116  1  0.69979594  0.18959281  0.51082409  1
  H+  H117  1  0.22016131  0.11105442  0.40651025  1
  H+  H118  1  0.78105197  0.22259040  0.64884950  1
  H+  H119  1  0.55506606  0.45258172  0.34808624  1
  H+  H120  1  0.12802018  0.92131238  0.09235863  1
  H+  H121  1  0.14760725  0.62324689  0.73894982  1
  H+  H122  1  0.10607542  0.86853996  0.65097540  1
  H+  H123  1  0.88648665  0.42783796  0.85584795  1
  H+  H124  1  0.76613053  0.87417162  0.59875476  1
  H+  H125  1  0.88670181  0.10031331  0.90326316  1
  H+  H126  1  0.21789019  0.75670537  0.84373300  1
  H+  H127  1  0.11221311  0.54215506  0.60213924  1
  H+  H128  1  0.54417508  0.72226902  0.38059530  1
  H+  H129  1  0.56092762  0.77956486  0.83605532  1
  H+  H130  1  0.45355899  0.90042159  0.66049167  1
  H+  H131  1  0.74349877  0.51910499  0.61797716  1
  H+  H132  1  0.59751133  0.73984958  0.52041086  1
  H+  H133  1  0.55218327  0.11732445  0.40434281  1
  H+  H134  1  0.09884832  0.21980137  0.16449199  1
  H+  H135  1  0.84722560  0.03007184  0.26865773  1
  H+  H136  1  0.77568871  0.58305024  0.61969544  1
  H+  H137  1  0.88303795  0.10533995  0.40835458  1
  H+  H138  1  0.34940365  0.50800906  0.01139154  1
  H+  H139  1  0.45561220  0.23059074  0.64608066  1
  H+  H140  1  0.76726113  0.88367964  0.10809444  1
  H+  H141  1  0.77253137  0.53820866  0.10220651  1
  H+  H142  1  0.43114450  0.55076286  0.15480384  1
  H+  H143  1  0.23116682  0.44702626  0.40572196  1
  O2-  O144  1  0.10597414  0.21603167  0.23176924  1
  O2-  O145  1  0.10405154  0.22652786  0.71637005  1
  O2-  O146  1  0.12261802  0.56475822  0.22401024  1
  O2-  O147  1  0.10363783  0.54161919  0.71909195  1
  O2-  O148  1  0.12094347  0.91280027  0.20345825  1
  O2-  O149  1  0.10405931  0.86366203  0.71929554  1
  O2-  O150  1  0.43458058  0.22908455  0.23322644  1
  O2-  O151  1  0.45141720  0.22155162  0.71398350  1
  O2-  O152  1  0.42886526  0.54318393  0.22228643  1
  O2-  O153  1  0.43676077  0.54633725  0.72161333  1
  O2-  O154  1  0.42492911  0.89922533  0.21635126  1
  O2-  O155  1  0.45073224  0.91333259  0.72677850  1
  O2-  O156  1  0.83790871  0.23894669  0.21462943  1
  O2-  O157  1  0.77519997  0.21492091  0.71715734  1
  O2-  O158  1  0.78397614  0.56695471  0.22336041  1
  O2-  O159  1  0.75085278  0.53276904  0.78950517  1
  O2-  O160  1  0.76984536  0.88143437  0.22708449  1
  O2-  O161  1  0.78221695  0.88356155  0.71166318  1
  O2-  O162  1  0.21866102  0.10951446  0.28597797  1
  O2-  O163  1  0.22547308  0.10730021  0.72765807  1
  O2-  O164  1  0.21173558  0.43607687  0.29124578  1
  O2-  O165  1  0.22033539  0.44217233  0.78877384  1
  O2-  O166  1  0.25487538  0.76353475  0.30757425  1
  O2-  O167  1  0.22590536  0.76451262  0.77653380  1
  O2-  O168  1  0.53969611  0.11616781  0.29859464  1
  O2-  O169  1  0.56377172  0.11927843  0.76129076  1
  O2-  O170  1  0.55747060  0.45060911  0.28015890  1
  O2-  O171  1  0.53171646  0.42261772  0.78806467  1
  O2-  O172  1  0.54854192  0.74613560  0.31564502  1
  O2-  O173  1  0.56177295  0.75620151  0.77297967  1
  O2-  O174  1  0.89326925  0.10790649  0.29417670  1
  O2-  O175  1  0.88365541  0.10214538  0.78308856  1
  O2-  O176  1  0.89679681  0.45691451  0.27806999  1
  O2-  O177  1  0.88147487  0.42568078  0.78730897  1
  O2-  O178  1  0.89420430  0.78483444  0.27826498  1
  O2-  O179  1  0.87823768  0.76926501  0.78252960  1
  O2-  O180  1  0.22244930  0.11274945  0.47448439  1
  O2-  O181  1  0.22794536  0.14581590  0.98150171  1
  O2-  O182  1  0.24164169  0.45235808  0.47362828  1
  O2-  O183  1  0.21766203  0.44048696  0.97416929  1
  O2-  O184  1  0.25185264  0.76776668  0.48309489  1
  O2-  O185  1  0.18897227  0.74010222  0.96198518  1
  O2-  O186  1  0.55874812  0.12169011  0.47403620  1
  O2-  O187  1  0.46933562  0.06610685  0.95266000  1
  O2-  O188  1  0.55607845  0.45041384  0.46276195  1
  O2-  O189  1  0.54596271  0.43860268  0.97333743  1
  O2-  O190  1  0.51748747  0.70161597  0.49574357  1
  O2-  O191  1  0.58208231  0.85359542  0.94928872  1
  O2-  O192  1  0.88246538  0.10356231  0.47674948  1
  O2-  O193  1  0.88967809  0.10452396  0.97093569  1
  O2-  O194  1  0.89505780  0.43786604  0.46460465  1
  O2-  O195  1  0.88407134  0.43201851  0.96880974  1
  O2-  O196  1  0.90082365  0.79500028  0.46454685  1
  O2-  O197  1  0.89979686  0.80311242  0.95899711  1
  O2-  O198  1  0.09657793  0.23073965  0.04604782  1
  O2-  O199  1  0.10722880  0.22228055  0.53172150  1
  O2-  O200  1  0.10788225  0.54576708  0.04191820  1
  O2-  O201  1  0.11747253  0.54425189  0.53413025  1
  O2-  O202  1  0.13434321  0.92591097  0.02375542  1
  O2-  O203  1  0.11618604  0.88266869  0.53490862  1
  O2-  O204  1  0.45003124  0.23431085  0.05359526  1
  O2-  O205  1  0.44939616  0.23221101  0.52978098  1
  O2-  O206  1  0.43034654  0.54967718  0.03647133  1
  O2-  O207  1  0.46258426  0.58244989  0.52847882  1
  O2-  O208  1  0.41199463  0.85192344  0.03900193  1
  O2-  O209  1  0.46539906  0.89488111  0.54266850  1
  O2-  O210  1  0.77563819  0.21345766  0.04095908  1
  O2-  O211  1  0.77966645  0.22549199  0.53518499  1
  O2-  O212  1  0.77227201  0.52598916  0.03587548  1
  O2-  O213  1  0.79289837  0.55890744  0.44773449  1
  O2-  O214  1  0.77409731  0.88853497  0.04045404  1
  O2-  O215  1  0.75217502  0.86546794  0.53118580  1
