# generated using pymatgen
data_H2O
_symmetry_space_group_name_H-M   'P 1'
_cell_length_a   13.51836068
_cell_length_b   13.51572656
_cell_length_c   14.69056410
_cell_angle_alpha   89.98878859
_cell_angle_beta   90.03493937
_cell_angle_gamma   119.98784500
_symmetry_Int_Tables_number   1
_chemical_formula_structural   H2O
_chemical_formula_sum   'H144 O72'
_cell_volume   2324.80015834
_cell_formula_units_Z   72
loop_
 _symmetry_equiv_pos_site_id
 _symmetry_equiv_pos_as_xyz
  1  'x, y, z'
loop_
 _atom_type_symbol
 _atom_type_oxidation_number
  H+  1.0
  O2-  -2.0
loop_
 _atom_site_type_symbol
 _atom_site_label
 _atom_site_symmetry_multiplicity
 _atom_site_fract_x
 _atom_site_fract_y
 _atom_site_fract_z
 _atom_site_occupancy
  H+  H0  1  0.15720839  0.34167685  0.75406537  1
  H+  H1  1  0.78973920  0.80239278  0.73222695  1
  H+  H2  1  0.69121861  0.50524065  1.01476060  1
  H+  H3  1  0.51672130  0.80377952  1.00410870  1
  H+  H4  1  0.20253526  0.50544151  0.25931996  1
  H+  H5  1  0.56084274  0.80010514  0.86166466  1
  H+  H6  1  0.81748564  0.85082361  0.24768562  1
  H+  H7  1  0.17345815  0.97958686  0.48852715  1
  H+  H8  1  0.19585742  0.81570281  0.48291110  1
  H+  H9  1  0.16069145  0.96366271  0.23287558  1
  H+  H10  1  0.00259835  0.45850212  0.26886397  1
  H+  H11  1  1.03052040  0.51518016  0.51240081  1
  H+  H12  1  0.81677232  0.19407086  0.50995765  1
  H+  H13  1  0.51398215  0.37781148  0.75497275  1
  H+  H14  1  0.51889540  1.00981077  0.00038683  1
  H+  H15  1  0.30046212  0.48409475  0.49121603  1
  H+  H16  1  0.96205784  0.80512528  0.79930410  1
  H+  H17  1  0.34770750  0.82416626  0.24776237  1
  H+  H18  1  0.60192188  0.66683359  0.68852262  1
  H+  H19  1  0.47586273  0.97833831  0.73644430  1
  H+  H20  1  -0.04349777  0.14632220  0.76757173  1
  H+  H21  1  0.18454222  0.04227487  0.76195856  1
  H+  H22  1  0.63880933  0.49827484  0.48866001  1
  H+  H23  1  0.47501132  0.30537546  0.22830088  1
  H+  H24  1  0.47370887  0.92085061  0.27233473  1
  H+  H25  1  0.48137791  0.50184086  1.00657090  1
  H+  H26  1  0.14128652  0.84267150  0.72936416  1
  H+  H27  1  0.88193610  0.44168394  0.85011796  1
  H+  H28  1  0.14166684  0.17737708  0.00490333  1
  H+  H29  1  0.17076392  0.69175910  0.74516575  1
  H+  H30  1  0.85832056  0.70305002  0.25269056  1
  H+  H31  1  0.85338670  0.81497440  1.01117004  1
  H+  H32  1  0.68891353  0.15963943  1.01000028  1
  H+  H33  1  0.52014550  0.68788423  -0.00703849  1
  H+  H34  1  0.50437649  0.66170935  0.74177411  1
  H+  H35  1  0.51217794  0.78951455  0.24691069  1
  H+  H36  1  0.13328365  0.50273517  0.74077790  1
  H+  H37  1  0.48980618  -0.02313758  0.49618632  1
  H+  H38  1  0.84260296  0.36131956  -0.01056754  1
  H+  H39  1  0.18435638  0.68353040  0.97859138  1
  H+  H40  1  0.81650240  0.52239461  0.51181786  1
  H+  H41  1  0.84262863  0.15216904  0.76642653  1
  H+  H42  1  0.15360776  0.63011128  0.51082575  1
  H+  H43  1  0.84849678  0.07238359  0.30096025  1
  H+  H44  1  0.30377635  0.15803105  0.47550726  1
  H+  H45  1  0.80986653  0.50792024  0.24193061  1
  H+  H46  1  0.70144720  0.52020859  0.74534640  1
  H+  H47  1  0.17706439  0.14064545  0.25380204  1
  H+  H48  1  0.50546204  0.81192379  0.47401832  1
  H+  H49  1  0.82383434  0.16883958  0.00591040  1
  H+  H50  1  0.77151564  0.54257305  0.15022395  1
  H+  H51  1  0.45768787  0.18145137  0.71208313  1
  H+  H52  1  0.95979994  0.47949996  0.75974154  1
  H+  H53  1  0.62916700  0.48030880  0.25710328  1
  H+  H54  1  0.14346818  0.17427049  0.50127577  1
  H+  H55  1  0.51570285  0.16084093  0.47687171  1
  H+  H56  1  0.29851547  0.47275999  0.98778339  1
  H+  H57  1  0.52418125  0.06859249  0.22006017  1
  H+  H58  1  0.14603130  0.29259036  0.50424659  1
  H+  H59  1  0.96206008  0.15493850  0.99406321  1
  H+  H60  1  0.22955529  0.12593339  0.84987390  1
  H+  H61  1  0.35977466  0.85849934  0.72913041  1
  H+  H62  1  0.81395267  0.30281100  0.73923646  1
  H+  H63  1  0.47436190  0.63416573  0.49899478  1
  H+  H64  1  0.09883070  0.20225513  0.15880817  1
  H+  H65  1  0.03317915  0.15598089  0.25406661  1
  H+  H66  1  0.36171898  0.83044711  0.00816055  1
  H+  H67  1  0.14005349  0.29343851  0.01049231  1
  H+  H68  1  0.86571716  0.70844973  0.48169990  1
  H+  H69  1  0.81753709  0.96760620  0.01358726  1
  H+  H70  1  0.34894463  0.19237158  0.73084164  1
  H+  H71  1  0.47411547  0.19222394  0.01140234  1
  H+  H72  1  1.04253066  0.84441193  1.00274770  1
  H+  H73  1  0.95431645  0.15497780  0.48068912  1
  H+  H74  1  0.31083332  0.81078152  0.48405907  1
  H+  H75  1  0.70318100  0.84638147  0.01570442  1
  H+  H76  1  0.14672992  0.50182895  1.00917706  1
  H+  H77  1  0.15633517  0.63431124  0.23815763  1
  H+  H78  1  0.84382347  0.47992986  -0.00512059  1
  H+  H79  1  0.84824754  0.68630877  0.77481794  1
  H+  H80  1  0.04254769  0.84588063  0.23050885  1
  H+  H81  1  0.63733887  0.79951099  0.25263339  1
  H+  H82  1  0.52024924  0.84377572  0.77274945  1
  H+  H83  1  0.82896829  0.29606402  0.23062385  1
  H+  H84  1  0.53567859  0.50563772  0.75912864  1
  H+  H85  1  0.81121536  0.62571838  0.02036761  1
  H+  H86  1  0.68218416  0.85831640  0.49877114  1
  H+  H87  1  0.03776077  0.85524484  0.68449038  1
  H+  H88  1  0.69812936  0.19450473  0.50754043  1
  H+  H89  1  0.56236873  0.18355976  0.80510741  1
  H+  H90  1  -0.01081905  0.81906351  0.47551862  1
  H+  H91  1  0.32890991  0.49973724  0.26011943  1
  H+  H92  1  0.48916596  0.31605760  0.49464520  1
  H+  H93  1  0.21331930  0.76784263  0.83450132  1
  H+  H94  1  0.13955858  0.17738044  0.73671092  1
  H+  H95  1  0.10019036  0.54380336  0.64942723  1
  H+  H96  1  0.68509780  0.82466345  0.73430310  1
  H+  H97  1  0.12808368  0.88485147  1.08492738  1
  H+  H98  1  0.29932625  0.14728231  0.25021797  1
  H+  H99  1  0.18162810  0.81262474  0.25747775  1
  H+  H100  1  0.84546094  0.36917779  0.50135999  1
  H+  H101  1  0.27426965  0.45958324  0.75598226  1
  H+  H102  1  0.47759735  0.50072031  0.23988269  1
  H+  H103  1  0.83051577  0.04669398  0.48536835  1
  H+  H104  1  0.69361143  0.20201850  0.22417632  1
  H+  H105  1  0.50978934  0.17594770  0.23762884  1
  H+  H106  1  0.18011656  0.48195092  0.48832784  1
  H+  H107  1  0.65249769  0.15568047  0.76136333  1
  H+  H108  1  0.21853785  0.76738871  0.34841308  1
  H+  H109  1  0.77505119  0.21826212  0.10344346  1
  H+  H110  1  0.55305513  0.44600236  0.34745555  1
  H+  H111  1  0.43664179  0.53973971  0.09280753  1
  H+  H112  1  0.95845814  0.34822454  0.32908538  1
  H+  H113  1  0.77352598  0.22409073  0.64878042  1
  H+  H114  1  0.88072892  0.11889699  0.90238819  1
  H+  H115  1  0.43723594  0.23171204  0.13124390  1
  H+  H116  1  0.48629552  0.62448647  0.23594092  1
  H+  H117  1  0.77942283  0.56637265  0.59875195  1
  H+  H118  1  0.50643701  0.35104064  0.99813050  1
  H+  H119  1  0.09744845  0.21142873  0.64532095  1
  H+  H120  1  0.14548356  0.90675197  0.57948465  1
  H+  H121  1  0.45537007  0.56894874  0.59308609  1
  H+  H122  1  0.87605428  0.76464421  0.92158297  1
  H+  H123  1  0.89598183  0.44395378  0.41232641  1
  H+  H124  1  0.45450533  0.90112717  0.58690922  1
  H+  H125  1  0.54323722  0.76229985  0.38828370  1
  H+  H126  1  0.18780213  0.80358055  0.97707630  1
  H+  H127  1  0.23840299  0.46249094  0.35847838  1
  H+  H128  1  0.44028596  0.23656834  0.58187970  1
  H+  H129  1  0.12088724  0.55150493  0.14886665  1
  H+  H130  1  0.55701858  0.43980735  0.90990630  1
  H+  H131  1  0.55690895  0.12408337  0.38817096  1
  H+  H132  1  0.56531889  0.08772232  0.91080438  1
  H+  H133  1  0.43186931  0.86805037  0.10285551  1
  H+  H134  1  0.20276829  0.04761333  0.98056199  1
  H+  H135  1  0.90624118  0.78236028  0.34050448  1
  H+  H136  1  0.02987341  0.50634009  0.01154668  1
  H+  H137  1  0.22222040  0.11084884  0.38772341  1
  H+  H138  1  0.75817829  0.88341588  0.58599896  1
  H+  H139  1  0.81791170  0.51646948  0.74330053  1
  H+  H140  1  0.21234925  0.42976758  0.90228228  1
  H+  H141  1  0.31846967  0.17247630  -0.01131946  1
  H+  H142  1  0.77715673  0.88857466  0.15994934  1
  H+  H143  1  0.51754607  0.49486587  0.48683040  1
  O2-  O144  1  0.11088258  0.20497834  0.22500864  1
  O2-  O145  1  0.09642776  0.21448573  0.71376071  1
  O2-  O146  1  0.12595807  0.55297050  0.21744751  1
  O2-  O147  1  0.09666547  0.54606657  0.71765583  1
  O2-  O148  1  0.12429823  0.88290268  0.20952576  1
  O2-  O149  1  0.11562980  0.89750814  0.70804586  1
  O2-  O150  1  0.43882975  0.22651501  0.20333930  1
  O2-  O151  1  0.42836692  0.23355723  0.70302208  1
  O2-  O152  1  0.43641618  0.54125985  0.21675632  1
  O2-  O153  1  0.52005330  0.61035172  0.70338350  1
  O2-  O154  1  0.43089727  0.86255463  0.22652528  1
  O2-  O155  1  0.44143218  0.90064743  0.71049760  1
  O2-  O156  1  0.77074492  0.22715169  0.19761599  1
  O2-  O157  1  0.77391271  0.22167033  0.71753844  1
  O2-  O158  1  0.77003111  0.54620479  0.21915085  1
  O2-  O159  1  0.78245234  0.56272399  0.72317423  1
  O2-  O160  1  0.76346111  0.87573009  0.22640609  1
  O2-  O161  1  0.72874081  0.80081701  0.69419565  1
  O2-  O162  1  0.22092901  0.10113649  0.27580620  1
  O2-  O163  1  0.22339659  0.12342112  0.78037076  1
  O2-  O164  1  0.24549584  0.46903072  0.28816953  1
  O2-  O165  1  0.19693432  0.42265175  0.78046384  1
  O2-  O166  1  0.21826781  0.76708988  0.27988167  1
  O2-  O167  1  0.20847903  0.77284970  0.76673792  1
  O2-  O168  1  0.55471956  0.13584257  0.25921985  1
  O2-  O169  1  0.57290943  0.11892455  0.79134396  1
  O2-  O170  1  0.54865770  0.44190894  0.27925860  1
  O2-  O171  1  0.56201309  0.45352187  0.78353585  1
  O2-  O172  1  0.55261993  0.75171005  0.27220481  1
  O2-  O173  1  0.56200684  0.80523886  0.79395401  1
  O2-  O174  1  0.91821915  0.06841616  0.31057576  1
  O2-  O175  1  0.88084946  0.11486778  0.79733443  1
  O2-  O176  1  0.93342094  0.39805828  0.30188297  1
  O2-  O177  1  0.87884228  0.43992179  0.78204840  1
  O2-  O178  1  0.90426286  0.78363288  0.27137221  1
  O2-  O179  1  0.87890235  0.76491992  0.80328069  1
  O2-  O180  1  0.22224736  0.11180604  0.45682867  1
  O2-  O181  1  0.23550750  0.12764729  0.96031768  1
  O2-  O182  1  0.22272808  0.44560064  0.46183400  1
  O2-  O183  1  0.21571418  0.43389331  0.96986029  1
  O2-  O184  1  0.22921401  0.76699022  0.46367750  1
  O2-  O185  1  0.22745267  0.76278639  0.95354361  1
  O2-  O186  1  0.55577973  0.11966066  0.45544241  1
  O2-  O187  1  0.56508395  0.09068015  0.97832317  1
  O2-  O188  1  0.55914974  0.45612761  0.46345912  1
  O2-  O189  1  0.55622246  0.43879013  0.97726205  1
  O2-  O190  1  0.53731160  0.76235409  0.45611783  1
  O2-  O191  1  0.56225848  0.77125141  0.97767710  1
  O2-  O192  1  0.87352651  0.12948053  0.46675227  1
  O2-  O193  1  0.87948532  0.11828106  0.97298296  1
  O2-  O194  1  0.88968486  0.45106021  0.47868163  1
  O2-  O195  1  0.88556220  0.44176156  0.96930224  1
  O2-  O196  1  0.91089968  0.78278577  0.45088769  1
  O2-  O197  1  0.88781299  0.76876959  0.98869039  1
  O2-  O198  1  0.09553376  0.21113815  0.02785533  1
  O2-  O199  1  0.10447865  0.21373840  0.52818503  1
  O2-  O200  1  0.11061766  0.54605804  0.03323841  1
  O2-  O201  1  0.11170811  0.54946528  0.53360967  1
  O2-  O202  1  0.12571851  0.88333862  0.01700265  1
  O2-  O203  1  0.14131017  0.89883321  0.51283631  1
  O2-  O204  1  0.43650385  0.23473286  0.03013257  1
  O2-  O205  1  0.44762957  0.23400941  0.51480587  1
  O2-  O206  1  0.43882068  0.54264265  0.02524174  1
  O2-  O207  1  0.43801803  0.55495305  0.52688430  1
  O2-  O208  1  0.44011169  0.87096350  0.03580301  1
  O2-  O209  1  0.45138467  0.89653913  0.51923679  1
  O2-  O210  1  0.77367045  0.20937387  0.03015767  1
  O2-  O211  1  0.77562678  0.23497452  0.53515852  1
  O2-  O212  1  0.77252572  0.54316021  0.03847607  1
  O2-  O213  1  0.77620849  0.56380098  0.53113995  1
  O2-  O214  1  0.78369143  0.88920799  0.03837609  1
  O2-  O215  1  0.75306428  0.91700321  0.52797157  1
