# generated using pymatgen
data_H2O
_symmetry_space_group_name_H-M   'P 1'
_cell_length_a   13.50050206
_cell_length_b   13.51626438
_cell_length_c   14.68275184
_cell_angle_alpha   89.98095937
_cell_angle_beta   89.99024795
_cell_angle_gamma   119.97997489
_symmetry_Int_Tables_number   1
_chemical_formula_structural   H2O
_chemical_formula_sum   'H144 O72'
_cell_volume   2320.77068622
_cell_formula_units_Z   72
loop_
 _symmetry_equiv_pos_site_id
 _symmetry_equiv_pos_as_xyz
  1  'x, y, z'
loop_
 _atom_type_symbol
 _atom_type_oxidation_number
  H+  1.0
  O2-  -2.0
loop_
 _atom_site_type_symbol
 _atom_site_label
 _atom_site_symmetry_multiplicity
 _atom_site_fract_x
 _atom_site_fract_y
 _atom_site_fract_z
 _atom_site_occupancy
  H+  H0  1  -0.03802420  0.15443378  -0.00598759  1
  H+  H1  1  0.18061832  0.03904304  0.75745308  1
  H+  H2  1  0.19062487  0.36766174  0.25738514  1
  H+  H3  1  1.03941102  0.85229492  0.74818326  1
  H+  H4  1  0.30469914  0.12872551  0.24868206  1
  H+  H5  1  0.15871797  0.99171039  0.51087446  1
  H+  H6  1  -0.10147337  0.82089870  0.40346682  1
  H+  H7  1  0.19067392  0.35117927  0.74781868  1
  H+  H8  1  0.85801647  0.14308526  0.24856048  1
  H+  H9  1  0.12878360  0.63640186  0.50907887  1
  H+  H10  1  0.17912393  0.55947408  -0.02722218  1
  H+  H11  1  0.09971286  0.19663340  0.59546028  1
  H+  H12  1  0.80482606  0.88323502  0.71418663  1
  H+  H13  1  0.80187071  -0.03261934  0.49827353  1
  H+  H14  1  0.69116661  0.17463219  0.51125139  1
  H+  H15  1  1.03323724  0.84759670  1.01153707  1
  H+  H16  1  0.83957941  0.14889073  -0.00406168  1
  H+  H17  1  0.21802566  0.43610644  0.88502460  1
  H+  H18  1  0.36921495  0.51007187  0.74572393  1
  H+  H19  1  0.17998061  0.82559842  0.50524154  1
  H+  H20  1  0.15368322  0.51057464  0.30619672  1
  H+  H21  1  0.51977842  0.70572431  0.48380655  1
  H+  H22  1  0.62250988  0.82026804  0.75388341  1
  H+  H23  1  0.82364763  0.62265512  0.75290735  1
  H+  H24  1  0.48446581  0.30576013  0.50977822  1
  H+  H25  1  0.64107139  0.49199898  0.50041932  1
  H+  H26  1  0.18816319  0.46682275  0.74056502  1
  H+  H27  1  0.53532386  0.15976900  0.26265669  1
  H+  H28  1  0.12033588  0.58653084  0.05240369  1
  H+  H29  1  0.38161810  0.52203660  0.02198848  1
  H+  H30  1  0.12255499  0.39622400  0.96012601  1
  H+  H31  1  0.51644299  0.15442289  0.49857718  1
  H+  H32  1  1.02907716  0.18263207  0.73932438  1
  H+  H33  1  0.83949120  1.04738293  0.75612632  1
  H+  H34  1  0.51824708  0.27330034  0.98559075  1
  H+  H35  1  0.19313604  0.02670893  0.99118518  1
  H+  H36  1  0.79477931  0.88859691  1.09627582  1
  H+  H37  1  0.14867106  0.62883849  0.30888545  1
  H+  H38  1  0.46428357  0.26873902  0.18426752  1
  H+  H39  1  0.80574791  0.49904826  0.73691392  1
  H+  H40  1  0.54758926  0.42983591  0.26661636  1
  H+  H41  1  0.16094175  0.18071907  0.23850974  1
  H+  H42  1  0.36548526  0.19263811  0.74185271  1
  H+  H43  1  0.18322711  0.33766875  0.49462088  1
  H+  H44  1  0.96539308  0.48633919  0.96761802  1
  H+  H45  1  0.68299514  0.18207891  0.74673516  1
  H+  H46  1  0.48841109  0.64028812  0.75168245  1
  H+  H47  1  0.53768669  0.53964074  0.27140266  1
  H+  H48  1  0.48599341  0.84558407  0.01553931  1
  H+  H49  1  0.80290407  0.17981787  0.74415132  1
  H+  H50  1  0.98140590  0.15297595  0.25278862  1
  H+  H51  1  0.56706322  0.12256171  0.35819669  1
  H+  H52  1  0.50622586  0.81837142  0.76079928  1
  H+  H53  1  0.56991959  0.79586168  0.39898023  1
  H+  H54  1  0.53997355  0.72090391  0.26961513  1
  H+  H55  1  0.81766092  0.65108167  0.51101622  1
  H+  H56  1  0.09795829  0.54338565  0.43613116  1
  H+  H57  1  0.16798802  0.87720150  0.73982089  1
  H+  H58  1  0.50063584  0.51311030  0.75309775  1
  H+  H59  1  0.63516148  0.48836401  0.75486884  1
  H+  H60  1  0.96405013  0.47137161  0.29379513  1
  H+  H61  1  1.02425304  0.15961441  0.50313483  1
  H+  H62  1  0.30767873  0.14608251  0.50014065  1
  H+  H63  1  0.85926753  0.96273480  0.26042698  1
  H+  H64  1  0.84879436  0.35268186  0.26558808  1
  H+  H65  1  0.51172443  0.37002117  0.75301984  1
  H+  H66  1  0.28276538  0.82276731  0.27194668  1
  H+  H67  1  0.45893209  0.17915963  0.11624010  1
  H+  H68  1  0.51570048  1.03425656  0.49665032  1
  H+  H69  1  0.82969299  0.33341616  0.49841087  1
  H+  H70  1  0.36939800  0.85335889  0.51656931  1
  H+  H71  1  0.84948518  0.84181951  0.49609374  1
  H+  H72  1  0.16050648  0.86336503  1.01227898  1
  H+  H73  1  0.56735809  0.46416067  0.41048814  1
  H+  H74  1  0.95454882  0.85002253  0.25110133  1
  H+  H75  1  0.37474557  0.97076480  0.18387066  1
  H+  H76  1  0.85783796  0.78761467  0.77609870  1
  H+  H77  1  0.71006239  0.18190232  0.24554020  1
  H+  H78  1  0.22629589  0.75808984  0.77966701  1
  H+  H79  1  0.14021885  0.95645167  0.23902419  1
  H+  H80  1  0.94754213  0.45565770  0.74471536  1
  H+  H81  1  0.18388250  0.14086362  0.49248208  1
  H+  H82  1  0.47243334  -0.01520866  0.24653077  1
  H+  H83  1  0.16324098  0.16984981  1.00660625  1
  H+  H84  1  0.14540704  0.17548145  0.74138204  1
  H+  H85  1  0.63659260  0.45909768  0.99081486  1
  H+  H86  1  0.81528464  0.51603266  0.00311225  1
  H+  H87  1  0.81937272  0.51429239  0.23865570  1
  H+  H88  1  0.49071149  0.64578426  0.01761348  1
  H+  H89  1  0.16984242  0.28923764  0.00575116  1
  H+  H90  1  0.39066081  0.88820998  0.74540141  1
  H+  H91  1  0.52158696  1.05719654  0.77585954  1
  H+  H92  1  0.68058600  0.84603697  0.50242253  1
  H+  H93  1  0.49825111  0.53005263  0.50392874  1
  H+  H94  1  0.84753816  0.69273475  -0.00316205  1
  H+  H95  1  0.94460972  0.46961305  0.49259893  1
  H+  H96  1  0.12432127  0.59186136  0.71237434  1
  H+  H97  1  0.15711134  0.80385294  0.27103621  1
  H+  H98  1  0.64254234  0.82018809  0.98876638  1
  H+  H99  1  0.82521378  0.34334794  0.74982934  1
  H+  H100  1  0.66866628  0.82155595  0.27519358  1
  H+  H101  1  0.38078754  0.52805551  0.49632148  1
  H+  H102  1  0.33019834  0.85349420  0.99374819  1
  H+  H103  1  0.80544244  0.29977550  1.01058018  1
  H+  H104  1  0.17960600  0.45310456  0.49498679  1
  H+  H105  1  0.82724463  -0.02933571  1.00974086  1
  H+  H106  1  0.37537401  0.53908749  0.25081119  1
  H+  H107  1  0.20697000  0.74304876  0.97273814  1
  H+  H108  1  0.02872354  0.47022417  0.13885620  1
  H+  H109  1  0.05368320  0.53062961  0.15666742  1
  H+  H110  1  0.44661127  0.23043601  0.60110851  1
  H+  H111  1  0.77923861  0.55378004  0.09534517  1
  H+  H112  1  0.55178851  0.14038903  0.86690082  1
  H+  H113  1  0.48816455  0.85312984  0.50982728  1
  H+  H114  1  0.01381462  0.86889646  0.50747906  1
  H+  H115  1  0.85684427  0.81749294  0.99308538  1
  H+  H116  1  0.32055303  0.13204391  0.97808266  1
  H+  H117  1  0.55875659  0.78208127  0.90240204  1
  H+  H118  1  0.12425527  0.21803504  0.14759525  1
  H+  H119  1  0.88427897  0.11863201  0.84952387  1
  H+  H120  1  0.72804902  0.55428077  0.24161058  1
  H+  H121  1  0.78304097  0.57305214  0.59938560  1
  H+  H122  1  0.90416980  0.76713229  0.86866652  1
  H+  H123  1  0.88942697  0.11106641  0.39325496  1
  H+  H124  1  0.87452244  0.43096482  0.88882289  1
  H+  H125  1  0.23743031  0.10256585  0.34380021  1
  H+  H126  1  0.86491119  0.41564207  0.39729058  1
  H+  H127  1  0.67963002  0.19119529  0.01496154  1
  H+  H128  1  0.46407125  0.91200122  0.65454506  1
  H+  H129  1  0.77817455  0.22368511  0.15132791  1
  H+  H130  1  0.45382227  0.58082843  0.16048063  1
  H+  H131  1  0.55828154  0.42164950  0.90283202  1
  H+  H132  1  0.25970993  0.84299968  0.86201602  1
  H+  H133  1  0.75168779  0.90852046  0.63087142  1
  H+  H134  1  0.44371582  0.89066055  0.10106891  1
  H+  H135  1  0.23076395  0.42618851  0.35469698  1
  H+  H136  1  0.09640897  0.87696810  0.15164089  1
  H+  H137  1  0.48666992  0.19749448  0.74773583  1
  H+  H138  1  0.09404038  0.51758924  0.62537368  1
  H+  H139  1  0.84677434  0.14677723  0.48431756  1
  H+  H140  1  0.22520419  0.11235596  0.84903151  1
  H+  H141  1  0.21467168  0.78641694  0.41488995  1
  H+  H142  1  0.10013386  0.90266131  0.60556221  1
  H+  H143  1  0.76897054  0.21142425  0.60152087  1
  O2-  O144  1  0.12318650  0.22278436  0.21543600  1
  O2-  O145  1  0.10772506  0.21643901  0.71307308  1
  O2-  O146  1  0.10799874  0.54659561  0.32748878  1
  O2-  O147  1  0.09564241  0.51327586  0.69278724  1
  O2-  O148  1  0.09017845  0.87553253  0.21999997  1
  O2-  O149  1  0.11328094  0.90068514  0.71509716  1
  O2-  O150  1  0.44490755  0.18899500  0.18299408  1
  O2-  O151  1  0.44592820  0.23569050  0.71931456  1
  O2-  O152  1  0.45569167  0.58414958  0.22946893  1
  O2-  O153  1  0.45424115  0.55672898  0.73272609  1
  O2-  O154  1  0.40434464  0.92546224  0.21234530  1
  O2-  O155  1  0.46953907  0.91504816  0.72259799  1
  O2-  O156  1  0.78895389  0.22280345  0.21912019  1
  O2-  O157  1  0.76019336  0.21461453  0.71564116  1
  O2-  O158  1  0.79515939  0.56325466  0.20763118  1
  O2-  O159  1  0.77269134  0.54910285  0.72194225  1
  O2-  O160  1  0.82396870  0.88140345  0.23884043  1
  O2-  O161  1  0.75463877  0.91367293  0.70098159  1
  O2-  O162  1  0.22823611  0.09875492  0.27676560  1
  O2-  O163  1  0.22163476  0.11887817  0.78111712  1
  O2-  O164  1  0.22831452  0.44315742  0.28876717  1
  O2-  O165  1  0.23168746  0.43352674  0.76933432  1
  O2-  O166  1  0.20568656  0.77594253  0.30029540  1
  O2-  O167  1  0.25677181  0.83912932  0.79117585  1
  O2-  O168  1  0.57297241  0.12014864  0.29023018  1
  O2-  O169  1  0.55707171  0.13821970  0.79477921  1
  O2-  O170  1  0.58427205  0.50474046  0.29511930  1
  O2-  O171  1  0.55331702  0.45164490  0.77663514  1
  O2-  O172  1  0.59007274  0.79972205  0.29317638  1
  O2-  O173  1  0.54452475  0.77403078  0.78060620  1
  O2-  O174  1  0.90102508  0.10786162  0.27570750  1
  O2-  O175  1  0.88777957  0.12547382  0.78166154  1
  O2-  O176  1  0.87886091  0.42765392  0.29943175  1
  O2-  O177  1  0.87090789  0.42577852  0.77148872  1
  O2-  O178  1  0.88495320  0.83242692  0.28844755  1
  O2-  O179  1  0.90971475  0.76291883  0.79862697  1
  O2-  O180  1  0.22668785  0.09979397  0.47497122  1
  O2-  O181  1  0.23890435  0.10564913  0.96480812  1
  O2-  O182  1  0.22372220  0.41865972  0.47252001  1
  O2-  O183  1  0.20552112  0.43888647  0.95240369  1
  O2-  O184  1  0.21607415  0.78232188  0.48339134  1
  O2-  O185  1  0.25016249  0.82728130  0.96446382  1
  O2-  O186  1  0.55824677  0.11580188  0.47518346  1
  O2-  O187  1  0.55075868  0.14393717  0.96841600  1
  O2-  O188  1  0.56009237  0.44723974  0.47697299  1
  O2-  O189  1  0.55989332  0.40171965  0.96704321  1
  O2-  O190  1  0.55885601  0.79040496  0.46815053  1
  O2-  O191  1  0.56100228  0.78168392  0.97012478  1
  O2-  O192  1  0.88630604  0.10604792  0.46151637  1
  O2-  O193  1  0.88248966  0.11215137  0.97092823  1
  O2-  O194  1  0.86472695  0.41543364  0.47001109  1
  O2-  O195  1  0.88269474  0.43986934  0.95657831  1
  O2-  O196  1  0.90252549  0.81510107  0.47136423  1
  O2-  O197  1  0.89497771  0.77366886  0.97304130  1
  O2-  O198  1  0.12214398  0.21031019  0.02755461  1
  O2-  O199  1  0.10438196  0.19501975  0.52742373  1
  O2-  O200  1  0.13138158  0.59458575  -0.01377753  1
  O2-  O201  1  0.08797116  0.55083428  0.50452054  1
  O2-  O202  1  0.11210978  0.89431495  0.03723111  1
  O2-  O203  1  0.10009053  0.90531068  0.53586872  1
  O2-  O204  1  0.47721350  0.18815091  0.00401313  1
  O2-  O205  1  0.44277003  0.22470981  0.53295854  1
  O2-  O206  1  0.45577272  0.57102371  0.05001792  1
  O2-  O207  1  0.46031279  0.57582849  0.51633679  1
  O2-  O208  1  0.44233879  0.88345713  0.03426831  1
  O2-  O209  1  0.45075448  0.89594309  0.53544432  1
  O2-  O210  1  0.76223819  0.22086198  0.03519713  1
  O2-  O211  1  0.77342780  0.21401721  0.53295010  1
  O2-  O212  1  0.77546674  0.55591912  0.02657916  1
  O2-  O213  1  0.77807979  0.57153407  0.53210348  1
  O2-  O214  1  0.79043802  0.88892622  0.02941216  1
  O2-  O215  1  0.76387233  0.88994238  0.52730194  1
