# generated using pymatgen
data_H2O
_symmetry_space_group_name_H-M   'P 1'
_cell_length_a   13.50706842
_cell_length_b   13.50204634
_cell_length_c   14.68729596
_cell_angle_alpha   89.94574929
_cell_angle_beta   90.04759342
_cell_angle_gamma   120.01384270
_symmetry_Int_Tables_number   1
_chemical_formula_structural   H2O
_chemical_formula_sum   'H144 O72'
_cell_volume   2319.38233156
_cell_formula_units_Z   72
loop_
 _symmetry_equiv_pos_site_id
 _symmetry_equiv_pos_as_xyz
  1  'x, y, z'
loop_
 _atom_type_symbol
 _atom_type_oxidation_number
  H+  1.0
  O2-  -2.0
loop_
 _atom_site_type_symbol
 _atom_site_label
 _atom_site_symmetry_multiplicity
 _atom_site_fract_x
 _atom_site_fract_y
 _atom_site_fract_z
 _atom_site_occupancy
  H+  H0  1  0.12058066  0.65001346  0.02462537  1
  H+  H1  1  0.73136423  0.53952966  0.49737683  1
  H+  H2  1  0.80162889  0.30451728  0.26037346  1
  H+  H3  1  0.86057584  0.67987398  0.31336733  1
  H+  H4  1  0.52508101  0.18839599  -0.00684033  1
  H+  H5  1  0.54093787  0.03514807  0.77527280  1
  H+  H6  1  0.47286770  0.29777250  0.25280461  1
  H+  H7  1  0.03467530  0.51137958  0.51277004  1
  H+  H8  1  0.80302214  0.84975322  -0.00027582  1
  H+  H9  1  0.49137639  0.61064206  0.49863530  1
  H+  H10  1  0.18330727  0.36781870  0.25548968  1
  H+  H11  1  0.86926939  0.17861670  0.75477395  1
  H+  H12  1  0.16613095  0.13379358  0.49890737  1
  H+  H13  1  0.02692343  0.84572886  0.73820594  1
  H+  H14  1  0.31010861  0.18675088  0.98846136  1
  H+  H15  1  0.94313094  0.50045030  0.98645857  1
  H+  H16  1  0.80794676  0.57289460  0.58954943  1
  H+  H17  1  0.54496853  0.10830942  0.40804848  1
  H+  H18  1  0.84098739  0.80681546  0.74825717  1
  H+  H19  1  0.53780153  0.74323287  0.59116295  1
  H+  H20  1  0.47955819  0.96749266  0.51082012  1
  H+  H21  1  0.69284403  0.18476722  0.51254897  1
  H+  H22  1  0.50459422  0.14506815  0.49800401  1
  H+  H23  1  0.80270339  0.83107634  0.23569962  1
  H+  H24  1  0.57945747  0.11563410  0.86229650  1
  H+  H25  1  0.04562686  0.21108838  0.73054035  1
  H+  H26  1  0.64238455  0.48210301  0.79349421  1
  H+  H27  1  0.36579041  0.84848119  0.24396516  1
  H+  H28  1  0.48189773  0.84876787  0.52444318  1
  H+  H29  1  0.14118802  0.50416120  0.02913500  1
  H+  H30  1  0.14641725  0.51126587  0.23855210  1
  H+  H31  1  0.68963291  0.84029729  0.23363246  1
  H+  H32  1  0.18141921  0.38642595  0.74710412  1
  H+  H33  1  0.58516070  0.39580408  0.46217931  1
  H+  H34  1  0.17696968  1.01835095  0.49634325  1
  H+  H35  1  0.19891073  0.49415165  0.48486396  1
  H+  H36  1  0.84761304  0.15686005  0.49282071  1
  H+  H37  1  0.85875495  1.01633290  0.26940933  1
  H+  H38  1  0.67575176  0.49407017  0.22818283  1
  H+  H39  1  0.96817702  0.48688151  0.26458448  1
  H+  H40  1  0.80809274  -0.01502797  0.51541855  1
  H+  H41  1  0.78884790  0.61087151  0.19958742  1
  H+  H42  1  0.17030395  0.04201854  0.76345451  1
  H+  H43  1  0.10298910  0.88735752  0.37338691  1
  H+  H44  1  0.81430107  0.67933422  0.96905020  1
  H+  H45  1  0.15431922  0.18493751  0.24104473  1
  H+  H46  1  0.78375548  0.48381217  -0.01173122  1
  H+  H47  1  0.70611798  0.50601760  0.68709937  1
  H+  H48  1  0.30230105  0.82461079  0.75643322  1
  H+  H49  1  0.74355990  0.51585932  0.08110542  1
  H+  H50  1  0.10487319  0.98772048  0.01107451  1
  H+  H51  1  0.87966531  0.44759597  0.88768873  1
  H+  H52  1  0.82005844  0.31707846  0.01218501  1
  H+  H53  1  0.18522169  0.17145960  -0.00290686  1
  H+  H54  1  0.50989546  0.50268736  0.48728406  1
  H+  H55  1  0.63480597  0.17438531  0.00708611  1
  H+  H56  1  0.83934019  1.02441617  -0.00790518  1
  H+  H57  1  0.51605132  0.69504590  0.24359503  1
  H+  H58  1  0.85881698  0.48903632  0.49644141  1
  H+  H59  1  0.02429114  0.16173771  0.51578158  1
  H+  H60  1  0.14465574  -0.03084138  0.28903836  1
  H+  H61  1  0.34510846  0.47563347  0.98673062  1
  H+  H62  1  0.71440390  0.18586748  0.75157419  1
  H+  H63  1  0.50759829  0.03049283  0.26970277  1
  H+  H64  1  0.69202355  0.83973109  0.74231579  1
  H+  H65  1  0.51139354  0.52788595  0.73003167  1
  H+  H66  1  0.15968302  0.20507535  0.73775200  1
  H+  H67  1  0.80752466  0.10596475  0.93715050  1
  H+  H68  1  0.16811178  0.85107291  -0.03147574  1
  H+  H69  1  0.02536489  0.52932493  0.73946437  1
  H+  H70  1  0.31001637  0.48040899  0.47610682  1
  H+  H71  1  0.44572519  0.28626324  0.52699767  1
  H+  H72  1  0.14938486  0.63054318  0.25115739  1
  H+  H73  1  0.16248168  0.30676942  0.00024390  1
  H+  H74  1  0.29045099  0.36202669  0.91008356  1
  H+  H75  1  -0.01283551  0.87131277  0.00785891  1
  H+  H76  1  0.22691191  0.89433079  0.98468751  1
  H+  H77  1  0.33399731  0.70866410  0.94065354  1
  H+  H78  1  -0.02622594  0.83745733  0.50052285  1
  H+  H79  1  0.81351803  0.30348949  0.51151884  1
  H+  H80  1  0.49091787  -0.01279996  1.01799476  1
  H+  H81  1  0.51901252  0.48447002  0.25528806  1
  H+  H82  1  0.84936414  0.37810874  0.75563172  1
  H+  H83  1  0.29813589  0.14927901  0.26791729  1
  H+  H84  1  0.18369511  0.81134191  0.28451609  1
  H+  H85  1  0.36484729  0.51322882  0.23299014  1
  H+  H86  1  0.47668104  0.66086756  0.98188607  1
  H+  H87  1  0.62215612  0.15468486  0.27293824  1
  H+  H88  1  0.96198346  0.80241577  0.28542253  1
  H+  H89  1  0.03214070  0.19940528  0.00629809  1
  H+  H90  1  0.16245304  0.46922468  1.00466978  1
  H+  H91  1  0.18179150  0.68662748  0.49886947  1
  H+  H92  1  0.82757280  0.20612900  0.03777487  1
  H+  H93  1  0.46992433  0.17836019  0.25818997  1
  H+  H94  1  0.39340574  0.85570229  0.00921139  1
  H+  H95  1  0.84269932  0.68742917  0.74413467  1
  H+  H96  1  0.52315390  0.79778245  0.98957677  1
  H+  H97  1  0.30074772  0.80933707  0.49851668  1
  H+  H98  1  -0.02375535  0.13650902  0.27005307  1
  H+  H99  1  0.47975753  0.50651654  0.01628150  1
  H+  H100  1  0.14942321  0.85448976  0.74659769  1
  H+  H101  1  0.51757696  0.69984788  0.74463975  1
  H+  H102  1  0.15114149  0.83499298  0.51833396  1
  H+  H103  1  0.60670404  0.43087498  0.99648717  1
  H+  H104  1  0.84701415  0.48279212  0.25758724  1
  H+  H105  1  0.84013617  0.49549871  0.75018423  1
  H+  H106  1  0.06589922  0.58012330  0.11438114  1
  H+  H107  1  0.49239164  0.28082042  0.74599909  1
  H+  H108  1  0.47665126  0.85041610  0.73875061  1
  H+  H109  1  0.25869192  0.75304353  0.89083659  1
  H+  H110  1  0.11410136  0.21344411  0.59911409  1
  H+  H111  1  0.53189672  0.76377040  0.83883386  1
  H+  H112  1  0.33752137  0.16277965  0.51167773  1
  H+  H113  1  0.44812164  0.89818785  0.15569495  1
  H+  H114  1  0.88518467  0.79371076  0.41725636  1
  H+  H115  1  0.77920555  0.23004132  0.65421526  1
  H+  H116  1  0.21274753  0.12401377  0.85024081  1
  H+  H117  1  0.17368053  0.88200042  0.14093112  1
  H+  H118  1  0.75791477  0.23442705  0.16932978  1
  H+  H119  1  0.11304841  0.88234638  0.60546251  1
  H+  H120  1  0.47494470  0.55033783  0.63173295  1
  H+  H121  1  0.63683151  0.82421806  0.52539070  1
  H+  H122  1  0.21635130  0.11374563  0.35642568  1
  H+  H123  1  0.43733008  0.54553072  0.14078327  1
  H+  H124  1  0.89279263  0.44330984  0.40855595  1
  H+  H125  1  0.51733416  0.81405967  0.25007112  1
  H+  H126  1  0.77255249  0.88870252  0.65589231  1
  H+  H127  1  0.11180301  0.22572479  0.15348664  1
  H+  H128  1  0.22745667  0.45453221  0.83915209  1
  H+  H129  1  0.57645703  0.46035178  0.34861522  1
  H+  H130  1  0.11161952  0.55633348  0.60288349  1
  H+  H131  1  0.91239619  0.12570742  0.83269404  1
  H+  H132  1  0.86389918  0.76021885  0.88125643  1
  H+  H133  1  0.22964688  0.76582563  0.36149800  1
  H+  H134  1  0.12229712  0.88391401  0.12085972  1
  H+  H135  1  0.81639431  0.87159053  0.51593805  1
  H+  H136  1  0.43934735  0.89726479  0.65330573  1
  H+  H137  1  0.77915454  0.89237591  0.09399465  1
  H+  H138  1  0.44003713  0.19532095  0.66637407  1
  H+  H139  1  0.53536964  0.41650647  0.85835360  1
  H+  H140  1  0.88950957  0.10699520  0.40881987  1
  H+  H141  1  0.18153326  0.70524914  0.75599501  1
  H+  H142  1  0.14375503  0.52600327  0.74330822  1
  H+  H143  1  0.22730126  0.45405796  0.34122691  1
  O2-  O144  1  0.11395770  0.22637748  0.22132955  1
  O2-  O145  1  0.12745279  0.25026421  0.70809800  1
  O2-  O146  1  0.10278622  0.55235403  0.22473639  1
  O2-  O147  1  0.10620727  0.56919532  0.71663616  1
  O2-  O148  1  0.10261031  0.88458454  0.30695120  1
  O2-  O149  1  0.10890486  0.89162577  0.71822886  1
  O2-  O150  1  0.42603521  0.21529699  0.23698567  1
  O2-  O151  1  0.47136736  0.20280465  0.72795206  1
  O2-  O152  1  0.44496481  0.54990868  0.20957921  1
  O2-  O153  1  0.49270469  0.57909353  0.69548650  1
  O2-  O154  1  0.44681574  0.89449782  0.22412576  1
  O2-  O155  1  0.43796776  0.89462376  0.72123609  1
  O2-  O156  1  0.75036170  0.22659841  0.23616593  1
  O2-  O157  1  0.79028214  0.23923556  0.72144246  1
  O2-  O158  1  0.75552290  0.52793034  0.19641741  1
  O2-  O159  1  0.78348540  0.55481030  0.70953893  1
  O2-  O160  1  0.77336180  0.88002240  0.21346500  1
  O2-  O161  1  0.77212403  0.87135272  0.72174129  1
  O2-  O162  1  0.21417803  0.10797887  0.28830168  1
  O2-  O163  1  0.20299317  0.12222066  0.78324267  1
  O2-  O164  1  0.22295408  0.45090342  0.27186713  1
  O2-  O165  1  0.20842132  0.46325711  0.77526159  1
  O2-  O166  1  0.22634320  0.76979345  0.29301843  1
  O2-  O167  1  0.22358013  0.78355573  0.78422039  1
  O2-  O168  1  0.54072734  0.10869430  0.29679148  1
  O2-  O169  1  0.60836918  0.09143544  0.81013937  1
  O2-  O170  1  0.56214548  0.44663188  0.27700456  1
  O2-  O171  1  0.55820208  0.44013596  0.79430434  1
  O2-  O172  1  0.56068113  0.77516226  0.26628306  1
  O2-  O173  1  0.54427643  0.77754402  0.77161301  1
  O2-  O174  1  0.90224779  0.09023088  0.30177434  1
  O2-  O175  1  0.91743494  0.14316935  0.76769802  1
  O2-  O176  1  0.88847084  0.45010333  0.29008399  1
  O2-  O177  1  0.88567388  0.45822891  0.77938307  1
  O2-  O178  1  0.87629597  0.75215611  0.28632718  1
  O2-  O179  1  0.88466777  0.76801791  0.76994835  1
  O2-  O180  1  0.21341849  0.09801661  0.47234894  1
  O2-  O181  1  0.22921999  0.13756331  0.96959301  1
  O2-  O182  1  0.23439156  0.45798215  0.44921676  1
  O2-  O183  1  0.26302538  0.40726463  0.94153220  1
  O2-  O184  1  0.22017848  0.76803547  0.47473158  1
  O2-  O185  1  0.27800312  0.73405178  0.95200815  1
  O2-  O186  1  0.54787389  0.10756356  0.47695191  1
  O2-  O187  1  0.55587829  0.13604783  0.98229150  1
  O2-  O188  1  0.59731723  0.47120051  0.44711798  1
  O2-  O189  1  0.52111090  0.39020975  0.97688363  1
  O2-  O190  1  0.54986585  0.77074291  0.52842794  1
  O2-  O191  1  0.49147428  0.73310732  0.94742249  1
  O2-  O192  1  0.88513687  0.11160432  0.47739562  1
  O2-  O193  1  0.87226957  0.10755149  0.96793336  1
  O2-  O194  1  0.89422007  0.44057794  0.47623313  1
  O2-  O195  1  0.87099619  0.44049880  0.95701164  1
  O2-  O196  1  0.90313999  0.83262783  0.47592668  1
  O2-  O197  1  0.85420752  0.75982215  0.94968204  1
  O2-  O198  1  0.10800716  0.23326735  0.03463722  1
  O2-  O199  1  0.10501744  0.18952663  0.53351181  1
  O2-  O200  1  0.04690476  0.60287507  0.05533338  1
  O2-  O201  1  0.11596020  0.55493248  0.53447063  1
  O2-  O202  1  0.04393737  0.92957104  0.04938896  1
  O2-  O203  1  0.11265482  0.87893689  0.53654546  1
  O2-  O204  1  0.46555404  0.27919203  0.01128477  1
  O2-  O205  1  0.41995266  0.20535129  0.53548486  1
  O2-  O206  1  0.43240531  0.54114926  0.02836646  1
  O2-  O207  1  0.45539471  0.52865330  0.51369241  1
  O2-  O208  1  0.46501082  0.90923846  0.04201299  1
  O2-  O209  1  0.43616652  0.88757038  0.53552852  1
  O2-  O210  1  0.78100580  0.24262464  0.04691626  1
  O2-  O211  1  0.77336915  0.22263429  0.53468684  1
  O2-  O212  1  0.73413079  0.51434881  0.01329934  1
  O2-  O213  1  0.81096614  0.56875088  0.52157329  1
  O2-  O214  1  0.77677033  0.89997519  0.02659925  1
  O2-  O215  1  0.76756581  0.90314032  0.53861805  1
