# generated using pymatgen
data_H2O
_symmetry_space_group_name_H-M   'P 1'
_cell_length_a   13.49486779
_cell_length_b   13.49992708
_cell_length_c   14.67791504
_cell_angle_alpha   89.98919766
_cell_angle_beta   90.00232551
_cell_angle_gamma   119.98032272
_symmetry_Int_Tables_number   1
_chemical_formula_structural   H2O
_chemical_formula_sum   'H144 O72'
_cell_volume   2316.22704399
_cell_formula_units_Z   72
loop_
 _symmetry_equiv_pos_site_id
 _symmetry_equiv_pos_as_xyz
  1  'x, y, z'
loop_
 _atom_type_symbol
 _atom_type_oxidation_number
  H+  1.0
  O2-  -2.0
loop_
 _atom_site_type_symbol
 _atom_site_label
 _atom_site_symmetry_multiplicity
 _atom_site_fract_x
 _atom_site_fract_y
 _atom_site_fract_z
 _atom_site_occupancy
  H+  H0  1  0.33862855  0.13839322  0.26408498  1
  H+  H1  1  0.48538355  0.11832449  0.47862828  1
  H+  H2  1  0.19706199  0.36459301  0.76871157  1
  H+  H3  1  0.18906164  0.83318826  0.97236534  1
  H+  H4  1  0.51022883  0.35027001  0.73819785  1
  H+  H5  1  0.03515819  0.17979586  0.49142254  1
  H+  H6  1  0.82466285  0.64292330  0.01441237  1
  H+  H7  1  0.31249972  0.80297753  0.54274415  1
  H+  H8  1  0.87129457  0.74293413  0.44028924  1
  H+  H9  1  0.63767873  0.50521399  0.26182026  1
  H+  H10  1  0.63634863  0.48816172  0.99735789  1
  H+  H11  1  0.84936934  0.31127653  0.43985620  1
  H+  H12  1  0.48550359  0.29407840  0.50167955  1
  H+  H13  1  0.00788105  0.45637643  0.74261863  1
  H+  H14  1  0.17580336  0.47068573  1.00447718  1
  H+  H15  1  0.87453453  0.85184694  0.48605827  1
  H+  H16  1  0.49702198  0.84656507  0.74622201  1
  H+  H17  1  0.86565483  0.15234626  0.44400862  1
  H+  H18  1  0.08020722  0.21130421  0.16289965  1
  H+  H19  1  0.47663643  0.62580264  0.49718801  1
  H+  H20  1  0.14298504  0.51970742  0.24848413  1
  H+  H21  1  0.82090630  0.83028742  0.77198399  1
  H+  H22  1  0.36316514  0.17974033  0.50723486  1
  H+  H23  1  0.83808822  0.00636224  0.20463356  1
  H+  H24  1  0.70144520  0.18201253  0.76129441  1
  H+  H25  1  0.48956535  -0.02239426  1.00173954  1
  H+  H26  1  0.60706778  0.80663576  0.21737317  1
  H+  H27  1  0.31768750  0.47984953  0.76678129  1
  H+  H28  1  0.12187483  0.89552218  0.08449630  1
  H+  H29  1  0.74502701  0.88987142  0.55360232  1
  H+  H30  1  0.67571847  0.48458912  0.51818903  1
  H+  H31  1  0.99753283  0.18451257  1.02707704  1
  H+  H32  1  0.89179261  0.76974007  0.87126273  1
  H+  H33  1  0.46028132  0.62645942  0.23290997  1
  H+  H34  1  0.48102273  0.97385581  0.22500547  1
  H+  H35  1  0.28261811  0.47309096  0.25632292  1
  H+  H36  1  0.18168052  0.16040353  0.75260266  1
  H+  H37  1  0.54921942  0.11270473  0.90160126  1
  H+  H38  1  0.19806680  0.84229633  0.74134639  1
  H+  H39  1  0.15357093  0.64614449  0.24330132  1
  H+  H40  1  1.04320786  0.86038805  0.50428232  1
  H+  H41  1  0.18375389  0.48104572  0.49469883  1
  H+  H42  1  0.52151871  0.48458055  0.74362493  1
  H+  H43  1  0.35644798  0.50774793  1.01628752  1
  H+  H44  1  0.22565049  0.77073782  0.63698297  1
  H+  H45  1  0.82245278  0.66298215  0.23768206  1
  H+  H46  1  0.17825993  1.04089948  0.75301372  1
  H+  H47  1  0.52237890  0.07887834  0.38790535  1
  H+  H48  1  0.88203794  0.10477021  0.86935261  1
  H+  H49  1  0.31137279  0.15079891  0.98768074  1
  H+  H50  1  0.49725605  0.82317713  0.23065703  1
  H+  H51  1  0.21443787  0.44351454  0.34968116  1
  H+  H52  1  0.36110040  0.50880141  0.51001890  1
  H+  H53  1  0.84397025  0.35254029  0.77899571  1
  H+  H54  1  0.51169180  0.49160534  0.26027038  1
  H+  H55  1  0.85109869  0.47941748  0.49417265  1
  H+  H56  1  0.85918572  0.99706832  0.52549750  1
  H+  H57  1  0.81668141  0.17652021  0.76776294  1
  H+  H58  1  0.51898699  1.03265637  0.75676672  1
  H+  H59  1  0.46327622  0.82776079  0.49072893  1
  H+  H60  1  0.36591701  0.19022939  0.72799752  1
  H+  H61  1  1.04594306  0.86952725  0.22016293  1
  H+  H62  1  0.03589836  0.52059053  0.51182530  1
  H+  H63  1  0.17763382  0.96765674  0.23304363  1
  H+  H64  1  0.84932096  1.01832579  0.78500560  1
  H+  H65  1  0.31914627  0.83934569  0.74125131  1
  H+  H66  1  0.63911056  0.15761249  -0.01308857  1
  H+  H67  1  0.82632987  0.54682811  0.24677519  1
  H+  H68  1  0.49082758  0.30919192  0.00882578  1
  H+  H69  1  0.61119994  0.80646708  0.44445539  1
  H+  H70  1  0.45863169  0.94684493  0.49558839  1
  H+  H71  1  0.51663199  0.48431457  -0.00134472  1
  H+  H72  1  0.78558559  0.60049889  0.54285837  1
  H+  H73  1  0.11194497  0.28086105  0.25618821  1
  H+  H74  1  0.49549210  0.63239904  0.74427485  1
  H+  H75  1  0.63798961  0.15124170  0.25534458  1
  H+  H76  1  0.82206823  0.24191064  0.34714739  1
  H+  H77  1  0.81553820  0.15437861  -0.00594915  1
  H+  H78  1  0.84783662  0.83515642  0.21515615  1
  H+  H79  1  0.62914701  0.81277861  1.00154536  1
  H+  H80  1  0.02080342  0.48891687  0.01631373  1
  H+  H81  1  -0.01500582  0.51602427  0.25821049  1
  H+  H82  1  0.18581336  0.15213366  0.49100267  1
  H+  H83  1  0.52680942  0.16323294  0.24728689  1
  H+  H84  1  0.84511741  0.47504568  0.99750355  1
  H+  H85  1  0.69588198  0.73862325  0.13469051  1
  H+  H86  1  0.18949492  1.03557078  0.49918273  1
  H+  H87  1  0.82652597  0.15561457  0.23016559  1
  H+  H88  1  0.36920500  0.85996110  0.99500738  1
  H+  H89  1  0.97261425  0.83152043  0.99860155  1
  H+  H90  1  0.51389864  0.14912191  0.75300850  1
  H+  H91  1  0.52774140  0.76552990  0.36212022  1
  H+  H92  1  0.90799364  0.48022655  0.39771236  1
  H+  H93  1  0.63575699  0.80407567  0.77620213  1
  H+  H94  1  0.64370560  0.47311697  0.75702910  1
  H+  H95  1  0.15179709  0.84844606  0.53190744  1
  H+  H96  1  0.81498968  0.49215167  0.76376536  1
  H+  H97  1  1.00398712  0.18610097  0.74018869  1
  H+  H98  1  0.29663374  0.81602495  0.25083129  1
  H+  H99  1  0.18278669  0.36194453  0.48909833  1
  H+  H100  1  0.03082037  0.84981055  0.75713674  1
  H+  H101  1  0.89176629  0.07003789  0.38663044  1
  H+  H102  1  0.51117547  0.47729010  0.48939784  1
  H+  H103  1  0.85419239  0.68437960  0.78426482  1
  H+  H104  1  0.85825462  0.40451961  0.26141387  1
  H+  H105  1  0.49049185  0.18882814  0.00864569  1
  H+  H106  1  0.47375798  0.63044436  0.01514507  1
  H+  H107  1  0.12525780  0.29235616  0.02773028  1
  H+  H108  1  0.17894372  0.81311838  0.24968121  1
  H+  H109  1  0.23732743  0.11749441  0.89694186  1
  H+  H110  1  0.55578245  0.44593628  0.39840589  1
  H+  H111  1  0.25592013  0.09736282  0.35134019  1
  H+  H112  1  0.44657180  0.22296050  0.63813378  1
  H+  H113  1  0.13691791  0.47500328  0.74326840  1
  H+  H114  1  0.77329729  0.52717513  0.67241115  1
  H+  H115  1  0.71632943  0.17592159  0.57917892  1
  H+  H116  1  0.17778578  0.67102810  0.55080947  1
  H+  H117  1  0.84630312  0.82320444  1.00593427  1
  H+  H118  1  0.05278787  0.30776317  0.69547415  1
  H+  H119  1  0.51271008  0.81948231  0.99275777  1
  H+  H120  1  0.09399291  0.51454023  0.60718095  1
  H+  H121  1  0.09500838  0.22180913  0.58864005  1
  H+  H122  1  0.82039964  0.03353446  1.00630506  1
  H+  H123  1  0.88701019  0.27694417  0.18670474  1
  H+  H124  1  0.09707292  0.89333674  0.66120565  1
  H+  H125  1  0.45448217  0.55941622  0.64985119  1
  H+  H126  1  0.22454030  0.78462854  0.88715162  1
  H+  H127  1  0.89796359  0.83700285  0.31506073  1
  H+  H128  1  0.50118212  0.31650189  0.23441035  1
  H+  H129  1  0.10240954  0.53963096  0.10284896  1
  H+  H130  1  0.89037794  0.43970100  0.86446286  1
  H+  H131  1  0.54869843  0.76552683  0.85981256  1
  H+  H132  1  0.78183749  0.56522934  0.10270361  1
  H+  H133  1  0.95179964  0.11753139  0.24438645  1
  H+  H134  1  0.15704778  0.97531236  -0.00448011  1
  H+  H135  1  0.46840894  0.88712742  0.65181560  1
  H+  H136  1  0.68774744  0.21049613  0.58738719  1
  H+  H137  1  0.83048751  0.34638883  0.99227769  1
  H+  H138  1  0.42872944  0.54233995  0.14941134  1
  H+  H139  1  0.75375194  0.21606728  0.08290607  1
  H+  H140  1  0.46183142  0.23690066  0.14338795  1
  H+  H141  1  0.80072950  0.88597939  0.68411677  1
  H+  H142  1  0.43864872  0.89608210  0.13394855  1
  H+  H143  1  0.22373129  0.43442138  0.91767559  1
  O2-  O144  1  0.07459865  0.20202407  0.23209438  1
  O2-  O145  1  0.07045801  0.24496809  0.70265316  1
  O2-  O146  1  0.10458666  0.56162697  0.22485196  1
  O2-  O147  1  0.06946485  0.45549048  0.70411904  1
  O2-  O148  1  0.12457705  0.89335805  0.20049555  1
  O2-  O149  1  0.10796217  0.89839093  0.72855382  1
  O2-  O150  1  0.46862862  0.23679503  0.21232510  1
  O2-  O151  1  0.44758173  0.22926507  0.70733816  1
  O2-  O152  1  0.42681063  0.54385746  0.21861135  1
  O2-  O153  1  0.45886749  0.55285583  0.71746918  1
  O2-  O154  1  0.43886377  0.89321641  0.20301095  1
  O2-  O155  1  0.46289036  0.89098610  0.71887670  1
  O2-  O156  1  0.81808269  0.22612098  0.22125132  1
  O2-  O157  1  0.78444937  0.22445450  0.74700569  1
  O2-  O158  1  0.77895396  0.57964494  0.22400693  1
  O2-  O159  1  0.77164089  0.53212227  0.73970983  1
  O2-  O160  1  0.73041946  0.82086324  0.14677345  1
  O2-  O161  1  0.78126717  0.87216906  0.74918978  1
  O2-  O162  1  0.27009178  0.07322614  0.29189140  1
  O2-  O163  1  0.22725330  0.12459782  0.76681616  1
  O2-  O164  1  0.20397622  0.43985316  0.28249427  1
  O2-  O165  1  0.23974491  0.44280171  0.79385791  1
  O2-  O166  1  0.21789997  0.77311763  0.27579541  1
  O2-  O167  1  0.23405369  0.79344036  0.73389700  1
  O2-  O168  1  0.55667694  0.11215478  0.27046899  1
  O2-  O169  1  0.55307333  0.11155745  0.78151576  1
  O2-  O170  1  0.55772354  0.45767120  0.28488637  1
  O2-  O171  1  0.55521595  0.43435780  0.76288168  1
  O2-  O172  1  0.53476191  0.77693718  0.25176366  1
  O2-  O173  1  0.55234749  0.76456349  0.79087776  1
  O2-  O174  1  0.86390531  0.06176684  0.25435177  1
  O2-  O175  1  0.88859908  0.10084999  0.80060436  1
  O2-  O176  1  0.90157433  0.48322891  0.28334374  1
  O2-  O177  1  0.88822065  0.43782304  0.79497464  1
  O2-  O178  1  0.89538629  0.81250815  0.25157507  1
  O2-  O179  1  0.89426187  0.76610328  0.80209598  1
  O2-  O180  1  0.23003524  0.11397036  0.47331511  1
  O2-  O181  1  0.23225443  0.10525410  0.96299037  1
  O2-  O182  1  0.22648466  0.44443915  0.47019334  1
  O2-  O183  1  0.22227861  0.43326095  0.98498932  1
  O2-  O184  1  0.22422051  0.76070782  0.56473372  1
  O2-  O185  1  0.23907875  0.80234929  0.95159561  1
  O2-  O186  1  0.50319566  0.06088898  0.45337716  1
  O2-  O187  1  0.55173989  0.11309058  0.96922170  1
  O2-  O188  1  0.55282831  0.43817154  0.46705160  1
  O2-  O189  1  0.55616837  0.44401063  0.97566720  1
  O2-  O190  1  0.52970976  0.76199814  0.43131667  1
  O2-  O191  1  0.54962812  0.77383659  0.97372420  1
  O2-  O192  1  0.89869310  0.09877399  0.44946513  1
  O2-  O193  1  0.86025630  0.10966871  0.97766165  1
  O2-  O194  1  0.90731110  0.46302337  0.46447600  1
  O2-  O195  1  0.88148197  0.43197960  0.97390542  1
  O2-  O196  1  0.91583266  0.82603206  0.44389752  1
  O2-  O197  1  0.88898328  0.78545024  0.98074750  1
  O2-  O198  1  0.07355078  0.21778350  0.05687628  1
  O2-  O199  1  0.11138393  0.22152252  0.52229238  1
  O2-  O200  1  0.10170668  0.52459095  0.03687096  1
  O2-  O201  1  0.11210542  0.54898598  0.54312709  1
  O2-  O202  1  0.11150173  0.89247164  0.01675754  1
  O2-  O203  1  0.11370249  0.89354591  0.54221272  1
  O2-  O204  1  0.44960191  0.22817324  0.03304450  1
  O2-  O205  1  0.44539074  0.21560372  0.52815246  1
  O2-  O206  1  0.43840734  0.55071272  0.03877370  1
  O2-  O207  1  0.44368255  0.55199393  0.53009941  1
  O2-  O208  1  0.44796953  0.89519653  0.02285734  1
  O2-  O209  1  0.43143158  0.86760849  0.52721785  1
  O2-  O210  1  0.76066659  0.21947957  0.01677339  1
  O2-  O211  1  0.81784648  0.23357603  0.41399238  1
  O2-  O212  1  0.78358534  0.56151028  0.03516781  1
  O2-  O213  1  0.75348649  0.51833012  0.54924978  1
  O2-  O214  1  0.75843745  0.86856377  0.05127461  1
  O2-  O215  1  0.82727414  0.92061690  0.55818907  1
