# generated using pymatgen
data_H2O
_symmetry_space_group_name_H-M   'P 1'
_cell_length_a   13.49326523
_cell_length_b   13.51086687
_cell_length_c   14.68197765
_cell_angle_alpha   90.00390087
_cell_angle_beta   90.04685915
_cell_angle_gamma   119.98940956
_symmetry_Int_Tables_number   1
_chemical_formula_structural   H2O
_chemical_formula_sum   'H144 O72'
_cell_volume   2318.25704142
_cell_formula_units_Z   72
loop_
 _symmetry_equiv_pos_site_id
 _symmetry_equiv_pos_as_xyz
  1  'x, y, z'
loop_
 _atom_type_symbol
 _atom_type_oxidation_number
  H+  1.0
  O2-  -2.0
loop_
 _atom_site_type_symbol
 _atom_site_label
 _atom_site_symmetry_multiplicity
 _atom_site_fract_x
 _atom_site_fract_y
 _atom_site_fract_z
 _atom_site_occupancy
  H+  H0  1  0.81154194  0.18657161  0.00694856  1
  H+  H1  1  0.80287382  0.30062697  0.74929218  1
  H+  H2  1  0.36782005  0.52990978  0.99792513  1
  H+  H3  1  0.19268628  0.35905779  0.48893274  1
  H+  H4  1  0.64580810  0.49868459  0.50162733  1
  H+  H5  1  0.84502719  0.70880980  0.75510758  1
  H+  H6  1  0.39637194  0.21012064  0.81773729  1
  H+  H7  1  0.47745022  0.96076808  0.74069956  1
  H+  H8  1  0.49952071  0.97233022  0.49884553  1
  H+  H9  1  0.84506018  0.34515251  0.50008428  1
  H+  H10  1  0.51256684  0.03277773  0.98726378  1
  H+  H11  1  0.52410464  0.70933828  0.48373978  1
  H+  H12  1  0.29067593  0.92917559  0.21142309  1
  H+  H13  1  0.16382939  0.78697060  0.28006761  1
  H+  H14  1  1.00059751  0.51972545  0.76488398  1
  H+  H15  1  0.69146776  0.84627630  0.23400413  1
  H+  H16  1  0.02580807  0.17792990  0.23608692  1
  H+  H17  1  0.81738722  0.86260217  0.74131932  1
  H+  H18  1  0.49594549  0.65527758  0.73829772  1
  H+  H19  1  0.95646947  0.80210014  0.49835946  1
  H+  H20  1  0.43403842  0.19689673  0.46199033  1
  H+  H21  1  0.18395356  0.66931816  -0.00770557  1
  H+  H22  1  0.49460427  0.13238049  0.76195586  1
  H+  H23  1  0.17265541  0.81013586  0.76404590  1
  H+  H24  1  0.16728350  0.50555623  0.23814441  1
  H+  H25  1  0.83113193  0.00626569  0.26032444  1
  H+  H26  1  0.51137527  0.81617288  0.75099271  1
  H+  H27  1  0.45077923  0.89263422  0.58946590  1
  H+  H28  1  0.50869870  0.72606923  0.24098006  1
  H+  H29  1  0.69707623  0.52537525  0.73747737  1
  H+  H30  1  0.48148263  -0.00214259  0.23752774  1
  H+  H31  1  0.86217160  0.10453783  0.85878005  1
  H+  H32  1  0.82524648  0.19189568  0.23370528  1
  H+  H33  1  0.14595910  0.22769906  0.60005517  1
  H+  H34  1  0.90963320  0.51487044  0.29128077  1
  H+  H35  1  0.17955848  0.91388311  0.16062266  1
  H+  H36  1  0.12103637  0.48734622  0.56718276  1
  H+  H37  1  0.48539199  0.64787066  0.99768573  1
  H+  H38  1  0.49629808  0.52543500  0.52125839  1
  H+  H39  1  0.51107881  0.36273075  0.27102881  1
  H+  H40  1  0.38250638  0.54200967  0.22628104  1
  H+  H41  1  0.80775701  0.83561881  0.24257400  1
  H+  H42  1  0.55010002  0.13986028  0.49237109  1
  H+  H43  1  0.50469656  0.37773005  0.73922896  1
  H+  H44  1  0.83422158  0.31336327  0.24212245  1
  H+  H45  1  0.17632772  0.48459890  0.98121932  1
  H+  H46  1  0.10919628  0.54421585  0.10260547  1
  H+  H47  1  0.83570100  0.48771165  0.76942283  1
  H+  H48  1  0.17863898  0.78067665  0.99520967  1
  H+  H49  1  0.76990892  0.49506081  0.22188227  1
  H+  H50  1  0.14615454  0.61425678  0.25074290  1
  H+  H51  1  0.99844697  0.47697393  0.26933599  1
  H+  H52  1  0.82971249  0.69012468  0.26064722  1
  H+  H53  1  0.48599642  0.18672327  0.24733208  1
  H+  H54  1  0.16805497  0.92740697  0.00048913  1
  H+  H55  1  0.14921892  0.20428024  -0.00497882  1
  H+  H56  1  0.13987880  0.83378007  0.52074628  1
  H+  H57  1  0.69847035  0.85425321  0.50939790  1
  H+  H58  1  0.20937895  0.30125547  0.73956803  1
  H+  H59  1  0.84130697  0.36859440  0.99578282  1
  H+  H60  1  0.63984089  0.16383185  0.26542920  1
  H+  H61  1  0.15535440  0.13572481  0.48952996  1
  H+  H62  1  0.45519066  0.87060054  0.23542692  1
  H+  H63  1  0.36816230  0.18939267  0.24450713  1
  H+  H64  1  0.69271788  0.15702979  0.49785761  1
  H+  H65  1  0.05284308  0.91959369  0.02708970  1
  H+  H66  1  -0.03762300  0.15535594  -0.01776833  1
  H+  H67  1  0.36053104  0.84107071  0.73574160  1
  H+  H68  1  0.17716216  0.36885962  0.98554170  1
  H+  H69  1  0.37409275  0.51987530  0.51696278  1
  H+  H70  1  0.18800349  1.08211107  -0.03244049  1
  H+  H71  1  0.82983602  0.81311356  0.99520302  1
  H+  H72  1  0.51973610  0.82480731  0.48537980  1
  H+  H73  1  0.83515907  0.48411476  -0.00147433  1
  H+  H74  1  0.20766095  0.04209838  0.25801065  1
  H+  H75  1  0.12283003  0.94292359  0.51575319  1
  H+  H76  1  0.04023665  0.18744566  0.52537112  1
  H+  H77  1  0.52864764  0.83727297  -0.00970551  1
  H+  H78  1  0.52801808  0.38186329  0.50272588  1
  H+  H79  1  0.82099258  0.63092318  0.51219846  1
  H+  H80  1  0.61769635  0.46129820  0.97002039  1
  H+  H81  1  0.78157779  0.89072983  0.10125213  1
  H+  H82  1  0.81956253  0.50964961  0.51515354  1
  H+  H83  1  0.82213347  -0.03133146  0.51589897  1
  H+  H84  1  0.30338858  0.81353169  0.50048355  1
  H+  H85  1  0.77069964  0.61365601  0.00327940  1
  H+  H86  1  0.90231673  0.43365880  0.41694420  1
  H+  H87  1  0.49366623  0.52534747  0.73874482  1
  H+  H88  1  0.18697538  0.69392271  0.51834300  1
  H+  H89  1  0.03430987  0.84441208  0.75199321  1
  H+  H90  1  0.13864339  0.65226612  0.76069966  1
  H+  H91  1  0.81613164  0.15109181  0.76509820  1
  H+  H92  1  0.19613512  0.47431753  0.45437172  1
  H+  H93  1  0.85791180  0.15162864  0.49950433  1
  H+  H94  1  0.19079403  0.35450413  0.24597282  1
  H+  H95  1  0.66300131  0.50946363  0.24362724  1
  H+  H96  1  0.82032212  0.02361105  0.75973232  1
  H+  H97  1  0.70420155  0.85969939  0.01002472  1
  H+  H98  1  0.77302221  0.20740403  0.59282456  1
  H+  H99  1  0.47153129  0.17453687  0.00756738  1
  H+  H100  1  0.02242967  0.51215893  0.01658430  1
  H+  H101  1  0.14003337  0.17050154  0.23259759  1
  H+  H102  1  0.91411812  0.75954225  1.00083079  1
  H+  H103  1  0.68253981  0.18206650  0.74395358  1
  H+  H104  1  0.36989101  0.84538780  0.00949413  1
  H+  H105  1  0.84635138  0.03323035  0.99100883  1
  H+  H106  1  0.01175198  0.49454127  0.53233439  1
  H+  H107  1  0.29214323  0.47652837  0.75942826  1
  H+  H108  1  0.87627554  0.78164537  0.84570393  1
  H+  H109  1  0.45261386  0.56785582  0.64091402  1
  H+  H110  1  0.87429475  0.76750462  0.34928690  1
  H+  H111  1  0.20502161  0.10870437  0.34550697  1
  H+  H112  1  0.77946257  0.06326207  0.32066776  1
  H+  H113  1  0.77696516  0.22942585  0.09669332  1
  H+  H114  1  0.56569290  0.79769871  0.89945553  1
  H+  H115  1  0.50042559  0.34372915  0.96785448  1
  H+  H116  1  0.32296069  0.16655077  0.73221010  1
  H+  H117  1  0.57106201  0.11338586  0.36089231  1
  H+  H118  1  0.78271442  0.55904709  0.65346471  1
  H+  H119  1  0.90767706  0.11118203  0.41708987  1
  H+  H120  1  0.73754696  0.54251114  0.09617938  1
  H+  H121  1  0.18262109  0.73810744  0.37273721  1
  H+  H122  1  0.08282014  0.55596760  0.67144122  1
  H+  H123  1  0.22099507  0.76618941  0.85061823  1
  H+  H124  1  0.30889209  0.18773544  0.97252174  1
  H+  H125  1  0.10845397  0.87298425  0.66236268  1
  H+  H126  1  0.77529970  0.89865429  0.65045338  1
  H+  H127  1  0.63403018  0.82102758  0.75130423  1
  H+  H128  1  0.84010585  0.80638517  0.49762994  1
  H+  H129  1  0.09958741  0.22132668  0.08985125  1
  H+  H130  1  0.62930921  0.15383214  0.98865138  1
  H+  H131  1  0.43686632  0.22029000  0.09616424  1
  H+  H132  1  0.24551620  0.42917529  0.33506378  1
  H+  H133  1  0.45196637  0.58839935  0.13431099  1
  H+  H134  1  0.44513048  0.90645690  0.09785486  1
  H+  H135  1  0.55423781  0.44627335  0.35887137  1
  H+  H136  1  0.18567565  0.15598776  0.81564601  1
  H+  H137  1  0.87343335  0.44688891  0.86125522  1
  H+  H138  1  0.25536803  0.10911445  0.49067109  1
  H+  H139  1  0.42319380  0.19732271  0.56917901  1
  H+  H140  1  0.21307616  0.42326870  0.84527710  1
  H+  H141  1  0.54686525  0.10539172  0.84927735  1
  H+  H142  1  0.55078570  0.79872588  0.33336613  1
  H+  H143  1  0.54589468  0.44040823  0.83600983  1
  O2-  O144  1  0.10182117  0.21278318  0.20826867  1
  O2-  O145  1  0.21668503  0.24215932  0.69965237  1
  O2-  O146  1  0.11914345  0.53896504  0.21783883  1
  O2-  O147  1  0.08389941  0.56318433  0.74032049  1
  O2-  O148  1  0.21458317  0.92221040  0.22089025  1
  O2-  O149  1  0.11322917  0.87093934  0.73006953  1
  O2-  O150  1  0.44699095  0.22593805  0.21932307  1
  O2-  O151  1  0.40346109  0.19846673  0.75290285  1
  O2-  O152  1  0.45580792  0.60194469  0.20186240  1
  O2-  O153  1  0.45477238  0.57074264  0.71412029  1
  O2-  O154  1  0.42839058  0.92121842  0.20927156  1
  O2-  O155  1  0.44135044  0.88150993  0.71510745  1
  O2-  O156  1  0.78908477  0.23641642  0.21393711  1
  O2-  O157  1  0.76554701  0.22050284  0.72612331  1
  O2-  O158  1  0.74219812  0.54802319  0.21044226  1
  O2-  O159  1  0.77981193  0.56337158  0.72183717  1
  O2-  O160  1  0.77417834  0.88212918  0.21529049  1
  O2-  O161  1  0.77428599  0.90133704  0.71962721  1
  O2-  O162  1  0.21924581  0.11754550  0.27861724  1
  O2-  O163  1  0.16920143  0.13373424  0.75050621  1
  O2-  O164  1  0.23532674  0.43434172  0.26909068  1
  O2-  O165  1  0.21730075  0.41339790  0.77769020  1
  O2-  O166  1  0.14905045  0.71591763  0.31084920  1
  O2-  O167  1  0.21312889  0.76397638  0.78283148  1
  O2-  O168  1  0.56188193  0.12357944  0.29126252  1
  O2-  O169  1  0.54433880  0.10128881  0.78053832  1
  O2-  O170  1  0.55047616  0.44362790  0.29165665  1
  O2-  O171  1  0.54665827  0.45512929  0.76540867  1
  O2-  O172  1  0.55116341  0.80775095  0.26650841  1
  O2-  O173  1  0.55275858  0.77569202  0.77336074  1
  O2-  O174  1  0.85223172  0.08228257  0.29192294  1
  O2-  O175  1  0.85308566  0.10396791  0.78849609  1
  O2-  O176  1  0.91934708  0.44829157  0.29775099  1
  O2-  O177  1  0.87569963  0.44640741  0.79244431  1
  O2-  O178  1  0.87207131  0.77039568  0.28184475  1
  O2-  O179  1  0.88344292  0.78909382  0.77837155  1
  O2-  O180  1  0.18063673  0.08232207  0.46307362  1
  O2-  O181  1  0.23285892  0.15916663  0.94148655  1
  O2-  O182  1  0.24248974  0.43812206  0.46245377  1
  O2-  O183  1  0.21758163  0.44628334  0.95732642  1
  O2-  O184  1  0.21835920  0.76943606  0.48934415  1
  O2-  O185  1  0.22491465  0.75155931  0.96816203  1
  O2-  O186  1  0.58257983  0.09711543  0.46372679  1
  O2-  O187  1  0.54961172  0.11334403  0.96381054  1
  O2-  O188  1  0.56294996  0.46269655  0.48330059  1
  O2-  O189  1  0.54736214  0.41532931  0.93322921  1
  O2-  O190  1  0.56488393  0.78905215  0.46191414  1
  O2-  O191  1  0.57242504  0.80095099  0.96661310  1
  O2-  O192  1  0.90553963  0.11402379  0.48424289  1
  O2-  O193  1  0.87939998  0.11120162  0.96263787  1
  O2-  O194  1  0.89049669  0.42999271  0.48414201  1
  O2-  O195  1  0.88189246  0.45047553  0.97536007  1
  O2-  O196  1  0.87651726  0.76312880  0.47371523  1
  O2-  O197  1  0.85405351  0.76034392  0.96467276  1
  O2-  O198  1  0.09621727  0.22780496  0.02231084  1
  O2-  O199  1  0.12563977  0.22808946  0.53400065  1
  O2-  O200  1  0.10478193  0.54693157  0.03430295  1
  O2-  O201  1  0.09057990  0.53926515  0.56359268  1
  O2-  O202  1  0.13326928  0.95466287  0.04474645  1
  O2-  O203  1  0.09205708  0.86624188  0.54355610  1
  O2-  O204  1  0.43010404  0.21446431  0.02839807  1
  O2-  O205  1  0.47462715  0.23441156  0.51802521  1
  O2-  O206  1  0.44656145  0.56955577  0.02243483  1
  O2-  O207  1  0.45236797  0.56383884  0.54400585  1
  O2-  O208  1  0.44943942  0.89768366  0.02983805  1
  O2-  O209  1  0.44760364  0.88922998  0.52207271  1
  O2-  O210  1  0.77185921  0.22762576  0.02857158  1
  O2-  O211  1  0.78100223  0.20878563  0.52602170  1
  O2-  O212  1  0.74526150  0.53668883  0.02841925  1
  O2-  O213  1  0.78089440  0.55092575  0.53835983  1
  O2-  O214  1  0.78573303  0.89579053  0.03246270  1
  O2-  O215  1  0.77650297  0.88836238  0.53836128  1
