# generated using pymatgen
data_H2O
_symmetry_space_group_name_H-M   'P 1'
_cell_length_a   13.50742851
_cell_length_b   13.49004213
_cell_length_c   14.67279119
_cell_angle_alpha   90.01172285
_cell_angle_beta   89.99664838
_cell_angle_gamma   120.01598651
_symmetry_Int_Tables_number   1
_chemical_formula_structural   H2O
_chemical_formula_sum   'H144 O72'
_cell_volume   2315.04458700
_cell_formula_units_Z   72
loop_
 _symmetry_equiv_pos_site_id
 _symmetry_equiv_pos_as_xyz
  1  'x, y, z'
loop_
 _atom_type_symbol
 _atom_type_oxidation_number
  H+  1.0
  O2-  -2.0
loop_
 _atom_site_type_symbol
 _atom_site_label
 _atom_site_symmetry_multiplicity
 _atom_site_fract_x
 _atom_site_fract_y
 _atom_site_fract_z
 _atom_site_occupancy
  H+  H0  1  0.17013638  0.15113852  0.99768708  1
  H+  H1  1  0.85703484  0.82534810  0.26429632  1
  H+  H2  1  0.03995917  0.85859139  0.25029091  1
  H+  H3  1  0.18471127  0.14978108  0.49950499  1
  H+  H4  1  0.90091310  0.34460392  0.77806939  1
  H+  H5  1  0.70822633  0.87075139  0.02284945  1
  H+  H6  1  0.50340865  0.63068451  -0.00862466  1
  H+  H7  1  0.49166164  0.42351054  0.78568158  1
  H+  H8  1  0.48121424  0.84646514  0.50580518  1
  H+  H9  1  0.32212763  0.83483632  0.49455190  1
  H+  H10  1  0.42118830  0.51166374  -0.05567384  1
  H+  H11  1  0.05154233  0.22829309  0.75133338  1
  H+  H12  1  0.98251221  0.16178952  1.00339135  1
  H+  H13  1  0.84708951  0.70127923  0.26342062  1
  H+  H14  1  0.80776282  0.27797913  0.51674210  1
  H+  H15  1  0.86082286  0.69838305  0.48849140  1
  H+  H16  1  0.70244676  0.50001290  0.01865724  1
  H+  H17  1  0.51684151  0.32164509  0.76471421  1
  H+  H18  1  0.53381762  1.01173209  -0.00699214  1
  H+  H19  1  0.15855591  0.34683496  0.28074610  1
  H+  H20  1  1.03225871  0.17878752  0.51258530  1
  H+  H21  1  0.51311190  0.16778673  0.73105237  1
  H+  H22  1  0.71162711  0.81181579  0.69511068  1
  H+  H23  1  0.51589950  0.03507488  0.47454728  1
  H+  H24  1  0.17941391  1.04110961  0.76713827  1
  H+  H25  1  0.85667231  0.05299485  0.99515158  1
  H+  H26  1  0.11373501  0.65680878  0.71996817  1
  H+  H27  1  0.15103795  0.52447441  0.01579976  1
  H+  H28  1  0.82678121  0.51662353  0.01670207  1
  H+  H29  1  0.16267132  0.48021587  0.72250351  1
  H+  H30  1  0.50317736  0.82624911  0.75910591  1
  H+  H31  1  0.18416197  0.68196100  0.97494696  1
  H+  H32  1  0.70852637  0.19838356  0.23519938  1
  H+  H33  1  0.71568109  0.86436727  0.25140244  1
  H+  H34  1  0.46753482  0.95660477  0.73965804  1
  H+  H35  1  0.98569633  0.84800284  1.01264795  1
  H+  H36  1  0.38317513  0.15573987  1.04855170  1
  H+  H37  1  0.82263131  0.85096569  0.50306074  1
  H+  H38  1  0.81004141  0.50555236  0.49770618  1
  H+  H39  1  0.30559755  0.15193798  0.49708899  1
  H+  H40  1  0.34455634  0.83957348  0.72948881  1
  H+  H41  1  0.04426949  0.84934619  0.50798041  1
  H+  H42  1  0.85739145  0.86961929  0.75098365  1
  H+  H43  1  0.19321610  0.83755490  0.49520845  1
  H+  H44  1  0.87072331  0.75995454  0.74976139  1
  H+  H45  1  0.04040150  0.88083780  0.74092888  1
  H+  H46  1  0.16481905  0.64186412  0.26406812  1
  H+  H47  1  0.50021263  0.26908985  1.04029592  1
  H+  H48  1  0.68056286  0.49986319  0.24565349  1
  H+  H49  1  0.48393479  0.51598305  0.23318736  1
  H+  H50  1  0.47951587  0.51635686  0.49664088  1
  H+  H51  1  0.19721798  0.84079417  0.27004128  1
  H+  H52  1  0.86239739  0.16515122  0.76472423  1
  H+  H53  1  0.16904979  0.15960232  0.76911340  1
  H+  H54  1  0.17373249  0.47337686  0.28313050  1
  H+  H55  1  0.62389134  0.47979328  0.47578281  1
  H+  H56  1  0.04392708  0.52938751  0.25924192  1
  H+  H57  1  0.52780225  0.18014773  0.24812253  1
  H+  H58  1  0.03465440  0.52715616  0.00190498  1
  H+  H59  1  0.71519437  0.18068647  0.00976059  1
  H+  H60  1  0.01250776  0.16605372  0.25459979  1
  H+  H61  1  0.86113789  0.14641770  0.26905976  1
  H+  H62  1  0.80225547  0.56300134  0.73856567  1
  H+  H63  1  0.09498605  0.83834261  0.02509245  1
  H+  H64  1  0.63141055  0.84790175  0.76550186  1
  H+  H65  1  0.37093599  0.82679911  1.00704482  1
  H+  H66  1  0.63845979  0.14603618  0.47822988  1
  H+  H67  1  0.85996245  0.03789131  0.48216444  1
  H+  H68  1  0.52944144  0.12651107  0.99805630  1
  H+  H69  1  0.85673034  0.36495951  0.99313635  1
  H+  H70  1  0.12271093  0.90660469  0.65384204  1
  H+  H71  1  0.76747686  0.54669459  0.16109995  1
  H+  H72  1  0.13718441  0.47847322  0.76837436  1
  H+  H73  1  0.20973825  0.06131619  0.26316859  1
  H+  H74  1  0.35037998  0.48595949  0.78846808  1
  H+  H75  1  0.54650854  0.58058578  0.71492316  1
  H+  H76  1  0.15510410  0.63199567  0.50014798  1
  H+  H77  1  0.84023703  0.19535889  0.01256512  1
  H+  H78  1  0.50314315  0.66607468  0.73745614  1
  H+  H79  1  0.15072724  1.02358148  -0.01299317  1
  H+  H80  1  0.83573421  0.68848343  0.98569129  1
  H+  H81  1  0.85562685  0.37313439  0.26200587  1
  H+  H82  1  0.51692186  0.70363045  0.48659582  1
  H+  H83  1  0.16101018  0.97367549  0.50949124  1
  H+  H84  1  0.81867250  0.16768963  0.49769624  1
  H+  H85  1  0.99788319  0.51882698  0.72057879  1
  H+  H86  1  0.40064831  0.26832137  0.26485590  1
  H+  H87  1  0.95869878  0.47286088  0.48992050  1
  H+  H88  1  0.48957493  0.18601231  0.49784405  1
  H+  H89  1  0.14842469  0.29804836  0.51834251  1
  H+  H90  1  0.14462710  0.18364204  0.25242415  1
  H+  H91  1  0.75412294  0.10960420  0.64232221  1
  H+  H92  1  0.52716883  0.45608067  1.00348921  1
  H+  H93  1  0.48925243  0.85998960  0.24380404  1
  H+  H94  1  0.23875681  0.80400397  0.39429730  1
  H+  H95  1  0.63327016  0.08459162  0.76111382  1
  H+  H96  1  0.51725644  0.80100145  1.00151207  1
  H+  H97  1  0.21712504  0.81707714  0.96704884  1
  H+  H98  1  0.55654395  0.12754994  0.33378759  1
  H+  H99  1  0.52331366  0.71024306  0.25342707  1
  H+  H100  1  0.31845579  0.84123675  0.27000495  1
  H+  H101  1  0.15308074  0.29607951  0.03756152  1
  H+  H102  1  0.83179112  0.41319770  0.75209880  1
  H+  H103  1  0.29278685  0.48150941  1.03225261  1
  H+  H104  1  0.48360395  0.30154775  0.50408802  1
  H+  H105  1  0.17280864  0.82216230  0.75673339  1
  H+  H106  1  0.67670173  0.45978660  0.73967071  1
  H+  H107  1  0.63656950  0.82321679  0.48889349  1
  H+  H108  1  0.89483067  0.44190758  0.90311427  1
  H+  H109  1  0.23854972  0.43778790  0.93645521  1
  H+  H110  1  0.83776823  -0.01512107  0.25789684  1
  H+  H111  1  0.78701999  0.89723989  0.59074264  1
  H+  H112  1  0.23966159  0.36376480  0.79371510  1
  H+  H113  1  0.47212924  0.21572949  0.64589176  1
  H+  H114  1  0.90232635  0.11589919  0.38874756  1
  H+  H115  1  0.88041152  0.43436103  0.40181018  1
  H+  H116  1  0.90257879  0.77975198  0.40113506  1
  H+  H117  1  0.53624391  0.42959027  0.39057920  1
  H+  H118  1  0.43748730  0.88708712  0.59464824  1
  H+  H119  1  0.45000520  0.56381979  0.58641900  1
  H+  H120  1  0.56025447  0.78111113  0.90659846  1
  H+  H121  1  0.11846920  0.23119971  0.65889444  1
  H+  H122  1  0.20165118  0.43099129  0.41037622  1
  H+  H123  1  0.23598040  0.12807499  0.35604191  1
  H+  H124  1  0.55428685  0.78433172  0.34510318  1
  H+  H125  1  0.75265585  1.00515165  0.69897143  1
  H+  H126  1  0.87257773  0.78037306  0.90261586  1
  H+  H127  1  0.08149603  0.57178865  0.62099865  1
  H+  H128  1  0.29127800  0.48258288  0.49561607  1
  H+  H129  1  0.10626294  0.20839748  0.12227605  1
  H+  H130  1  0.19931483  0.11029852  0.87623283  1
  H+  H131  1  0.21151699  0.76065177  0.83406745  1
  H+  H132  1  0.43853445  0.87209977  0.10311485  1
  H+  H133  1  0.84574149  0.48636305  0.26854774  1
  H+  H134  1  0.76113544  0.53377791  0.58473992  1
  H+  H135  1  0.78530436  0.91927486  0.11248081  1
  H+  H136  1  0.79432846  0.23663884  0.15208895  1
  H+  H137  1  0.10943988  0.90824901  0.16058980  1
  H+  H138  1  0.56522135  0.08476370  0.85186359  1
  H+  H139  1  0.55827930  0.40159152  0.92076895  1
  H+  H140  1  0.15369556  0.51028871  0.51339511  1
  H+  H141  1  0.46420654  0.56676084  0.14345069  1
  H+  H142  1  0.92248021  0.19345278  0.86184762  1
  H+  H143  1  0.48804461  0.97942867  0.23304587  1
  O2-  O144  1  0.09763207  0.21433735  0.22643372  1
  O2-  O145  1  0.12516223  0.23739751  0.72732616  1
  O2-  O146  1  0.12599369  0.56166882  0.24459713  1
  O2-  O147  1  0.05123099  0.58941199  0.68213825  1
  O2-  O148  1  0.12035343  0.90187889  0.22661990  1
  O2-  O149  1  0.12240563  0.90950682  0.72187878  1
  O2-  O150  1  0.48210366  0.30451615  0.24682105  1
  O2-  O151  1  0.47603861  0.21249188  0.71358278  1
  O2-  O152  1  0.46518734  0.57388940  0.20954278  1
  O2-  O153  1  0.47760358  0.58668705  0.71298026  1
  O2-  O154  1  0.44364660  0.89554715  0.22024213  1
  O2-  O155  1  0.42573023  0.87881688  0.70895266  1
  O2-  O156  1  0.79108940  0.23837663  0.21995795  1
  O2-  O157  1  0.74560142  0.07632493  0.70386001  1
  O2-  O158  1  0.76380610  0.54697933  0.22888281  1
  O2-  O159  1  0.75363360  0.48876703  0.71026889  1
  O2-  O160  1  0.79654524  0.90091776  0.23202199  1
  O2-  O161  1  0.77065159  0.89097036  0.70595125  1
  O2-  O162  1  0.24438133  0.13938477  0.28880944  1
  O2-  O163  1  0.20639508  0.11703683  0.79837392  1
  O2-  O164  1  0.19951847  0.42293183  0.31171092  1
  O2-  O165  1  0.30060315  0.42494866  0.83144421  1
  O2-  O166  1  0.23971919  0.80559365  0.29923092  1
  O2-  O167  1  0.20108617  0.76655916  0.76616762  1
  O2-  O168  1  0.55569408  0.12778691  0.26572541  1
  O2-  O169  1  0.56107806  0.07922565  0.78349743  1
  O2-  O170  1  0.53434325  0.42439719  0.28063832  1
  O2-  O171  1  0.54921631  0.40142733  0.79679101  1
  O2-  O172  1  0.55720209  0.79040415  0.27760559  1
  O2-  O173  1  0.55114419  0.79507341  0.78499956  1
  O2-  O174  1  0.90050403  0.10680478  0.29219079  1
  O2-  O175  1  0.93004260  0.22581834  0.79908479  1
  O2-  O176  1  0.89121662  0.45131461  0.29078422  1
  O2-  O177  1  0.90243677  0.41952651  0.77805431  1
  O2-  O178  1  0.89587565  0.78136014  0.28507583  1
  O2-  O179  1  0.90795802  0.83548416  0.77781283  1
  O2-  O180  1  0.22389324  0.10827540  0.47616493  1
  O2-  O181  1  0.19935648  0.10402871  0.96414185  1
  O2-  O182  1  0.20781462  0.44107156  0.48247458  1
  O2-  O183  1  0.21830805  0.44134629  1.00119412  1
  O2-  O184  1  0.23630939  0.79762185  0.46844889  1
  O2-  O185  1  0.23947202  0.76380650  0.94344826  1
  O2-  O186  1  0.55873133  0.11506813  0.45306914  1
  O2-  O187  1  0.57244144  0.09156865  0.96925177  1
  O2-  O188  1  0.54111912  0.43869545  0.46029355  1
  O2-  O189  1  0.56309029  0.40939628  0.98822673  1
  O2-  O190  1  0.55457012  0.78643794  0.46902697  1
  O2-  O191  1  0.56067207  0.76649902  0.97281349  1
  O2-  O192  1  0.90139696  0.11918838  0.46271958  1
  O2-  O193  1  0.90763893  0.13402470  0.97162922  1
  O2-  O194  1  0.87780742  0.43192241  0.47106284  1
  O2-  O195  1  0.89515821  0.44677239  0.97025937  1
  O2-  O196  1  0.90691253  0.78022200  0.46977983  1
  O2-  O197  1  0.87005981  0.77090213  0.96921176  1
  O2-  O198  1  0.11446585  0.21308369  0.05183343  1
  O2-  O199  1  0.11124830  0.21729012  0.54097372  1
  O2-  O200  1  0.11734922  0.57503584  0.01827000  1
  O2-  O201  1  0.11341339  0.55706339  0.53048139  1
  O2-  O202  1  0.06961556  0.89301340  0.03685397  1
  O2-  O203  1  0.12558261  0.89134528  0.53176602  1
  O2-  O204  1  0.46506322  0.18701765  0.05708250  1
  O2-  O205  1  0.44828205  0.22121061  0.52802327  1
  O2-  O206  1  0.46131777  0.54433440  0.00171051  1
  O2-  O207  1  0.44314786  0.56121819  0.51937333  1
  O2-  O208  1  0.44777526  0.86796471  0.03574572  1
  O2-  O209  1  0.43691878  0.88541133  0.52590304  1
  O2-  O210  1  0.79427805  0.23241553  0.03247385  1
  O2-  O211  1  0.76807293  0.19429528  0.52788391  1
  O2-  O212  1  0.78287692  0.55340347  0.03849926  1
  O2-  O213  1  0.77120961  0.54884012  0.51867164  1
  O2-  O214  1  0.78015332  0.93409210  0.04663501  1
  O2-  O215  1  0.78022174  0.89002188  0.52212053  1
