# generated using pymatgen
data_H2O
_symmetry_space_group_name_H-M   'P 1'
_cell_length_a   13.49775969
_cell_length_b   13.49587874
_cell_length_c   14.69444339
_cell_angle_alpha   89.97833666
_cell_angle_beta   90.02648618
_cell_angle_gamma   119.94257014
_symmetry_Int_Tables_number   1
_chemical_formula_structural   H2O
_chemical_formula_sum   'H144 O72'
_cell_volume   2319.51729226
_cell_formula_units_Z   72
loop_
 _symmetry_equiv_pos_site_id
 _symmetry_equiv_pos_as_xyz
  1  'x, y, z'
loop_
 _atom_type_symbol
 _atom_type_oxidation_number
  H+  1.0
  O2-  -2.0
loop_
 _atom_site_type_symbol
 _atom_site_label
 _atom_site_symmetry_multiplicity
 _atom_site_fract_x
 _atom_site_fract_y
 _atom_site_fract_z
 _atom_site_occupancy
  H+  H0  1  0.48859959  0.46681957  0.45967930  1
  H+  H1  1  0.81182072  0.62002547  0.24163142  1
  H+  H2  1  0.17220510  0.74028035  0.72743116  1
  H+  H3  1  0.81366378  0.50730988  0.76834888  1
  H+  H4  1  0.84173779  1.02315641  0.00060434  1
  H+  H5  1  0.18529064  0.35204591  0.99327385  1
  H+  H6  1  0.35837947  0.83861824  0.25408226  1
  H+  H7  1  0.48069528  0.63092091  0.51041647  1
  H+  H8  1  0.83324867  0.51331414  0.01492873  1
  H+  H9  1  0.46226119  0.16963491  0.23100010  1
  H+  H10  1  0.17870064  0.69337855  0.26958912  1
  H+  H11  1  0.37235362  0.85948528  0.71533491  1
  H+  H12  1  0.46910579  0.96010039  0.26271350  1
  H+  H13  1  0.13271435  0.30615243  0.26527868  1
  H+  H14  1  0.16187319  0.86177754  0.49707326  1
  H+  H15  1  0.53934325  0.42612194  0.32295668  1
  H+  H16  1  0.13386033  0.89213551  0.72033053  1
  H+  H17  1  0.14173930  0.56965706  0.74934999  1
  H+  H18  1  -0.05622931  0.12315242  0.76452975  1
  H+  H19  1  0.13325176  0.95952798  0.24739757  1
  H+  H20  1  0.12315560  0.14709831  0.05757758  1
  H+  H21  1  0.09039878  0.88894718  0.11763203  1
  H+  H22  1  0.80751603  0.84990052  0.74953874  1
  H+  H23  1  0.52069780  0.35998332  -0.00576913  1
  H+  H24  1  0.91518901  0.45418232  0.38228042  1
  H+  H25  1  0.81452893  0.18233107  0.74722072  1
  H+  H26  1  0.31905998  0.14538918  0.47146972  1
  H+  H27  1  0.03252932  0.52792633  0.25375048  1
  H+  H28  1  0.84737735  0.36215113  0.76874347  1
  H+  H29  1  0.14461654  0.25369254  0.73920130  1
  H+  H30  1  0.17528473  0.48878203  0.26995088  1
  H+  H31  1  0.76342574  0.25889489  0.25449999  1
  H+  H32  1  0.80838849  -0.02625504  0.51466845  1
  H+  H33  1  0.18222686  0.36367221  0.50519039  1
  H+  H34  1  0.44476520  0.28838044  0.72333668  1
  H+  H35  1  1.08052684  0.23373199  0.17686845  1
  H+  H36  1  0.76974292  0.87877218  0.16596123  1
  H+  H37  1  0.64153253  0.46201983  0.24184916  1
  H+  H38  1  0.60589643  0.46693119  0.45152571  1
  H+  H39  1  0.35814133  0.51650754  0.24962493  1
  H+  H40  1  0.96381217  0.15364166  0.49559501  1
  H+  H41  1  0.88415437  0.76543668  0.56252709  1
  H+  H42  1  0.16901432  0.14908125  0.25661900  1
  H+  H43  1  0.76975572  0.88942501  0.65776578  1
  H+  H44  1  0.50311370  0.80313490  0.75212230  1
  H+  H45  1  0.82818277  0.80181750  0.26299841  1
  H+  H46  1  0.82947775  1.01792394  0.27546287  1
  H+  H47  1  0.82025043  0.01454715  0.76724250  1
  H+  H48  1  0.81718552  0.31163720  0.51283652  1
  H+  H49  1  0.21755637  0.16826085  0.92290530  1
  H+  H50  1  0.30723786  0.13003703  0.78321046  1
  H+  H51  1  0.36399604  0.85395894  0.04244872  1
  H+  H52  1  0.48904168  0.83579514  0.50176998  1
  H+  H53  1  0.16112465  0.98000816  0.48867430  1
  H+  H54  1  0.54677522  0.77806294  0.90721643  1
  H+  H55  1  0.17208112  0.80972511  0.26750436  1
  H+  H56  1  0.36872266  0.84708200  0.50058894  1
  H+  H57  1  0.63630003  0.48208944  0.99619095  1
  H+  H58  1  0.62904178  0.81270666  0.49094163  1
  H+  H59  1  0.49751663  -0.03232236  0.72881427  1
  H+  H60  1  0.78418009  0.59799841  0.50268596  1
  H+  H61  1  0.28597446  0.14709143  0.23967266  1
  H+  H62  1  0.59848166  0.19131943  0.50972196  1
  H+  H63  1  0.82959394  0.64277023  0.01334004  1
  H+  H64  1  0.48919170  0.28515973  0.48672605  1
  H+  H65  1  0.48134847  0.51496224  1.01608705  1
  H+  H66  1  0.19691530  0.70925852  0.49048392  1
  H+  H67  1  0.02935120  0.50929181  0.49986568  1
  H+  H68  1  0.50717114  0.33501485  0.23137736  1
  H+  H69  1  0.50617958  0.68693262  0.26613343  1
  H+  H70  1  0.59734275  0.13089028  0.27075586  1
  H+  H71  1  0.90046386  0.39481602  0.25189448  1
  H+  H72  1  0.83053728  0.50852634  0.24036300  1
  H+  H73  1  0.63663717  0.14435865  0.99272573  1
  H+  H74  1  0.17363714  0.19266627  0.49514497  1
  H+  H75  1  0.02973195  0.14372505  -0.01033662  1
  H+  H76  1  0.80102143  0.83706165  1.02425481  1
  H+  H77  1  0.16044166  0.49572051  0.51539733  1
  H+  H78  1  1.01410809  0.83869033  0.24881127  1
  H+  H79  1  0.95471725  0.80852817  1.00393752  1
  H+  H80  1  0.78088558  0.15124308  0.25327923  1
  H+  H81  1  0.68652853  0.83508559  0.25282428  1
  H+  H82  1  0.63571351  0.48590394  0.77760233  1
  H+  H83  1  0.81121600  0.85706904  0.51186970  1
  H+  H84  1  0.84372635  0.70467732  0.77938725  1
  H+  H85  1  0.62254649  0.80758950  0.76022675  1
  H+  H86  1  0.13022895  0.96192637  0.02355246  1
  H+  H87  1  0.37563958  0.49886638  0.75312953  1
  H+  H88  1  0.63200080  0.13980438  0.76225519  1
  H+  H89  1  0.14686801  0.63758804  1.02139429  1
  H+  H90  1  0.30011943  0.49133110  0.50821995  1
  H+  H91  1  0.49485126  0.18188575  0.00265855  1
  H+  H92  1  0.86771379  0.48728270  0.47042104  1
  H+  H93  1  0.52113456  0.12278487  0.35728511  1
  H+  H94  1  0.84977394  0.36684976  1.00292929  1
  H+  H95  1  0.16751756  0.82415277  1.02580123  1
  H+  H96  1  0.51176934  0.49881518  0.76738345  1
  H+  H97  1  0.88894078  0.44238386  0.85926825  1
  H+  H98  1  0.01150062  0.53056951  0.74127847  1
  H+  H99  1  -0.02957635  0.48707740  0.00123316  1
  H+  H100  1  0.48753306  0.62940738  0.74885982  1
  H+  H101  1  0.19951093  0.43527021  0.76383119  1
  H+  H102  1  0.82551031  0.18560165  0.01371425  1
  H+  H103  1  0.97788634  0.82364738  0.49053018  1
  H+  H104  1  0.51745577  0.02753328  1.00299069  1
  H+  H105  1  0.15013086  0.52009755  1.01216558  1
  H+  H106  1  0.23260626  0.78320571  0.39839796  1
  H+  H107  1  0.79832917  0.18773840  0.51917929  1
  H+  H108  1  0.45386598  0.89111012  0.12145108  1
  H+  H109  1  0.04901066  0.26148788  0.68807071  1
  H+  H110  1  0.10020439  0.55261315  0.59942413  1
  H+  H111  1  0.07915470  0.90139121  0.63116889  1
  H+  H112  1  0.11640903  0.56224353  0.16520202  1
  H+  H113  1  0.44972582  0.54719466  0.59652306  1
  H+  H114  1  0.54932008  0.08695003  0.84695117  1
  H+  H115  1  0.51211887  0.81018850  0.27026895  1
  H+  H116  1  0.87534828  0.09397311  0.90688411  1
  H+  H117  1  0.72043810  0.47645905  0.55182294  1
  H+  H118  1  0.86692600  0.75862042  0.34897936  1
  H+  H119  1  0.54987804  0.44527300  0.86743999  1
  H+  H120  1  0.78064424  0.56110096  0.68639687  1
  H+  H121  1  0.77340112  0.21358020  0.10111797  1
  H+  H122  1  0.23435764  0.11603146  0.38543258  1
  H+  H123  1  0.43497330  0.21252800  0.13426998  1
  H+  H124  1  0.11777938  0.21001604  0.58540750  1
  H+  H125  1  0.43617563  0.55699394  0.16148588  1
  H+  H126  1  0.38802412  0.19949581  -0.01989824  1
  H+  H127  1  0.23568228  0.80839515  0.94624762  1
  H+  H128  1  0.22862437  0.83662487  0.80128923  1
  H+  H129  1  0.50755949  0.81394538  -0.00106668  1
  H+  H130  1  0.23641032  0.41481175  0.86065629  1
  H+  H131  1  0.47698114  0.63128814  0.01107119  1
  H+  H132  1  0.79086004  0.55527163  0.11158217  1
  H+  H133  1  0.45348336  0.88726977  0.59628047  1
  H+  H134  1  0.95533235  0.82703993  0.76275862  1
  H+  H135  1  0.77918139  0.23247654  0.66040084  1
  H+  H136  1  0.68662461  0.84353625  0.02442441  1
  H+  H137  1  0.87927532  0.77106097  0.91173263  1
  H+  H138  1  0.30101326  0.47337250  0.99592558  1
  H+  H139  1  0.94273566  0.14208379  0.27641427  1
  H+  H140  1  0.87473068  0.11095470  0.41413912  1
  H+  H141  1  0.54937765  0.76690863  0.40012867  1
  H+  H142  1  0.21418756  0.45077108  0.36024853  1
  H+  H143  1  0.41323544  0.20703753  0.63961959  1
  O2-  O144  1  0.08831079  0.22447163  0.24187535  1
  O2-  O145  1  0.07661871  0.20828115  0.70060422  1
  O2-  O146  1  0.11797409  0.56410639  0.23256325  1
  O2-  O147  1  0.08858178  0.58086105  0.71161043  1
  O2-  O148  1  0.09440646  0.87852955  0.22530727  1
  O2-  O149  1  0.06876680  0.89858467  0.69800554  1
  O2-  O150  1  0.43098303  0.21677122  0.20283330  1
  O2-  O151  1  0.38032076  0.22419204  0.69309357  1
  O2-  O152  1  0.43850808  0.55944683  0.22880561  1
  O2-  O153  1  0.45657757  0.54625136  0.72932252  1
  O2-  O154  1  0.44131287  0.88196724  0.23769707  1
  O2-  O155  1  0.45363051  0.88799372  0.69831881  1
  O2-  O156  1  0.73495116  0.18429806  0.22564282  1
  O2-  O157  1  0.78253577  0.23200899  0.72841139  1
  O2-  O158  1  0.78069096  0.54157940  0.21433970  1
  O2-  O159  1  0.77265441  0.55155392  0.75226366  1
  O2-  O160  1  0.76955737  0.87740725  0.23408956  1
  O2-  O161  1  0.76194538  0.88417214  0.72535092  1
  O2-  O162  1  0.20950876  0.10603141  0.26958920  1
  O2-  O163  1  0.26941712  0.08830296  0.84082165  1
  O2-  O164  1  0.21025807  0.44247185  0.29358624  1
  O2-  O165  1  0.24603630  0.40731211  0.79255397  1
  O2-  O166  1  0.21779138  0.77595445  0.29110246  1
  O2-  O167  1  0.22962724  0.82189231  0.73646770  1
  O2-  O168  1  0.51738066  0.10327671  0.29151020  1
  O2-  O169  1  0.55213234  0.08481892  0.77965420  1
  O2-  O170  1  0.55629171  0.42030418  0.25579526  1
  O2-  O171  1  0.55275838  0.45075147  0.79698663  1
  O2-  O172  1  0.55164051  0.76840072  0.29166862  1
  O2-  O173  1  0.54058751  0.76253604  0.78014350  1
  O2-  O174  1  0.86162518  0.09871874  0.29719756  1
  O2-  O175  1  0.86664730  0.09544129  0.79044493  1
  O2-  O176  1  0.90823448  0.46295927  0.28147556  1
  O2-  O177  1  0.88542562  0.44470146  0.79142776  1
  O2-  O178  1  0.86932719  0.75910166  0.28237613  1
  O2-  O179  1  0.88068935  0.78587997  0.79795754  1
  O2-  O180  1  0.23814970  0.11806771  0.45345284  1
  O2-  O181  1  0.29406270  0.18724515  0.89956905  1
  O2-  O182  1  0.21569096  0.44914599  0.49065036  1
  O2-  O183  1  0.22114962  0.43101211  0.96972501  1
  O2-  O184  1  0.24045289  0.78842261  0.46786973  1
  O2-  O185  1  0.21420502  0.78718759  1.00955170  1
  O2-  O186  1  0.52758277  0.16254828  0.47267072  1
  O2-  O187  1  0.55542829  0.10426273  0.97302577  1
  O2-  O188  1  0.52475527  0.42584376  0.43103452  1
  O2-  O189  1  0.55725355  0.44293672  0.97303092  1
  O2-  O190  1  0.54748099  0.76828450  0.47000141  1
  O2-  O191  1  0.54836731  0.77478841  0.97475325  1
  O2-  O192  1  0.88094582  0.11463045  0.48218090  1
  O2-  O193  1  0.88806684  0.10153032  0.97446305  1
  O2-  O194  1  0.91570059  0.45360663  0.45476123  1
  O2-  O195  1  0.88786597  0.44849267  0.98025191  1
  O2-  O196  1  0.89138876  0.77488176  0.49644323  1
  O2-  O197  1  0.87489633  0.75951785  0.97998977  1
  O2-  O198  1  0.11457576  0.17816953  0.00009042  1
  O2-  O199  1  0.12906987  0.22842172  0.51938083  1
  O2-  O200  1  0.10588858  0.55456123  0.03705687  1
  O2-  O201  1  0.11050061  0.54630384  0.53221008  1
  O2-  O202  1  0.08789811  0.88428379  0.04785632  1
  O2-  O203  1  0.11619368  0.89901006  0.51109121  1
  O2-  O204  1  0.45562515  0.22556914  0.02209783  1
  O2-  O205  1  0.46041432  0.20859341  0.51578217  1
  O2-  O206  1  0.43615472  0.55103331  0.03479830  1
  O2-  O207  1  0.43669727  0.54844206  0.53031066  1
  O2-  O208  1  0.44726909  0.88990367  0.05328769  1
  O2-  O209  1  0.45095784  0.88159253  0.52489464  1
  O2-  O210  1  0.78546626  0.22703128  0.03465650  1
  O2-  O211  1  0.76722029  0.23621105  0.54137307  1
  O2-  O212  1  0.79260818  0.55771589  0.03975212  1
  O2-  O213  1  0.74425250  0.51448995  0.49271413  1
  O2-  O214  1  0.76683158  0.88177454  0.04822570  1
  O2-  O215  1  0.76654423  0.89157085  0.53513319  1
