# generated using pymatgen
data_H2O
_symmetry_space_group_name_H-M   'P 1'
_cell_length_a   13.51192320
_cell_length_b   13.51918673
_cell_length_c   14.69799753
_cell_angle_alpha   89.92574597
_cell_angle_beta   90.08690297
_cell_angle_gamma   120.06252016
_symmetry_Int_Tables_number   1
_chemical_formula_structural   H2O
_chemical_formula_sum   'H144 O72'
_cell_volume   2323.71042087
_cell_formula_units_Z   72
loop_
 _symmetry_equiv_pos_site_id
 _symmetry_equiv_pos_as_xyz
  1  'x, y, z'
loop_
 _atom_type_symbol
 _atom_type_oxidation_number
  H+  1.0
  O2-  -2.0
loop_
 _atom_site_type_symbol
 _atom_site_label
 _atom_site_symmetry_multiplicity
 _atom_site_fract_x
 _atom_site_fract_y
 _atom_site_fract_z
 _atom_site_occupancy
  H+  H0  1  0.52812142  0.11450765  0.29312361  1
  H+  H1  1  0.95749335  0.45459229  0.78686106  1
  H+  H2  1  0.45605937  0.18271276  0.20092508  1
  H+  H3  1  0.30792740  0.81083758  0.25168626  1
  H+  H4  1  0.84258116  0.43709790  1.01209593  1
  H+  H5  1  0.18139031  0.49206651  -0.00409292  1
  H+  H6  1  0.70310241  0.53879182  0.72664969  1
  H+  H7  1  0.92070785  0.76302722  0.97569117  1
  H+  H8  1  0.70275919  0.18856559  0.54440464  1
  H+  H9  1  0.34967951  0.17163094  0.51023957  1
  H+  H10  1  0.76165133  0.96191335  0.17809009  1
  H+  H11  1  0.52007553  0.80056292  0.49655900  1
  H+  H12  1  0.31272103  0.82577128  0.49005994  1
  H+  H13  1  0.70406824  0.49415387  0.01423020  1
  H+  H14  1  0.49079859  0.62957067  0.50548119  1
  H+  H15  1  0.84096818  0.64882588  0.51358873  1
  H+  H16  1  0.76447256  0.18358145  0.27430293  1
  H+  H17  1  0.50507792  0.46678517  0.49235760  1
  H+  H18  1  0.19490721  0.31299610  1.00928225  1
  H+  H19  1  0.50613389  0.48108346  0.25601882  1
  H+  H20  1  0.18107501  0.81238280  0.76646879  1
  H+  H21  1  0.83694200  0.68779212  0.26426874  1
  H+  H22  1  0.07752183  0.19565712  0.26411319  1
  H+  H23  1  0.16738779  0.64714565  0.50183949  1
  H+  H24  1  0.17089667  0.02757764  0.49008859  1
  H+  H25  1  0.37233606  0.75168560  0.59173028  1
  H+  H26  1  0.83032653  0.65649891  0.73444273  1
  H+  H27  1  0.80827968  0.31250817  0.24787355  1
  H+  H28  1  0.97139101  0.15133595  0.51885050  1
  H+  H29  1  0.89233714  0.77787853  0.40363040  1
  H+  H30  1  0.62138203  0.80880352  0.96586541  1
  H+  H31  1  0.08171836  0.90621769  0.00499394  1
  H+  H32  1  0.82902365  1.00805908  -0.02887154  1
  H+  H33  1  0.21138529  0.24875884  0.24651842  1
  H+  H34  1  0.84867899  0.15657498  0.75980622  1
  H+  H35  1  0.83147245  0.58689226  0.02413699  1
  H+  H36  1  0.53098397  0.94297652  0.75992804  1
  H+  H37  1  0.14732211  0.18197431  0.52236871  1
  H+  H38  1  0.88295652  0.10510827  0.86087293  1
  H+  H39  1  0.51109383  0.15044037  0.54825468  1
  H+  H40  1  0.50764386  0.03007820  0.99126764  1
  H+  H41  1  0.47087517  0.16041209  0.73869197  1
  H+  H42  1  0.81870172  0.18391074  0.52382842  1
  H+  H43  1  0.46171754  0.64390749  0.73398545  1
  H+  H44  1  0.81918752  0.28557618  0.76001396  1
  H+  H45  1  0.88774689  0.01732502  0.28039397  1
  H+  H46  1  0.51764731  0.81691413  0.25353104  1
  H+  H47  1  0.85163304  0.81151763  0.25390026  1
  H+  H48  1  0.51378585  0.43867681  0.87039141  1
  H+  H49  1  0.36946877  0.53099120  0.24448435  1
  H+  H50  1  0.90352504  0.13849326  0.27503889  1
  H+  H51  1  0.50704959  0.14879398  0.98334324  1
  H+  H52  1  0.82031106  0.96333760  0.51938799  1
  H+  H53  1  0.46549657  0.52165896  0.00283942  1
  H+  H54  1  0.32986483  0.19647581  0.78120688  1
  H+  H55  1  0.97928444  0.16099836  0.76891729  1
  H+  H56  1  0.33642974  0.17250211  0.21933687  1
  H+  H57  1  -0.02180858  0.48572725  0.49541853  1
  H+  H58  1  0.18931430  0.82370494  0.99758815  1
  H+  H59  1  0.17931866  0.69879653  1.00020666  1
  H+  H60  1  1.02878462  0.82489638  0.24329903  1
  H+  H61  1  0.15994698  0.85570303  0.50677430  1
  H+  H62  1  1.03062452  0.50374375  1.02289925  1
  H+  H63  1  0.27367022  0.13115287  -0.06866117  1
  H+  H64  1  0.83011461  0.12668695  0.98164711  1
  H+  H65  1  0.18397761  0.36335810  0.50034259  1
  H+  H66  1  0.15140588  0.82826130  0.24381267  1
  H+  H67  1  0.47701449  0.95899732  0.21662881  1
  H+  H68  1  0.85088099  0.32474989  0.00717839  1
  H+  H69  1  0.98668764  0.82691405  0.74944929  1
  H+  H70  1  0.68020480  0.50445428  0.25371346  1
  H+  H71  1  0.45073103  0.28537523  0.97767336  1
  H+  H72  1  0.03789705  0.84916868  0.51105464  1
  H+  H73  1  0.83843787  0.48225981  0.27441354  1
  H+  H74  1  0.14160431  0.08894606  0.23944071  1
  H+  H75  1  0.13891235  0.64383694  0.74844239  1
  H+  H76  1  0.88396231  0.44095395  0.35928821  1
  H+  H77  1  0.61323233  0.15975136  0.21329448  1
  H+  H78  1  0.50007594  0.69698143  -0.02051203  1
  H+  H79  1  0.43787189  0.56369509  0.64667092  1
  H+  H80  1  0.81829844  0.84671268  0.98451555  1
  H+  H81  1  0.85724118  0.36848248  0.50440116  1
  H+  H82  1  0.52148683  0.70034034  0.25670229  1
  H+  H83  1  0.82654143  0.96251959  0.73995809  1
  H+  H84  1  1.02668527  0.51694035  0.25208189  1
  H+  H85  1  0.13270260  0.90588566  0.64989446  1
  H+  H86  1  0.84041301  0.52625549  0.52113936  1
  H+  H87  1  0.18888996  0.48495017  0.49580422  1
  H+  H88  1  0.16964206  0.97477016  0.74504108  1
  H+  H89  1  0.46858659  0.29115962  0.51154678  1
  H+  H90  1  0.70338466  0.84248387  0.51016648  1
  H+  H91  1  0.18673982  0.69360233  0.26327084  1
  H+  H92  1  0.38862968  0.37118287  0.90564529  1
  H+  H93  1  0.68793527  0.85095853  0.23633708  1
  H+  H94  1  0.47831536  0.85754696  0.62963010  1
  H+  H95  1  0.62698494  0.12597521  0.76312737  1
  H+  H96  1  0.14814699  0.52048275  0.25443824  1
  H+  H97  1  0.35930587  0.84660072  0.00398774  1
  H+  H98  1  0.51771782  0.49998378  0.73719784  1
  H+  H99  1  0.14377786  0.31338837  0.75133047  1
  H+  H100  1  0.49431537  0.35792376  0.24675418  1
  H+  H101  1  0.47958657  0.84988667  -0.00301573  1
  H+  H102  1  0.36750246  0.51425894  0.50953471  1
  H+  H103  1  0.68273872  0.16208431  0.01384158  1
  H+  H104  1  0.35525301  0.52994283  1.01273092  1
  H+  H105  1  0.51798106  0.03742761  0.55337973  1
  H+  H106  1  0.17397905  0.49020363  0.75695138  1
  H+  H107  1  0.19371280  0.39105631  0.26665231  1
  H+  H108  1  0.13605361  0.57454173  0.59417031  1
  H+  H109  1  0.53328923  0.42169014  0.40208720  1
  H+  H110  1  0.85435303  0.81753965  0.49388871  1
  H+  H111  1  0.43994469  0.87291395  0.13522307  1
  H+  H112  1  0.11076565  0.55562429  0.10994130  1
  H+  H113  1  0.59477955  0.11897740  0.39556203  1
  H+  H114  1  0.76194480  0.86113482  0.07491291  1
  H+  H115  1  0.24064939  0.78892795  0.39650735  1
  H+  H116  1  0.44249854  0.56317262  0.15145942  1
  H+  H117  1  0.22151236  0.45935212  0.90312673  1
  H+  H118  1  0.15993317  0.20722244  0.76584317  1
  H+  H119  1  0.79648957  0.57547424  0.62617286  1
  H+  H120  1  0.14505457  0.22599889  0.08761706  1
  H+  H121  1  0.17242384  -0.00446807  0.25797116  1
  H+  H122  1  0.20172269  0.10228830  0.39975704  1
  H+  H123  1  0.42896895  0.20402170  0.65345746  1
  H+  H124  1  0.02782839  0.56255343  0.68758585  1
  H+  H125  1  0.78888835  0.21755268  0.66330131  1
  H+  H126  1  0.60462994  0.17928748  0.39587541  1
  H+  H127  1  0.92121878  0.81501816  0.87958816  1
  H+  H128  1  0.90309746  0.10763873  0.42705459  1
  H+  H129  1  0.40724816  0.21283796  0.06750305  1
  H+  H130  1  0.76453804  0.53823929  0.16917486  1
  H+  H131  1  0.87983099  0.40545129  0.87365723  1
  H+  H132  1  0.52477252  0.38450607  0.73347839  1
  H+  H133  1  0.76281084  0.19173241  0.10349333  1
  H+  H134  1  0.54941757  0.09041786  0.85106823  1
  H+  H135  1  0.50558954  0.78427453  0.84055822  1
  H+  H136  1  0.23180963  0.46023216  0.35935479  1
  H+  H137  1  0.86621690  0.82849725  0.75072419  1
  H+  H138  1  0.29391326  0.49339700  0.75536067  1
  H+  H139  1  0.56189502  0.77773077  0.39953719  1
  H+  H140  1  0.12512180  0.89304839  0.10229108  1
  H+  H141  1  0.11666061  0.22547202  0.61535904  1
  H+  H142  1  0.21036188  0.76593528  0.85711486  1
  H+  H143  1  0.78574368  0.88125837  0.65354789  1
  O2-  O144  1  0.14425008  0.25417878  0.22957666  1
  O2-  O145  1  0.10780315  0.22994331  0.73518099  1
  O2-  O146  1  0.10636835  0.55820499  0.22848812  1
  O2-  O147  1  0.09522454  0.56469091  0.71416198  1
  O2-  O148  1  0.10910115  0.86717889  0.22114960  1
  O2-  O149  1  0.12734204  0.89867985  0.71784039  1
  O2-  O150  1  0.41260937  0.22352579  0.19199428  1
  O2-  O151  1  0.44003429  0.21060366  0.72120685  1
  O2-  O152  1  0.44876207  0.56470386  0.21957263  1
  O2-  O153  1  0.43489944  0.56378997  0.71529312  1
  O2-  O154  1  0.44317145  0.87616801  0.20441758  1
  O2-  O155  1  0.54382880  0.88268488  0.73041062  1
  O2-  O156  1  0.76473996  0.23065412  0.22393229  1
  O2-  O157  1  0.78413759  0.20603320  0.73122788  1
  O2-  O158  1  0.76403140  0.54685272  0.23596899  1
  O2-  O159  1  0.78567357  0.57675164  0.70741226  1
  O2-  O160  1  0.76737761  0.90010847  0.20755688  1
  O2-  O161  1  0.79472781  0.88265151  0.72093702  1
  O2-  O162  1  0.19885102  0.07897461  0.27251722  1
  O2-  O163  1  0.27135639  0.20384331  0.81946856  1
  O2-  O164  1  0.23224879  0.47023882  0.29157517  1
  O2-  O165  1  0.21441675  0.45219408  0.78106763  1
  O2-  O166  1  0.23166946  0.77600692  0.28277678  1
  O2-  O167  1  0.20512556  0.75876822  0.78931227  1
  O2-  O168  1  0.53010864  0.11135571  0.22649083  1
  O2-  O169  1  0.54720369  0.07667961  0.78407382  1
  O2-  O170  1  0.54085751  0.43437186  0.27598381  1
  O2-  O171  1  0.56325977  0.46363868  0.75712136  1
  O2-  O172  1  0.56246104  0.78213238  0.27876327  1
  O2-  O173  1  0.46841555  0.77500501  0.77919518  1
  O2-  O174  1  0.93588728  0.09607652  0.30423952  1
  O2-  O175  1  0.89409085  0.11552122  0.78600207  1
  O2-  O176  1  0.87999972  0.44068102  0.29112442  1
  O2-  O177  1  0.87759376  0.40712841  0.80573989  1
  O2-  O178  1  0.88597842  0.77031316  0.28244267  1
  O2-  O179  1  0.90691001  0.78612889  0.77401652  1
  O2-  O180  1  0.20438879  0.10791861  0.46689906  1
  O2-  O181  1  0.22314083  0.10079898  0.87701774  1
  O2-  O182  1  0.22659775  0.44203950  0.47372332  1
  O2-  O183  1  0.22694724  0.45870171  0.97050205  1
  O2-  O184  1  0.23470166  0.78870339  0.46499667  1
  O2-  O185  1  0.22268339  0.77669680  0.97321047  1
  O2-  O186  1  0.56183399  0.11912146  0.56504798  1
  O2-  O187  1  0.55333837  0.11113218  0.96963022  1
  O2-  O188  1  0.53417706  0.41734549  0.46917223  1
  O2-  O189  1  0.46776895  0.41417136  0.92775246  1
  O2-  O190  1  0.56611952  0.77073602  0.46680694  1
  O2-  O191  1  0.53906124  0.77493976  0.95055741  1
  O2-  O192  1  0.89141589  0.10899321  0.49310971  1
  O2-  O193  1  0.86967284  0.08987849  0.95155091  1
  O2-  O194  1  0.89602335  0.44786424  0.47797425  1
  O2-  O195  1  0.89141840  0.40766357  0.98889495  1
  O2-  O196  1  0.89743162  0.77931212  0.47125511  1
  O2-  O197  1  0.92652811  0.83106522  0.94798752  1
  O2-  O198  1  0.19007773  0.24218737  0.03217407  1
  O2-  O199  1  0.11137858  0.22533502  0.54750175  1
  O2-  O200  1  0.11123538  0.55613795  0.04201516  1
  O2-  O201  1  0.12988272  0.56744458  0.52681837  1
  O2-  O202  1  0.14719117  0.91023334  0.03741281  1
  O2-  O203  1  0.11903984  0.89354450  0.53257395  1
  O2-  O204  1  0.42071861  0.20695406  0.00192321  1
  O2-  O205  1  0.42678360  0.21071418  0.53827971  1
  O2-  O206  1  0.43800953  0.56861893  0.03375013  1
  O2-  O207  1  0.44696056  0.55270615  0.53466872  1
  O2-  O208  1  0.44138757  0.88921479  0.02563972  1
  O2-  O209  1  0.43243769  0.82670841  0.57134893  1
  O2-  O210  1  0.76338429  0.18936537  0.03642631  1
  O2-  O211  1  0.78882541  0.23239200  0.54871632  1
  O2-  O212  1  0.77318778  0.51401702  0.04909083  1
  O2-  O213  1  0.80473870  0.57135085  0.54393542  1
  O2-  O214  1  0.76190825  0.86843235  0.00829808  1
  O2-  O215  1  0.78322123  0.88036004  0.53486957  1
