# generated using pymatgen
data_H2O
_symmetry_space_group_name_H-M   'P 1'
_cell_length_a   13.49838115
_cell_length_b   13.49640971
_cell_length_c   14.67558285
_cell_angle_alpha   89.98533248
_cell_angle_beta   90.02490407
_cell_angle_gamma   119.95872342
_symmetry_Int_Tables_number   1
_chemical_formula_structural   H2O
_chemical_formula_sum   'H144 O72'
_cell_volume   2316.36169844
_cell_formula_units_Z   72
loop_
 _symmetry_equiv_pos_site_id
 _symmetry_equiv_pos_as_xyz
  1  'x, y, z'
loop_
 _atom_type_symbol
 _atom_type_oxidation_number
  H+  1.0
  O2-  -2.0
loop_
 _atom_site_type_symbol
 _atom_site_label
 _atom_site_symmetry_multiplicity
 _atom_site_fract_x
 _atom_site_fract_y
 _atom_site_fract_z
 _atom_site_occupancy
  H+  H0  1  0.52992642  0.14657751  0.25113173  1
  H+  H1  1  0.61071002  0.48068366  -0.03584055  1
  H+  H2  1  0.18036451  0.69380462  0.25318187  1
  H+  H3  1  0.15567492  0.85158748  0.53254691  1
  H+  H4  1  0.91810182  0.42639688  0.53328029  1
  H+  H5  1  0.81122894  0.31455873  0.50070683  1
  H+  H6  1  0.14163184  0.17809301  0.24031213  1
  H+  H7  1  0.28460295  0.12732840  0.75893172  1
  H+  H8  1  0.86073111  0.69058649  0.47591759  1
  H+  H9  1  0.02142963  0.16591226  0.74797830  1
  H+  H10  1  0.60121294  0.12942397  0.48495966  1
  H+  H11  1  0.18202797  0.15839955  0.47884798  1
  H+  H12  1  0.18250471  0.43003328  0.93022742  1
  H+  H13  1  0.51723058  1.03225843  0.76664685  1
  H+  H14  1  0.25802963  0.45589990  0.76117181  1
  H+  H15  1  0.95558756  0.13592052  0.48951674  1
  H+  H16  1  0.64177579  0.82113047  0.49209553  1
  H+  H17  1  0.08212537  0.56323974  0.50149330  1
  H+  H18  1  0.39191127  0.87721952  0.52284268  1
  H+  H19  1  0.57303753  0.70014196  0.79406998  1
  H+  H20  1  0.48053626  0.97157068  0.24114043  1
  H+  H21  1  0.82837394  0.96540780  0.49740467  1
  H+  H22  1  0.63455822  0.15207664  0.76376120  1
  H+  H23  1  0.80775259  0.49874382  0.49704602  1
  H+  H24  1  0.16509042  0.12535360  0.75890952  1
  H+  H25  1  0.09102104  0.85984428  0.67134505  1
  H+  H26  1  0.49108402  0.31736121  0.50975725  1
  H+  H27  1  0.50003762  0.64566470  0.50184069  1
  H+  H28  1  0.43774789  0.88699894  0.15337625  1
  H+  H29  1  0.55148708  0.39233953  0.25838433  1
  H+  H30  1  0.91149925  0.78652618  0.34137682  1
  H+  H31  1  0.84173909  0.64202944  0.72424418  1
  H+  H32  1  0.84225612  0.82112347  0.76961448  1
  H+  H33  1  0.68449004  0.86247479  0.76241618  1
  H+  H34  1  0.95590985  0.81175474  0.77254585  1
  H+  H35  1  0.86617898  0.69602315  0.25775383  1
  H+  H36  1  0.32015337  0.49031710  1.02156367  1
  H+  H37  1  0.87527431  0.09929835  0.39855385  1
  H+  H38  1  0.11818391  0.88570525  0.15213954  1
  H+  H39  1  0.30806877  0.17516118  0.47944084  1
  H+  H40  1  0.47335983  0.17795302  0.74008759  1
  H+  H41  1  0.14141340  0.31041747  0.01840930  1
  H+  H42  1  0.37392656  0.19252232  0.25734306  1
  H+  H43  1  0.97778182  0.15829005  1.00500311  1
  H+  H44  1  0.03456685  0.84705376  0.01510880  1
  H+  H45  1  0.64175840  0.82958035  0.26779032  1
  H+  H46  1  0.42514874  0.62213175  0.72826847  1
  H+  H47  1  0.81758626  0.29239966  0.02531923  1
  H+  H48  1  0.12432836  0.28174956  0.50970143  1
  H+  H49  1  0.65239944  0.14337264  0.24692108  1
  H+  H50  1  0.24289934  0.80642188  0.40670743  1
  H+  H51  1  0.86403648  0.49900099  0.27851602  1
  H+  H52  1  0.14363442  0.27384915  0.74468427  1
  H+  H53  1  0.67259701  0.51016697  0.25784353  1
  H+  H54  1  0.18004540  0.47894314  0.26302056  1
  H+  H55  1  0.11073353  0.56358096  0.16018754  1
  H+  H56  1  0.14741247  0.62245566  0.02696041  1
  H+  H57  1  0.85197143  0.81778835  1.00346909  1
  H+  H58  1  0.85328768  0.15229215  1.00957015  1
  H+  H59  1  0.87814748  0.49191370  0.74931063  1
  H+  H60  1  0.47523888  0.50750530  0.23861492  1
  H+  H61  1  0.49864611  0.85776887  0.52531697  1
  H+  H62  1  0.89867188  0.13053680  0.87317356  1
  H+  H63  1  -0.02918742  0.48098734  -0.00118470  1
  H+  H64  1  0.84678266  0.04713720  0.78802766  1
  H+  H65  1  1.13307150  0.94476894  0.75717366  1
  H+  H66  1  0.48555462  0.18552448  1.00041100  1
  H+  H67  1  0.95421317  0.14571064  0.26259375  1
  H+  H68  1  0.46698169  0.23226591  0.33211349  1
  H+  H69  1  0.42126168  0.50159392  0.73127058  1
  H+  H70  1  0.43574173  0.33730301  0.76152525  1
  H+  H71  1  0.15060307  -0.03142415  1.01368673  1
  H+  H72  1  0.53190446  0.83841299  0.99502460  1
  H+  H73  1  0.37000996  0.84879777  0.01509009  1
  H+  H74  1  0.86150278  0.80959005  0.47645568  1
  H+  H75  1  0.48735848  0.97102103  0.01657244  1
  H+  H76  1  0.18845602  0.81493960  0.99940414  1
  H+  H77  1  0.19065105  0.03816408  0.25620362  1
  H+  H78  1  0.19705890  0.41724904  0.40073614  1
  H+  H79  1  0.79299661  0.14741955  0.51516467  1
  H+  H80  1  0.17982786  0.82460499  0.24975451  1
  H+  H81  1  0.47697008  0.42003872  0.84914958  1
  H+  H82  1  0.29092783  0.46372669  0.26092492  1
  H+  H83  1  0.03603141  0.84291055  0.24185385  1
  H+  H84  1  0.80782904  0.63198834  0.00243088  1
  H+  H85  1  0.67323358  0.49643111  0.80735714  1
  H+  H86  1  0.30054899  0.81788541  0.76956557  1
  H+  H87  1  0.21919880  0.72905149  0.49421576  1
  H+  H88  1  1.04832465  0.51789599  0.72926758  1
  H+  H89  1  0.16111617  0.63914425  0.73821199  1
  H+  H90  1  0.13846830  0.49388900  0.02953419  1
  H+  H91  1  0.82712239  0.85202139  0.24240850  1
  H+  H92  1  0.64011219  0.14821501  1.00128732  1
  H+  H93  1  0.36510454  0.18174080  0.99981428  1
  H+  H94  1  0.44141741  0.49506091  0.00859769  1
  H+  H95  1  0.82005507  0.18737144  0.75446163  1
  H+  H96  1  0.03053710  0.83367883  0.52580363  1
  H+  H97  1  0.17677991  0.15074819  0.99408851  1
  H+  H98  1  0.82077458  0.96878237  0.24582369  1
  H+  H99  1  0.83207692  0.97589322  0.01883496  1
  H+  H100  1  0.65428104  0.84115004  0.99358349  1
  H+  H101  1  0.53085481  0.49947640  0.48596479  1
  H+  H102  1  1.03890873  0.53281606  0.25612936  1
  H+  H103  1  0.47720628  0.84330977  0.75238717  1
  H+  H104  1  0.31318420  0.82884513  0.24900435  1
  H+  H105  1  0.82017110  0.30346211  0.73931090  1
  H+  H106  1  0.18541293  0.47410688  0.49240490  1
  H+  H107  1  0.66906654  0.43989417  0.79826123  1
  H+  H108  1  0.20954219  0.10250240  0.90543426  1
  H+  H109  1  0.78674562  0.89283618  0.10640510  1
  H+  H110  1  0.22688981  0.12415215  0.34180888  1
  H+  H111  1  0.89548588  0.43765327  0.35932115  1
  H+  H112  1  0.83108265  0.14370943  0.25884270  1
  H+  H113  1  0.13599748  0.29348731  0.24265659  1
  H+  H114  1  0.17567778  0.80675485  0.77449631  1
  H+  H115  1  0.80563425  0.27806550  0.24323628  1
  H+  H116  1  0.41267985  0.52272346  0.15034198  1
  H+  H117  1  0.77451314  0.21079886  0.11819355  1
  H+  H118  1  0.56357992  0.78219773  0.87123855  1
  H+  H119  1  0.88310927  0.77548206  0.91181771  1
  H+  H120  1  0.27893725  0.38004512  0.82544767  1
  H+  H121  1  0.57390772  0.46252845  0.39582763  1
  H+  H122  1  0.83890157  0.57287777  0.17610036  1
  H+  H123  1  0.69981987  0.51772412  0.49711749  1
  H+  H124  1  0.43391231  0.21530546  0.64876309  1
  H+  H125  1  0.73738917  0.53396010  0.07463318  1
  H+  H126  1  0.81252949  0.88183552  0.58145796  1
  H+  H127  1  0.22562194  0.77085713  0.91230654  1
  H+  H128  1  0.85218792  0.47828471  0.98421694  1
  H+  H129  1  0.49955966  0.35725851  0.97823524  1
  H+  H130  1  0.48054304  0.19429595  0.50178308  1
  H+  H131  1  0.74777852  0.94218322  0.67896660  1
  H+  H132  1  0.56194303  0.79327644  0.40446044  1
  H+  H133  1  0.75828869  0.19075223  0.60625234  1
  H+  H134  1  0.43847597  0.55558068  0.58149226  1
  H+  H135  1  0.09045717  0.19850094  0.59773474  1
  H+  H136  1  0.52314142  0.82900029  0.26786394  1
  H+  H137  1  0.90543123  0.44499492  0.84221392  1
  H+  H138  1  0.44847270  0.88870474  0.66073445  1
  H+  H139  1  0.81541928  0.57149056  0.63041387  1
  H+  H140  1  0.54923562  0.11258549  0.38585919  1
  H+  H141  1  0.10590324  0.21696860  0.10170965  1
  H+  H142  1  0.56395924  0.11076922  0.90915880  1
  H+  H143  1  0.14083021  0.58064035  0.60080058  1
  O2-  O144  1  0.09457382  0.21228434  0.22014755  1
  O2-  O145  1  0.09742389  0.19472822  0.71791296  1
  O2-  O146  1  0.11898895  0.57707364  0.22969871  1
  O2-  O147  1  0.12687373  0.56533679  0.70428322  1
  O2-  O148  1  0.12036634  0.88301156  0.22064402  1
  O2-  O149  1  0.08936002  0.86162197  0.74092875  1
  O2-  O150  1  0.45922204  0.23272938  0.26606049  1
  O2-  O151  1  0.42394409  0.20753620  0.71658402  1
  O2-  O152  1  0.41113022  0.51766145  0.21913894  1
  O2-  O153  1  0.39090619  0.54712502  0.69915145  1
  O2-  O154  1  0.42968596  0.88740956  0.22171926  1
  O2-  O155  1  0.44217889  0.88752571  0.73093272  1
  O2-  O156  1  0.76826251  0.19984023  0.21912192  1
  O2-  O157  1  0.77616910  0.21974997  0.72353718  1
  O2-  O158  1  0.81156525  0.57262423  0.23736162  1
  O2-  O159  1  0.84082957  0.57617160  0.69471799  1
  O2-  O160  1  0.78277700  0.88858406  0.22068257  1
  O2-  O161  1  0.76298931  0.91363285  0.73514597  1
  O2-  O162  1  0.22759850  0.12020426  0.27207075  1
  O2-  O163  1  0.20600579  0.08719118  0.78581599  1
  O2-  O164  1  0.20831548  0.42845775  0.28463071  1
  O2-  O165  1  0.21613242  0.39200662  0.80473448  1
  O2-  O166  1  0.22571351  0.78369304  0.27300439  1
  O2-  O167  1  0.22163596  0.77101904  0.79481428  1
  O2-  O168  1  0.56350012  0.09890597  0.26892287  1
  O2-  O169  1  0.55477409  0.11322994  0.78820503  1
  O2-  O170  1  0.58945247  0.47311342  0.27774695  1
  O2-  O171  1  0.43334207  0.40278479  0.79012113  1
  O2-  O172  1  0.56579944  0.79646402  0.29761060  1
  O2-  O173  1  0.55864898  0.76391203  0.79893252  1
  O2-  O174  1  0.87421370  0.10350367  0.28637600  1
  O2-  O175  1  0.89464139  0.12915470  0.80383406  1
  O2-  O176  1  0.90488463  0.45367507  0.29356686  1
  O2-  O177  1  0.90672797  0.44129021  0.77437036  1
  O2-  O178  1  0.90855316  0.78521671  0.27328480  1
  O2-  O179  1  0.87316658  0.77403417  0.79317319  1
  O2-  O180  1  0.23280255  0.13532874  0.44806190  1
  O2-  O181  1  0.21318811  0.10516280  0.97337051  1
  O2-  O182  1  0.18596736  0.40661763  0.46803383  1
  O2-  O183  1  0.18411727  0.42877842  0.99694457  1
  O2-  O184  1  0.24850462  0.80972377  0.47350603  1
  O2-  O185  1  0.22938944  0.77399215  0.98056275  1
  O2-  O186  1  0.53562757  0.12349377  0.45095300  1
  O2-  O187  1  0.55954275  0.10775687  0.97704231  1
  O2-  O188  1  0.56970611  0.45537747  0.46396130  1
  O2-  O189  1  0.52760125  0.43744994  0.95332118  1
  O2-  O190  1  0.56088650  0.78865459  0.47408291  1
  O2-  O191  1  0.57802600  0.80947324  0.96361838  1
  O2-  O192  1  0.87337526  0.09191656  0.46755295  1
  O2-  O193  1  0.89469862  0.11443939  0.98269216  1
  O2-  O194  1  0.86004120  0.39954921  0.48583006  1
  O2-  O195  1  0.89480306  0.43928013  0.96666837  1
  O2-  O196  1  0.90685641  0.77327836  0.45805800  1
  O2-  O197  1  0.88804266  0.77299038  0.97973159  1
  O2-  O198  1  0.10827751  0.22126028  0.03375475  1
  O2-  O199  1  0.08592646  0.19862632  0.52993316  1
  O2-  O200  1  0.10117152  0.54549196  0.05402652  1
  O2-  O201  1  0.15573806  0.59096934  0.53108638  1
  O2-  O202  1  0.11531204  0.88777914  0.03715331  1
  O2-  O203  1  0.10050823  0.86750174  0.56426259  1
  O2-  O204  1  0.44722159  0.22991593  0.01525809  1
  O2-  O205  1  0.44524483  0.23654296  0.53160782  1
  O2-  O206  1  0.40375670  0.53155521  0.04034238  1
  O2-  O207  1  0.46758008  0.56377299  0.51872049  1
  O2-  O208  1  0.44974592  0.89036048  0.04020802  1
  O2-  O209  1  0.46338519  0.89847373  0.55635595  1
  O2-  O210  1  0.77567128  0.21190097  0.04602440  1
  O2-  O211  1  0.75004879  0.18483283  0.53848364  1
  O2-  O212  1  0.76183393  0.54635137  0.01105829  1
  O2-  O213  1  0.78392401  0.55458089  0.51476269  1
  O2-  O214  1  0.78993806  0.89322301  0.03772004  1
  O2-  O215  1  0.79285176  0.88134404  0.51776028  1
