# generated using pymatgen
data_H2O
_symmetry_space_group_name_H-M   'P 1'
_cell_length_a   13.51442296
_cell_length_b   13.53032883
_cell_length_c   14.70066514
_cell_angle_alpha   90.08998443
_cell_angle_beta   89.96588622
_cell_angle_gamma   119.97791635
_symmetry_Int_Tables_number   1
_chemical_formula_structural   H2O
_chemical_formula_sum   'H144 O72'
_cell_volume   2328.46400880
_cell_formula_units_Z   72
loop_
 _symmetry_equiv_pos_site_id
 _symmetry_equiv_pos_as_xyz
  1  'x, y, z'
loop_
 _atom_type_symbol
 _atom_type_oxidation_number
  H+  1.0
  O2-  -2.0
loop_
 _atom_site_type_symbol
 _atom_site_label
 _atom_site_symmetry_multiplicity
 _atom_site_fract_x
 _atom_site_fract_y
 _atom_site_fract_z
 _atom_site_occupancy
  H+  H0  1  0.35731724  0.84256176  1.00346094  1
  H+  H1  1  0.54683792  0.69335102  0.25645571  1
  H+  H2  1  0.14269352  0.30897417  0.23726596  1
  H+  H3  1  0.80783604  0.67927321  0.75841956  1
  H+  H4  1  0.21068439  0.93408064  0.29861951  1
  H+  H5  1  0.64493650  0.46833702  0.00194714  1
  H+  H6  1  0.17686061  0.49041505  0.50392493  1
  H+  H7  1  0.85316385  0.03232246  0.98581362  1
  H+  H8  1  0.63936257  0.83344962  0.98258908  1
  H+  H9  1  0.85298079  0.84095263  0.25378498  1
  H+  H10  1  0.43963993  0.89603254  0.65696298  1
  H+  H11  1  0.51803437  0.47536492  0.48793527  1
  H+  H12  1  0.53082798  1.04208116  0.75946208  1
  H+  H13  1  0.34831820  0.50409766  0.51630732  1
  H+  H14  1  0.19415779  0.78490830  0.25924089  1
  H+  H15  1  0.19036644  0.98862389  0.72269534  1
  H+  H16  1  0.87786235  0.43219825  0.84395139  1
  H+  H17  1  0.48387807  0.28833967  0.24329188  1
  H+  H18  1  0.82746181  0.32218073  0.24105124  1
  H+  H19  1  0.65128905  0.47295566  0.25731974  1
  H+  H20  1  0.14324693  0.19086037  0.50927094  1
  H+  H21  1  -0.00002129  0.50842118  0.23512014  1
  H+  H22  1  0.15044609  0.18718762  0.74010358  1
  H+  H23  1  0.71338849  0.86666673  0.23295176  1
  H+  H24  1  0.81337936  0.84258493  1.00104137  1
  H+  H25  1  0.03407844  0.19179134  0.74460446  1
  H+  H26  1  0.85510361  0.16695694  0.25389713  1
  H+  H27  1  0.17150793  0.69247012  -0.00599265  1
  H+  H28  1  0.51994659  0.44640682  1.01987639  1
  H+  H29  1  0.87633381  0.42943521  0.47691573  1
  H+  H30  1  -0.04224439  0.80462003  -0.01941027  1
  H+  H31  1  0.37203803  0.85290395  0.23618872  1
  H+  H32  1  0.14395616  0.84008685  0.00226320  1
  H+  H33  1  0.73278716  0.72828005  0.79765616  1
  H+  H34  1  0.16595320  0.04429689  0.48412269  1
  H+  H35  1  -0.03894393  0.82511297  0.26739842  1
  H+  H36  1  0.18629112  0.36448369  0.76074788  1
  H+  H37  1  0.26680579  0.96271721  0.65921193  1
  H+  H38  1  0.69969081  0.53026772  0.50424562  1
  H+  H39  1  0.70268731  0.18010575  0.74844467  1
  H+  H40  1  0.21362601  0.77151734  0.90406676  1
  H+  H41  1  0.17399210  1.02734092  -0.01884650  1
  H+  H42  1  0.66381109  0.10777287  0.53547273  1
  H+  H43  1  0.81384422  0.51086031  0.73537187  1
  H+  H44  1  0.14492464  0.51522919  0.01099155  1
  H+  H45  1  0.87136946  0.54165313  0.48649528  1
  H+  H46  1  0.77912922  0.54964904  0.10495970  1
  H+  H47  1  0.65945667  0.13323745  0.27750490  1
  H+  H48  1  0.77875410  0.30756931  0.53526936  1
  H+  H49  1  0.27060734  0.49819144  0.28435511  1
  H+  H50  1  0.48230347  0.97803679  0.23957348  1
  H+  H51  1  0.15362487  0.19757164  0.23482502  1
  H+  H52  1  0.83197590  0.51425497  0.23857951  1
  H+  H53  1  0.19941709  0.82040756  0.75675966  1
  H+  H54  1  0.81944646  0.98576340  0.49476411  1
  H+  H55  1  0.35528745  0.16825436  1.00755547  1
  H+  H56  1  0.30753227  0.17616966  0.25978401  1
  H+  H57  1  0.80801873  0.65763818  0.51276824  1
  H+  H58  1  0.81157520  0.62253438  1.01136742  1
  H+  H59  1  0.95974261  0.47163846  0.98943530  1
  H+  H60  1  0.04438141  0.54678956  0.51661820  1
  H+  H61  1  0.48753985  0.30036052  0.72521110  1
  H+  H62  1  0.49678812  0.55443747  -0.04532515  1
  H+  H63  1  0.84481486  0.35743592  0.75267732  1
  H+  H64  1  0.12520752  0.84882787  0.49367448  1
  H+  H65  1  0.57661952  0.76624119  0.84407407  1
  H+  H66  1  0.34701405  0.51040441  0.74386420  1
  H+  H67  1  0.29808953  0.15774905  0.75133845  1
  H+  H68  1  0.52119989  0.15684490  0.52237976  1
  H+  H69  1  0.18820874  0.36769794  -0.00927832  1
  H+  H70  1  0.47996468  0.27891949  0.01164931  1
  H+  H71  1  0.02434356  0.50887045  0.74657592  1
  H+  H72  1  0.78556588  0.11913087  0.52020115  1
  H+  H73  1  0.30474363  0.49036661  -0.01246244  1
  H+  H74  1  0.22755585  0.44482419  0.85107025  1
  H+  H75  1  0.81032050  0.28890231  0.00959746  1
  H+  H76  1  0.38026840  0.85426744  0.75177975  1
  H+  H77  1  0.57619609  0.09335718  0.36268444  1
  H+  H78  1  0.84758452  0.14757227  0.99258361  1
  H+  H79  1  0.60573513  0.81569996  0.50015303  1
  H+  H80  1  0.33542459  0.85208953  0.50933739  1
  H+  H81  1  0.17187087  0.70778491  0.49903174  1
  H+  H82  1  0.96853484  0.14884229  0.48240334  1
  H+  H83  1  0.82688581  -0.01007693  0.22762826  1
  H+  H84  1  0.81611493  0.85965362  0.50294641  1
  H+  H85  1  0.17036288  0.65906385  0.26214546  1
  H+  H86  1  0.51255775  0.02411184  0.98493883  1
  H+  H87  1  0.63684612  0.80757278  0.74742015  1
  H+  H88  1  0.63193047  0.46452783  0.75900039  1
  H+  H89  1  0.85274560  0.15934227  0.76045246  1
  H+  H90  1  0.95856540  0.83997332  0.49351721  1
  H+  H91  1  0.45060468  0.84636604  0.51210573  1
  H+  H92  1  0.18858097  0.06362932  0.25747112  1
  H+  H93  1  0.43082091  0.20761116  0.15649610  1
  H+  H94  1  0.77241510  0.28866426  0.48593399  1
  H+  H95  1  0.53704295  0.47543897  0.24879023  1
  H+  H96  1  0.84140796  0.46963086  0.99221974  1
  H+  H97  1  0.46530742  0.62382174  0.51715671  1
  H+  H98  1  0.17843817  0.14824962  -0.01600081  1
  H+  H99  1  0.18071819  0.69417323  0.76525387  1
  H+  H100  1  0.50963417  0.13946625  -0.00702261  1
  H+  H101  1  0.81400333  0.62944996  0.24040107  1
  H+  H102  1  0.97103454  0.16050182  0.24756488  1
  H+  H103  1  0.11496995  0.49346781  0.23819202  1
  H+  H104  1  0.49026094  0.02927449  0.50558715  1
  H+  H105  1  0.78109583  0.89272954  0.08794092  1
  H+  H106  1  0.51731113  0.83126451  -0.02031804  1
  H+  H107  1  0.40862563  0.52148639  0.19429154  1
  H+  H108  1  0.87926614  0.80312057  0.40274902  1
  H+  H109  1  0.10159035  0.22694674  0.60022426  1
  H+  H110  1  0.86464891  0.75977244  0.89876009  1
  H+  H111  1  0.20507542  0.76329813  0.40050211  1
  H+  H112  1  0.76972633  0.18620415  0.65842131  1
  H+  H113  1  0.42717815  0.54780294  0.64177954  1
  H+  H114  1  0.28226572  0.95067479  0.21193044  1
  H+  H115  1  0.11449171  0.22863138  0.09200026  1
  H+  H116  1  0.83416873  -0.00446818  0.72749034  1
  H+  H117  1  0.77321815  0.55460969  0.64831166  1
  H+  H118  1  0.78297869  0.23268924  0.15674404  1
  H+  H119  1  0.43626586  0.89539672  0.09071954  1
  H+  H120  1  0.11072548  0.90045379  0.58519965  1
  H+  H121  1  0.78395286  0.91470866  0.59778309  1
  H+  H122  1  0.22149968  0.11036099  0.84181330  1
  H+  H123  1  0.56779902  0.11874268  0.84828935  1
  H+  H124  1  0.53226112  0.76742995  0.41213864  1
  H+  H125  1  0.56641022  0.44570532  0.39882173  1
  H+  H126  1  0.09819274  0.54838691  0.09987895  1
  H+  H127  1  0.48765188  0.62585182  0.74030346  1
  H+  H128  1  0.55559110  0.41197578  0.84756330  1
  H+  H129  1  0.16714269  0.36504747  0.50250687  1
  H+  H130  1  0.63985110  0.72908830  0.33040919  1
  H+  H131  1  0.89830386  0.47381257  0.33259116  1
  H+  H132  1  0.49841904  0.66655262  -0.01373742  1
  H+  H133  1  0.11532237  0.56794437  0.60996384  1
  H+  H134  1  0.10254581  0.88343895  0.08653211  1
  H+  H135  1  0.19508760  0.43538967  0.36875200  1
  H+  H136  1  0.89236650  0.11465299  0.84775947  1
  H+  H137  1  0.21434544  0.13273055  0.40225180  1
  H+  H138  1  0.49555986  0.58206921  0.11713146  1
  H+  H139  1  0.03465284  0.18756255  0.00368251  1
  H+  H140  1  0.69256952  0.17090867  0.01358715  1
  H+  H141  1  0.89376576  0.11003225  0.38716548  1
  H+  H142  1  0.82279446  0.86995463  0.72176758  1
  H+  H143  1  0.14518308  0.51192302  0.74801567  1
  O2-  O144  1  0.10907505  0.23247148  0.20831153  1
  O2-  O145  1  0.11452897  0.23291601  0.72048517  1
  O2-  O146  1  0.08925125  0.54379160  0.21192071  1
  O2-  O147  1  0.10637192  0.55327705  0.72609036  1
  O2-  O148  1  0.20348420  0.92852941  0.23238329  1
  O2-  O149  1  0.19001093  0.92582451  0.68536804  1
  O2-  O150  1  0.42680715  0.20969625  0.22393033  1
  O2-  O151  1  0.43543156  0.22059874  0.69676113  1
  O2-  O152  1  0.49024235  0.57183297  0.18476142  1
  O2-  O153  1  0.42781405  0.55003708  0.71312034  1
  O2-  O154  1  0.41351038  0.92458168  0.20153324  1
  O2-  O155  1  0.45591721  0.89825269  0.72283903  1
  O2-  O156  1  0.79156192  0.23823468  0.22412757  1
  O2-  O157  1  0.78414848  0.21768073  0.72230319  1
  O2-  O158  1  0.77988369  0.55202989  0.21535204  1
  O2-  O159  1  0.77100898  0.55000134  0.71621551  1
  O2-  O160  1  0.79080630  0.90781884  0.20592122  1
  O2-  O161  1  0.79385208  0.91829283  0.69524662  1
  O2-  O162  1  0.22357128  0.14182925  0.28124590  1
  O2-  O163  1  0.21821052  0.11204321  0.77378330  1
  O2-  O164  1  0.19506566  0.43566489  0.29968889  1
  O2-  O165  1  0.22908690  0.44671445  0.78261060  1
  O2-  O166  1  0.22135182  0.73843864  0.28990103  1
  O2-  O167  1  0.22442622  0.77322197  0.79046870  1
  O2-  O168  1  0.59246089  0.06647041  0.30529653  1
  O2-  O169  1  0.57564564  0.12245864  0.78118326  1
  O2-  O170  1  0.56893281  0.43289146  0.27902075  1
  O2-  O171  1  0.55189073  0.41704037  0.78108909  1
  O2-  O172  1  0.59313181  0.75583794  0.30041884  1
  O2-  O173  1  0.59289765  0.73926713  0.78543996  1
  O2-  O174  1  0.89115584  0.11939967  0.27223068  1
  O2-  O175  1  0.89575764  0.11827483  0.77974907  1
  O2-  O176  1  0.89000830  0.46124680  0.26657450  1
  O2-  O177  1  0.88290794  0.43826483  0.77618781  1
  O2-  O178  1  0.88200955  0.79455902  0.28661031  1
  O2-  O179  1  0.81327618  0.74938359  0.78788073  1
  O2-  O180  1  0.20451954  0.12633186  0.46925782  1
  O2-  O181  1  0.21800829  0.10778795  0.95987513  1
  O2-  O182  1  0.21246387  0.44613759  0.47909588  1
  O2-  O183  1  0.22442740  0.44810906  0.96682103  1
  O2-  O184  1  0.20006676  0.78199011  0.46603184  1
  O2-  O185  1  0.21241326  0.77384222  0.97252843  1
  O2-  O186  1  0.54532982  0.10990859  0.48824003  1
  O2-  O187  1  0.55653537  0.10681265  0.96925505  1
  O2-  O188  1  0.57450051  0.45554486  0.46594506  1
  O2-  O189  1  0.56222015  0.42356126  0.97954562  1
  O2-  O190  1  0.52630048  0.76821650  0.47921734  1
  O2-  O191  1  0.56035108  0.79339514  0.95589949  1
  O2-  O192  1  0.89043617  0.09944539  0.45518353  1
  O2-  O193  1  0.89338229  0.11396036  0.96679278  1
  O2-  O194  1  0.92106355  0.51090032  0.46264908  1
  O2-  O195  1  0.87955095  0.42904387  0.96620560  1
  O2-  O196  1  0.87609730  0.80451448  0.47091926  1
  O2-  O197  1  0.87449774  0.76255256  0.96635833  1
  O2-  O198  1  0.11659955  0.22753796  0.02380135  1
  O2-  O199  1  0.09866480  0.22873084  0.53237190  1
  O2-  O200  1  0.10162807  0.55276816  0.03100330  1
  O2-  O201  1  0.12293837  0.57443294  0.54202230  1
  O2-  O202  1  0.10132261  0.88151454  0.02016367  1
  O2-  O203  1  0.08847807  0.89149094  0.51959959  1
  O2-  O204  1  0.43263445  0.20022882  0.03568347  1
  O2-  O205  1  0.44482642  0.22582684  0.60534918  1
  O2-  O206  1  0.46509495  0.58145344  0.00202743  1
  O2-  O207  1  0.42901874  0.54411080  0.54047057  1
  O2-  O208  1  0.43890467  0.88336952  0.02367375  1
  O2-  O209  1  0.41441418  0.88921684  0.53551208  1
  O2-  O210  1  0.77362716  0.21041806  0.03593069  1
  O2-  O211  1  0.72607327  0.10128444  0.56615713  1
  O2-  O212  1  0.77411565  0.54324413  0.03585557  1
  O2-  O213  1  0.78032586  0.57758202  0.53060870  1
  O2-  O214  1  0.77630323  0.88765665  0.02017998  1
  O2-  O215  1  0.77401547  0.90423192  0.52555212  1
