# generated using pymatgen
data_H2O
_symmetry_space_group_name_H-M   'P 1'
_cell_length_a   13.51957182
_cell_length_b   13.52297705
_cell_length_c   14.68632128
_cell_angle_alpha   90.03063757
_cell_angle_beta   89.95208019
_cell_angle_gamma   119.98858741
_symmetry_Int_Tables_number   1
_chemical_formula_structural   H2O
_chemical_formula_sum   'H144 O72'
_cell_volume   2325.56606390
_cell_formula_units_Z   72
loop_
 _symmetry_equiv_pos_site_id
 _symmetry_equiv_pos_as_xyz
  1  'x, y, z'
loop_
 _atom_type_symbol
 _atom_type_oxidation_number
  H+  1.0
  O2-  -2.0
loop_
 _atom_site_type_symbol
 _atom_site_label
 _atom_site_symmetry_multiplicity
 _atom_site_fract_x
 _atom_site_fract_y
 _atom_site_fract_z
 _atom_site_occupancy
  H+  H0  1  0.62562690  0.14016368  0.45897705  1
  H+  H1  1  0.15288963  0.31847551  -0.01019006  1
  H+  H2  1  1.04963116  0.87570217  0.77270724  1
  H+  H3  1  0.21338273  0.76419512  0.67201477  1
  H+  H4  1  0.48238177  0.32162887  0.02401666  1
  H+  H5  1  0.73728491  0.49608121  0.59511616  1
  H+  H6  1  0.49679806  0.87428571  0.73580894  1
  H+  H7  1  0.17398487  0.51741351  1.01034506  1
  H+  H8  1  0.89226465  0.76701517  1.07457231  1
  H+  H9  1  0.49567623  0.03623761  0.75548908  1
  H+  H10  1  0.86350596  0.73633377  0.80986599  1
  H+  H11  1  0.61013277  0.91383798  0.28627837  1
  H+  H12  1  0.18049441  1.02047917  0.50877642  1
  H+  H13  1  0.15534453  -0.04182069  0.98180742  1
  H+  H14  1  0.46183995  0.31775239  0.50806698  1
  H+  H15  1  0.49208575  0.65002704  -0.00773562  1
  H+  H16  1  0.96081426  0.16356514  0.96557478  1
  H+  H17  1  0.83153934  0.77967480  0.55371308  1
  H+  H18  1  0.35643473  0.19619405  1.02249195  1
  H+  H19  1  0.29894517  0.81448935  0.49322977  1
  H+  H20  1  0.51244489  0.36186557  0.76917692  1
  H+  H21  1  0.02678333  0.50770191  0.51889165  1
  H+  H22  1  0.63257908  0.47601327  0.77077701  1
  H+  H23  1  0.64124410  0.15591904  0.99073975  1
  H+  H24  1  0.83165327  1.01280875  0.25158577  1
  H+  H25  1  0.47654904  0.64565174  0.49868188  1
  H+  H26  1  0.50841786  0.81968507  0.50168783  1
  H+  H27  1  0.69156056  0.48528086  1.01085590  1
  H+  H28  1  0.80293485  0.38957683  1.00248846  1
  H+  H29  1  0.50520724  0.26205042  0.24239827  1
  H+  H30  1  0.79134247  0.17527569  0.50106939  1
  H+  H31  1  0.61643357  0.48158799  0.48215814  1
  H+  H32  1  0.16239039  0.84393583  -0.02955697  1
  H+  H33  1  0.48284676  0.97485205  0.02328134  1
  H+  H34  1  0.71810029  0.84400633  0.23185950  1
  H+  H35  1  0.48014214  0.52058976  0.48364536  1
  H+  H36  1  0.46531487  0.97415510  0.26943737  1
  H+  H37  1  0.31840254  0.81539059  0.98698686  1
  H+  H38  1  0.51274468  0.82845127  -0.00168826  1
  H+  H39  1  0.53495248  0.42939912  0.22809361  1
  H+  H40  1  0.17772538  0.63875619  0.01079401  1
  H+  H41  1  1.08097269  0.88956979  0.17166984  1
  H+  H42  1  0.83602772  0.88230412  0.76130010  1
  H+  H43  1  0.56080743  0.79270489  0.41388495  1
  H+  H44  1  0.54578027  0.11765241  0.84363343  1
  H+  H45  1  0.17161370  0.30395333  0.53224110  1
  H+  H46  1  0.22730142  0.43074220  0.28053420  1
  H+  H47  1  0.86327365  0.68011667  0.21939513  1
  H+  H48  1  0.20213314  0.14209642  0.28772514  1
  H+  H49  1  0.16022347  0.85891443  0.22895169  1
  H+  H50  1  0.82850899  0.34592319  0.75097649  1
  H+  H51  1  0.32109079  0.17341670  0.76492215  1
  H+  H52  1  0.78913892  0.52313769  0.14306309  1
  H+  H53  1  0.84601725  0.04182063  0.97215015  1
  H+  H54  1  0.17881396  0.18959197  0.75550877  1
  H+  H55  1  0.30098014  0.47842916  0.76328102  1
  H+  H56  1  0.20805831  0.03111730  0.26201673  1
  H+  H57  1  0.68353902  0.83532208  0.52278545  1
  H+  H58  1  0.66302631  0.46564880  0.25164378  1
  H+  H59  1  0.78937907  0.59269545  0.52270518  1
  H+  H60  1  0.63308450  0.83287923  -0.01564997  1
  H+  H61  1  0.18276146  0.15842007  0.99672975  1
  H+  H62  1  0.47646766  0.49815301  0.75596765  1
  H+  H63  1  0.15386991  0.69390643  0.26211084  1
  H+  H64  1  1.02994519  0.83398778  0.54494713  1
  H+  H65  1  0.82046284  0.58476893  0.00491233  1
  H+  H66  1  0.81091967  0.59998283  0.71107047  1
  H+  H67  1  0.47708029  0.19315503  0.73559332  1
  H+  H68  1  0.34777262  0.51562902  0.49821854  1
  H+  H69  1  0.42682313  0.59091921  0.24074389  1
  H+  H70  1  0.80509065  0.48149435  0.73663877  1
  H+  H71  1  0.64374707  0.84997408  0.76517972  1
  H+  H72  1  0.81632633  0.85295424  -0.00412147  1
  H+  H73  1  0.12366191  0.44750413  0.27082649  1
  H+  H74  1  0.94866435  0.46129205  0.75889450  1
  H+  H75  1  0.37109234  0.85883116  0.72944439  1
  H+  H76  1  0.54896068  0.61648682  0.21871421  1
  H+  H77  1  0.11143598  0.26394626  0.28302003  1
  H+  H78  1  0.16687641  0.30855842  0.75243001  1
  H+  H79  1  0.81586256  0.19789909  1.01756196  1
  H+  H80  1  0.84381860  0.51106088  0.23845030  1
  H+  H81  1  0.44931517  0.90440533  0.59110919  1
  H+  H82  1  0.94496125  0.12297773  0.27683761  1
  H+  H83  1  0.17839772  0.48451155  0.51265998  1
  H+  H84  1  0.82608274  0.04254091  0.50458732  1
  H+  H85  1  0.21345384  0.59861048  0.22448263  1
  H+  H86  1  0.64947280  0.14089908  0.31304681  1
  H+  H87  1  0.43673514  0.84919782  0.26562706  1
  H+  H88  1  0.16802870  0.18188904  0.52850542  1
  H+  H89  1  0.79644689  0.29468243  0.50367540  1
  H+  H90  1  0.80859813  0.89213025  0.48234906  1
  H+  H91  1  0.23062918  0.45005676  0.89408990  1
  H+  H92  1  0.17954793  0.82001279  0.74964222  1
  H+  H93  1  0.83899430  1.04717810  0.75291174  1
  H+  H94  1  0.62320639  0.05398972  0.93272717  1
  H+  H95  1  0.37370691  0.16407655  0.24261904  1
  H+  H96  1  0.27017209  0.81333907  0.27179590  1
  H+  H97  1  0.13231035  0.61203610  0.74950245  1
  H+  H98  1  0.17656405  0.47458161  0.76499989  1
  H+  H99  1  0.99510832  0.49636616  0.25963981  1
  H+  H100  1  0.48388867  0.96504909  0.49107829  1
  H+  H101  1  0.54853678  0.78044578  0.25218527  1
  H+  H102  1  0.52317708  0.49461708  0.99291763  1
  H+  H103  1  0.35737011  0.19112760  0.51782866  1
  H+  H104  1  0.66319716  0.16972048  0.72727485  1
  H+  H105  1  0.83065657  0.83851253  0.20831867  1
  H+  H106  1  0.84239555  0.46795952  0.49020889  1
  H+  H107  1  0.82044205  0.18659935  0.24662199  1
  H+  H108  1  0.11012493  0.19229046  0.19868397  1
  H+  H109  1  0.19406315  0.43132997  0.42117239  1
  H+  H110  1  0.11511165  0.90211031  0.67629461  1
  H+  H111  1  0.45663126  0.58432038  0.08455811  1
  H+  H112  1  0.86470219  0.13051926  0.84358282  1
  H+  H113  1  0.15044758  0.84111415  0.53258708  1
  H+  H114  1  0.44326040  0.22301603  0.11950502  1
  H+  H115  1  0.94461997  0.79262687  0.27608929  1
  H+  H116  1  0.74164712  0.20426187  0.63411792  1
  H+  H117  1  0.22582251  0.09259279  0.41587209  1
  H+  H118  1  0.13719106  0.55784149  0.12574813  1
  H+  H119  1  0.31560687  0.48868461  -0.01850230  1
  H+  H120  1  0.87740085  0.37626464  0.26775302  1
  H+  H121  1  0.78446119  0.24323677  0.16813570  1
  H+  H122  1  0.80739849  0.15663311  0.74365144  1
  H+  H123  1  0.20349663  0.76913965  0.41480783  1
  H+  H124  1  0.90780422  0.82108081  0.88845437  1
  H+  H125  1  0.07442149  0.24580278  0.07018934  1
  H+  H126  1  0.13937978  0.22780458  0.65346645  1
  H+  H127  1  0.44504293  0.54673379  0.66893563  1
  H+  H128  1  0.44086111  0.24386247  0.64831330  1
  H+  H129  1  0.42953931  0.89975245  0.11405461  1
  H+  H130  1  0.90419655  0.44693359  0.40544612  1
  H+  H131  1  0.55438728  0.80695188  0.84657584  1
  H+  H132  1  0.25281553  0.76156441  0.89320131  1
  H+  H133  1  0.09965894  0.53532416  0.66194569  1
  H+  H134  1  0.20502250  0.05066389  0.77641714  1
  H+  H135  1  0.14513193  0.62791118  0.52139980  1
  H+  H136  1  0.86840480  0.75732264  0.46048391  1
  H+  H137  1  0.79657929  0.90406421  0.66321847  1
  H+  H138  1  0.55425835  0.43813816  0.90930437  1
  H+  H139  1  0.78193279  0.89819847  0.08027583  1
  H+  H140  1  0.98395135  0.80312913  0.99663003  1
  H+  H141  1  0.85137063  0.09300418  0.40354893  1
  H+  H142  1  0.23964255  0.13250528  0.91209445  1
  H+  H143  1  0.55247995  0.45170775  0.38532357  1
  O2-  O144  1  0.09405876  0.18591186  0.26384420  1
  O2-  O145  1  0.13523113  0.22709089  0.72786090  1
  O2-  O146  1  0.13357557  0.55589770  0.20551294  1
  O2-  O147  1  0.09713694  0.53142773  0.73005010  1
  O2-  O148  1  0.15907295  0.92111641  0.19363245  1
  O2-  O149  1  0.12586866  0.90779518  0.74398243  1
  O2-  O150  1  0.44813641  0.19430817  0.20857240  1
  O2-  O151  1  0.44087805  0.23929671  0.71799748  1
  O2-  O152  1  0.49321809  0.63979189  0.20317888  1
  O2-  O153  1  0.42989588  0.53207685  0.73379011  1
  O2-  O154  1  0.41244791  0.89993098  0.23919060  1
  O2-  O155  1  0.45067376  0.90857062  0.70867038  1
  O2-  O156  1  0.79181103  0.24057652  0.23504148  1
  O2-  O157  1  0.74358335  0.20229506  0.70321682  1
  O2-  O158  1  0.79561182  0.54094455  0.21032365  1
  O2-  O159  1  0.75866745  0.51794446  0.70974697  1
  O2-  O160  1  0.78911377  0.88112442  0.19593843  1
  O2-  O161  1  0.79708036  0.91828078  0.72917346  1
  O2-  O162  1  0.24756720  0.10444439  0.29855175  1
  O2-  O163  1  0.24273566  0.13232140  0.79607412  1
  O2-  O164  1  0.15157491  0.40254069  0.30711517  1
  O2-  O165  1  0.21880212  0.43535893  0.78673467  1
  O2-  O166  1  0.18931104  0.76891229  0.29323600  1
  O2-  O167  1  0.21525270  0.77084998  0.73840645  1
  O2-  O168  1  0.59276457  0.06457466  0.33739639  1
  O2-  O169  1  0.53609663  0.11819038  0.77667092  1
  O2-  O170  1  0.58146931  0.42078384  0.27468743  1
  O2-  O171  1  0.55475159  0.44024985  0.79816831  1
  O2-  O172  1  0.59556269  0.83651288  0.29965603  1
  O2-  O173  1  0.56219738  0.81739772  0.77958692  1
  O2-  O174  1  0.86085411  0.08715033  0.28348539  1
  O2-  O175  1  0.86133100  0.12794502  0.77361381  1
  O2-  O176  1  0.91852194  0.45859283  0.28820961  1
  O2-  O177  1  0.86632964  0.42496932  0.77458242  1
  O2-  O178  1  0.90428528  0.76707209  0.21816074  1
  O2-  O179  1  0.90330991  0.81844235  0.82139984  1
  O2-  O180  1  0.21762219  0.09875930  0.48290653  1
  O2-  O181  1  0.23195807  0.12608426  0.98028325  1
  O2-  O182  1  0.22097128  0.44724903  0.48549016  1
  O2-  O183  1  0.23344604  0.44922366  0.96331258  1
  O2-  O184  1  0.21444854  0.77088124  0.48207748  1
  O2-  O185  1  0.24136829  0.76635052  0.95840842  1
  O2-  O186  1  0.55249211  0.08840732  0.42451479  1
  O2-  O187  1  0.58071224  0.08989069  0.95549371  1
  O2-  O188  1  0.54257523  0.46354557  0.45113043  1
  O2-  O189  1  0.55403348  0.44272071  0.97841916  1
  O2-  O190  1  0.54893326  0.77673194  0.48047884  1
  O2-  O191  1  0.55088855  0.79132531  0.96672558  1
  O2-  O192  1  0.86017856  0.11321497  0.46937208  1
  O2-  O193  1  0.87749128  0.12200116  0.95028014  1
  O2-  O194  1  0.89380012  0.43790272  0.47302224  1
  O2-  O195  1  0.83561941  0.34159428  0.98252249  1
  O2-  O196  1  0.87377806  0.74518571  0.52543876  1
  O2-  O197  1  0.89758517  0.76283769  1.00823700  1
  O2-  O198  1  0.09895633  0.23626718  0.00998132  1
  O2-  O199  1  0.13764099  0.22713028  0.55990916  1
  O2-  O200  1  0.13914325  0.56071631  0.03889145  1
  O2-  O201  1  0.10679352  0.54762562  0.54444537  1
  O2-  O202  1  0.11188621  0.87703936  -0.03571876  1
  O2-  O203  1  0.11181273  0.88082725  0.56027727  1
  O2-  O204  1  0.43845668  0.23872211  0.04700400  1
  O2-  O205  1  0.43530437  0.24543229  0.54079779  1
  O2-  O206  1  0.45596452  0.57086002  0.01856251  1
  O2-  O207  1  0.43591356  0.55904966  0.51267478  1
  O2-  O208  1  0.43879796  0.89540673  0.04740137  1
  O2-  O209  1  0.44343477  0.88945653  0.52369403  1
  O2-  O210  1  0.77624468  0.23850184  0.04116863  1
  O2-  O211  1  0.74640191  0.21315275  0.52151488  1
  O2-  O212  1  0.77127171  0.50770005  0.02991746  1
  O2-  O213  1  0.74162761  0.50855828  0.52740848  1
  O2-  O214  1  0.78086200  0.89908729  0.01212837  1
  O2-  O215  1  0.76683821  0.87237402  0.54012798  1
