# generated using pymatgen
data_H2O
_symmetry_space_group_name_H-M   'P 1'
_cell_length_a   13.49133098
_cell_length_b   13.51194325
_cell_length_c   14.68843871
_cell_angle_alpha   89.95731084
_cell_angle_beta   90.07785401
_cell_angle_gamma   119.97098773
_symmetry_Int_Tables_number   1
_chemical_formula_structural   H2O
_chemical_formula_sum   'H144 O72'
_cell_volume   2319.55868534
_cell_formula_units_Z   72
loop_
 _symmetry_equiv_pos_site_id
 _symmetry_equiv_pos_as_xyz
  1  'x, y, z'
loop_
 _atom_type_symbol
 _atom_type_oxidation_number
  H+  1.0
  O2-  -2.0
loop_
 _atom_site_type_symbol
 _atom_site_label
 _atom_site_symmetry_multiplicity
 _atom_site_fract_x
 _atom_site_fract_y
 _atom_site_fract_z
 _atom_site_occupancy
  H+  H0  1  0.19045823  0.72626640  0.25533889  1
  H+  H1  1  0.15834042  0.85375465  0.01622335  1
  H+  H2  1  0.18195441  0.32630363  0.51625997  1
  H+  H3  1  0.81846670  0.64278507  0.72052651  1
  H+  H4  1  0.36976979  0.18666519  0.51974944  1
  H+  H5  1  0.56622223  0.34977469  -0.03275997  1
  H+  H6  1  0.19990387  0.35281765  -0.01486501  1
  H+  H7  1  0.55219391  0.77393532  0.34624655  1
  H+  H8  1  0.80783601  0.84174375  0.25112201  1
  H+  H9  1  0.62553669  0.81204167  0.25517915  1
  H+  H10  1  0.86022083  0.79675378  0.75876158  1
  H+  H11  1  0.95773256  0.81346203  0.28120655  1
  H+  H12  1  0.82208725  0.17638093  0.25001928  1
  H+  H13  1  0.32274702  0.49773550  0.74921721  1
  H+  H14  1  0.31438889  0.47020060  0.26054714  1
  H+  H15  1  0.95754353  0.48411912  0.26487683  1
  H+  H16  1  0.51819148  0.36793386  0.25953456  1
  H+  H17  1  0.16763739  0.13349806  0.27468930  1
  H+  H18  1  0.49142508  0.84297284  1.01238973  1
  H+  H19  1  0.64784265  0.81040923  0.48141322  1
  H+  H20  1  0.44867063  0.88691719  0.15064338  1
  H+  H21  1  0.70827625  0.52944705  0.02717325  1
  H+  H22  1  0.52544750  0.02044517  0.99494480  1
  H+  H23  1  0.85784291  0.70547958  0.00461592  1
  H+  H24  1  0.19159173  0.84884015  0.24876311  1
  H+  H25  1  0.80947056  0.96066620  0.24739238  1
  H+  H26  1  0.14553766  0.80708134  0.49506620  1
  H+  H27  1  0.77281571  0.56378657  0.17836778  1
  H+  H28  1  0.16973344  0.19162539  0.52197607  1
  H+  H29  1  0.19328238  0.03419599  0.99381572  1
  H+  H30  1  0.64314292  0.15153526  0.26132596  1
  H+  H31  1  0.04826144  0.21061325  0.73541913  1
  H+  H32  1  0.84883952  0.00513138  0.48618167  1
  H+  H33  1  0.52138672  0.03595444  0.26036643  1
  H+  H34  1  0.84492550  0.92653449  0.71097449  1
  H+  H35  1  0.17689357  0.70132820  -0.00764976  1
  H+  H36  1  0.86736718  0.08418723  0.72971622  1
  H+  H37  1  0.15514789  0.96974083  0.75197601  1
  H+  H38  1  0.14980392  0.56292079  0.22448151  1
  H+  H39  1  0.16668278  0.52391900  0.73854636  1
  H+  H40  1  0.98291312  0.49532965  0.75969522  1
  H+  H41  1  0.47549508  0.30622479  0.74957996  1
  H+  H42  1  0.34952099  0.85137405  0.72210642  1
  H+  H43  1  0.51914994  0.49419869  0.76494720  1
  H+  H44  1  0.11751087  0.20175376  0.15512102  1
  H+  H45  1  0.63235369  0.48754142  0.27186552  1
  H+  H46  1  0.58160285  0.78215778  0.84577917  1
  H+  H47  1  0.17475073  0.32226064  0.73763269  1
  H+  H48  1  0.79071382  0.85373676  0.61685351  1
  H+  H49  1  0.75994463  0.42475862  0.94818096  1
  H+  H50  1  0.39114932  0.18428201  0.20120797  1
  H+  H51  1  0.65553184  0.80682506  0.75403280  1
  H+  H52  1  0.82591318  0.29089808  0.50535596  1
  H+  H53  1  0.64024682  0.15511012  0.49364753  1
  H+  H54  1  0.81770959  0.35718928  0.99138574  1
  H+  H55  1  0.63187779  0.49221338  0.74378869  1
  H+  H56  1  0.76531497  0.03974306  0.93136015  1
  H+  H57  1  0.47615977  0.63145730  0.24475127  1
  H+  H58  1  0.52378198  0.36451078  0.49669580  1
  H+  H59  1  0.18233181  0.43706862  0.26376773  1
  H+  H60  1  0.45958064  0.97169105  0.70734518  1
  H+  H61  1  0.86898383  0.19958974  0.74649203  1
  H+  H62  1  0.49857712  0.64202980  0.50471878  1
  H+  H63  1  0.15991040  0.52605484  0.50866295  1
  H+  H64  1  0.50692669  0.18794263  0.22960711  1
  H+  H65  1  0.08064996  0.58679370  0.15123698  1
  H+  H66  1  0.14115336  -0.03783092  0.25056696  1
  H+  H67  1  0.16772642  0.03294683  0.52077155  1
  H+  H68  1  0.52837220  0.70282852  -0.00799792  1
  H+  H69  1  0.82170286  0.53534187  0.04406085  1
  H+  H70  1  0.49911963  0.64845903  0.74111253  1
  H+  H71  1  0.53078913  0.81940900  0.48147296  1
  H+  H72  1  0.00981326  0.86965820  0.53428755  1
  H+  H73  1  0.16338388  0.17465273  0.00883533  1
  H+  H74  1  0.43145819  0.87654646  0.56864589  1
  H+  H75  1  0.32539439  0.84395912  0.24578366  1
  H+  H76  1  0.80736293  0.51124540  0.26235745  1
  H+  H77  1  0.60916902  0.01324524  0.78317993  1
  H+  H78  1  0.82252038  0.19430919  1.01108397  1
  H+  H79  1  0.14044227  0.63543075  0.50759879  1
  H+  H80  1  0.48391659  0.51585644  0.24587547  1
  H+  H81  1  0.48894599  -0.03761842  0.48897753  1
  H+  H82  1  0.18432911  0.81692361  0.76854601  1
  H+  H83  1  0.96195088  0.13410042  0.26634938  1
  H+  H84  1  0.18657707  0.69904062  0.76604245  1
  H+  H85  1  0.84705309  0.35688869  0.26558632  1
  H+  H86  1  0.87833205  0.11829015  0.88049012  1
  H+  H87  1  -0.02225627  0.48163006  0.49415224  1
  H+  H88  1  0.18425438  0.15218185  0.76557052  1
  H+  H89  1  0.28122993  0.13267972  0.30608465  1
  H+  H90  1  0.69778688  0.49414356  0.49363901  1
  H+  H91  1  0.38189099  0.18309329  -0.00443685  1
  H+  H92  1  0.82930817  0.96643230  0.01980439  1
  H+  H93  1  0.48022461  0.84521215  0.24461470  1
  H+  H94  1  0.49964938  0.52379942  0.51031364  1
  H+  H95  1  0.39768285  0.51604937  1.00290778  1
  H+  H96  1  0.83181191  0.33088969  0.73726633  1
  H+  H97  1  0.22718727  0.78021869  0.90452786  1
  H+  H98  1  0.86213259  0.82361742  0.99565233  1
  H+  H99  1  0.97399899  0.52637755  1.01132319  1
  H+  H100  1  0.48887751  0.18709322  0.51600405  1
  H+  H101  1  0.16066044  0.27837286  0.24515641  1
  H+  H102  1  0.64592750  0.82046020  -0.00292399  1
  H+  H103  1  0.22118264  0.47938127  0.98300049  1
  H+  H104  1  0.72058697  0.19878747  0.74230835  1
  H+  H105  1  0.52639000  0.13921361  -0.01870806  1
  H+  H106  1  0.04651623  0.17829065  0.01057041  1
  H+  H107  1  0.06555275  0.49198229  0.02599779  1
  H+  H108  1  0.45639763  0.56209099  0.09834306  1
  H+  H109  1  0.88154788  0.09389595  0.35614399  1
  H+  H110  1  0.84082148  0.12043045  0.49133115  1
  H+  H111  1  0.11019618  0.89032066  0.15517138  1
  H+  H112  1  0.23871085  0.44079068  0.40763712  1
  H+  H113  1  0.60649813  0.44141620  0.88689315  1
  H+  H114  1  0.82924032  0.49434312  0.50081652  1
  H+  H115  1  0.89273626  0.45658640  0.84173873  1
  H+  H116  1  0.78561274  0.22033439  0.16047054  1
  H+  H117  1  0.44027242  0.22575447  0.66359825  1
  H+  H118  1  0.55871527  0.44013480  0.40436440  1
  H+  H119  1  0.24389382  0.44762195  0.83796015  1
  H+  H120  1  0.45936460  0.56864901  0.65072472  1
  H+  H121  1  0.30433275  0.15505707  0.76564512  1
  H+  H122  1  0.09942606  0.89225730  0.61543717  1
  H+  H123  1  0.84028637  0.69732536  0.28750561  1
  H+  H124  1  0.69942889  0.17858151  0.01828599  1
  H+  H125  1  0.03975093  0.84569372  0.75420649  1
  H+  H126  1  0.47229557  0.22795342  0.07760286  1
  H+  H127  1  0.03873157  0.85239937  0.01489681  1
  H+  H128  1  0.78480603  0.22302654  0.59710147  1
  H+  H129  1  0.73115197  0.65017577  0.65729873  1
  H+  H130  1  0.12158778  0.56246333  0.65228004  1
  H+  H131  1  0.37113252  0.84286583  0.01245445  1
  H+  H132  1  0.56225935  0.12456696  0.40458151  1
  H+  H133  1  0.78615438  0.88757862  0.10956249  1
  H+  H134  1  0.32135536  0.49429943  0.49457415  1
  H+  H135  1  0.20018292  0.10123301  0.42745603  1
  H+  H136  1  0.78467036  0.55978193  0.58143343  1
  H+  H137  1  0.85624547  0.80798781  0.43017847  1
  H+  H138  1  0.26104982  0.81017798  0.47061616  1
  H+  H139  1  0.13451109  0.24519635  0.61442257  1
  H+  H140  1  0.89494667  0.76437745  0.85505460  1
  H+  H141  1  0.22728829  0.11113963  0.90230495  1
  H+  H142  1  0.58431463  0.08663246  0.85275341  1
  H+  H143  1  0.89529986  0.43809982  0.40432982  1
  O2-  O144  1  0.11355566  0.19814604  0.22296812  1
  O2-  O145  1  0.12903415  0.23994940  0.71550408  1
  O2-  O146  1  0.09881311  0.59410171  0.21805233  1
  O2-  O147  1  0.12355052  0.56302921  0.72026487  1
  O2-  O148  1  0.11021332  0.88417544  0.22386568  1
  O2-  O149  1  0.11879701  0.88971827  0.72809968  1
  O2-  O150  1  0.47406252  0.23370181  0.19997878  1
  O2-  O151  1  0.43172533  0.22495337  0.73050396  1
  O2-  O152  1  0.43766832  0.55012603  0.22279709  1
  O2-  O153  1  0.45561691  0.56613056  0.71855227  1
  O2-  O154  1  0.44341461  0.88918655  0.21930159  1
  O2-  O155  1  0.41504046  0.89558196  0.68055323  1
  O2-  O156  1  0.78382903  0.22012529  0.22834575  1
  O2-  O157  1  0.79682626  0.24883182  0.71361224  1
  O2-  O158  1  0.77033112  0.55703693  0.24635268  1
  O2-  O159  1  0.75586721  0.59616361  0.67573801  1
  O2-  O160  1  0.76918814  0.88079670  0.22218006  1
  O2-  O161  1  0.79061235  0.84841893  0.69319161  1
  O2-  O162  1  0.19801721  0.08835712  0.30923574  1
  O2-  O163  1  0.22192542  0.11074404  0.78982799  1
  O2-  O164  1  0.23532308  0.41488361  0.28842405  1
  O2-  O165  1  0.24008121  0.45285022  0.77071460  1
  O2-  O166  1  0.23974844  0.80991761  0.26901604  1
  O2-  O167  1  0.22533598  0.77775080  0.79273384  1
  O2-  O168  1  0.56071867  0.11734370  0.27975999  1
  O2-  O169  1  0.60030899  0.08049312  0.78708080  1
  O2-  O170  1  0.54874312  0.44359431  0.28926027  1
  O2-  O171  1  0.56166040  0.45329099  0.78115207  1
  O2-  O172  1  0.54458283  0.77307603  0.27781566  1
  O2-  O173  1  0.57747905  0.77789732  0.77840849  1
  O2-  O174  1  0.88134649  0.09878198  0.28609990  1
  O2-  O175  1  0.90809018  0.15309619  0.76673081  1
  O2-  O176  1  0.87999349  0.43694803  0.29029666  1
  O2-  O177  1  0.89980376  0.45664782  0.77510744  1
  O2-  O178  1  0.87877501  0.78000621  0.30408427  1
  O2-  O179  1  0.90179759  0.76053546  0.78753050  1
  O2-  O180  1  0.21270004  0.11330551  0.49424823  1
  O2-  O181  1  0.23311855  0.11478127  0.97126539  1
  O2-  O182  1  0.23833929  0.44887511  0.47493737  1
  O2-  O183  1  0.24652493  0.42988593  0.95630968  1
  O2-  O184  1  0.17739799  0.76306927  0.46549833  1
  O2-  O185  1  0.22728739  0.78119657  0.97388965  1
  O2-  O186  1  0.55911117  0.12079661  0.47199549  1
  O2-  O187  1  0.57110125  0.09946103  0.96904503  1
  O2-  O188  1  0.57046813  0.44487562  0.47218153  1
  O2-  O189  1  0.63183918  0.42339561  0.94566600  1
  O2-  O190  1  0.56673614  0.77368421  0.45982334  1
  O2-  O191  1  0.56764653  0.78504669  0.97071992  1
  O2-  O192  1  0.88170320  0.08499692  0.46246868  1
  O2-  O193  1  0.84634121  0.09297872  0.94341154  1
  O2-  O194  1  0.89519464  0.43851006  0.47270984  1
  O2-  O195  1  0.83661657  0.43357913  0.96527574  1
  O2-  O196  1  0.85903422  0.80938875  0.49755269  1
  O2-  O197  1  0.90105813  0.78136877  0.97396309  1
  O2-  O198  1  0.12474680  0.21750231  0.03416803  1
  O2-  O199  1  0.13909931  0.24506511  0.54340859  1
  O2-  O200  1  0.05179189  0.55521660  0.03784349  1
  O2-  O201  1  0.11055575  0.55524180  0.53221115  1
  O2-  O202  1  0.11858030  0.89386814  0.04070072  1
  O2-  O203  1  0.09209900  0.89877417  0.54766624  1
  O2-  O204  1  0.46501882  0.21765264  0.01060845  1
  O2-  O205  1  0.45124807  0.23076195  0.53805060  1
  O2-  O206  1  0.47058124  0.57048592  0.03194207  1
  O2-  O207  1  0.45672798  0.56195150  0.53039363  1
  O2-  O208  1  0.45070124  0.88286858  0.03733800  1
  O2-  O209  1  0.44601333  0.87908721  0.50151866  1
  O2-  O210  1  0.78074245  0.22882340  0.04021724  1
  O2-  O211  1  0.78094174  0.21201670  0.52976004  1
  O2-  O212  1  0.78086895  0.57580362  0.06238830  1
  O2-  O213  1  0.78272953  0.53602822  0.51501196  1
  O2-  O214  1  0.78987364  0.88675080  0.04074716  1
  O2-  O215  1  0.79221710  0.86543775  0.52400433  1
