# generated using pymatgen
data_H2O
_symmetry_space_group_name_H-M   'P 1'
_cell_length_a   13.49849882
_cell_length_b   13.52016221
_cell_length_c   14.67333142
_cell_angle_alpha   90.01012483
_cell_angle_beta   89.91165355
_cell_angle_gamma   119.99563543
_symmetry_Int_Tables_number   1
_chemical_formula_structural   H2O
_chemical_formula_sum   'H144 O72'
_cell_volume   2319.23744276
_cell_formula_units_Z   72
loop_
 _symmetry_equiv_pos_site_id
 _symmetry_equiv_pos_as_xyz
  1  'x, y, z'
loop_
 _atom_type_symbol
 _atom_type_oxidation_number
  H+  1.0
  O2-  -2.0
loop_
 _atom_site_type_symbol
 _atom_site_label
 _atom_site_symmetry_multiplicity
 _atom_site_fract_x
 _atom_site_fract_y
 _atom_site_fract_z
 _atom_site_occupancy
  H+  H0  1  0.18443066  0.82915734  0.45971407  1
  H+  H1  1  0.47782670  0.51782661  0.73907899  1
  H+  H2  1  0.86967418  0.15764540  0.00226210  1
  H+  H3  1  0.51435499  0.14749439  0.76309484  1
  H+  H4  1  -0.03062922  0.82556529  -0.00225115  1
  H+  H5  1  0.85385890  0.37748388  0.50189242  1
  H+  H6  1  0.15555728  0.61747979  0.99476741  1
  H+  H7  1  0.18885312  0.36321429  -0.02713785  1
  H+  H8  1  0.51204943  0.36441752  0.75842158  1
  H+  H9  1  0.71278103  0.52698123  0.51544678  1
  H+  H10  1  0.81704224  0.63809437  0.24083393  1
  H+  H11  1  0.65409056  0.15250790  0.99354370  1
  H+  H12  1  0.85492485  0.15566512  0.25239312  1
  H+  H13  1  0.17369415  0.19686327  1.02055663  1
  H+  H14  1  0.72035478  0.80651884  0.74016117  1
  H+  H15  1  0.30631089  0.17170955  0.26591522  1
  H+  H16  1  0.47631520  0.42037804  0.99174354  1
  H+  H17  1  0.52054042  0.03264690  0.76222331  1
  H+  H18  1  0.48316899  0.82276726  0.24738860  1
  H+  H19  1  0.17966581  0.47525504  0.96517523  1
  H+  H20  1  0.83231230  0.54353773  0.52568099  1
  H+  H21  1  0.31814664  0.81255000  -0.01311975  1
  H+  H22  1  0.62862211  0.48553924  0.76469779  1
  H+  H23  1  0.04065365  0.20026476  0.24345280  1
  H+  H24  1  0.78935993  -0.12249709  0.58984430  1
  H+  H25  1  0.03051591  0.84643476  0.49054759  1
  H+  H26  1  0.82541347  0.31199235  0.24048506  1
  H+  H27  1  0.84224753  0.47978033  0.99840971  1
  H+  H28  1  0.50365167  0.22022181  0.26540692  1
  H+  H29  1  0.52760947  0.70049934  0.75859208  1
  H+  H30  1  0.12565847  0.24377613  0.15775509  1
  H+  H31  1  0.18635276  0.43270406  0.48010374  1
  H+  H32  1  0.18445957  0.02438138  0.48038885  1
  H+  H33  1  0.49545969  0.97554171  0.02000936  1
  H+  H34  1  0.49104718  0.64308271  0.24661539  1
  H+  H35  1  0.49785320  0.08046105  0.22996772  1
  H+  H36  1  0.20981553  0.32414308  0.53641487  1
  H+  H37  1  0.14061268  0.49849687  0.74814705  1
  H+  H38  1  0.00445476  0.84834323  0.71618483  1
  H+  H39  1  0.97184395  0.17136035  0.76500524  1
  H+  H40  1  0.70812814  0.19144002  0.24030677  1
  H+  H41  1  0.13561532  0.16898644  0.74223221  1
  H+  H42  1  0.97051135  0.34016288  0.59002338  1
  H+  H43  1  0.15611310  -0.01458036  1.02109316  1
  H+  H44  1  0.50756528  0.17271749  1.02694408  1
  H+  H45  1  0.82375237  0.30270459  0.00931578  1
  H+  H46  1  0.81257003  0.52955735  0.75020459  1
  H+  H47  1  0.45789789  0.99959304  0.47163525  1
  H+  H48  1  0.37653083  0.84662067  0.74029684  1
  H+  H49  1  0.36468486  0.83551807  0.50314091  1
  H+  H50  1  0.82430362  0.70778349  0.75052676  1
  H+  H51  1  0.11112474  0.11645968  0.51952918  1
  H+  H52  1  0.30743357  0.50656639  0.25587698  1
  H+  H53  1  0.36503481  0.56598395  0.50839381  1
  H+  H54  1  0.15566337  1.00700959  0.75578091  1
  H+  H55  1  1.05033144  0.18859369  1.01798228  1
  H+  H56  1  0.69515934  0.52402617  0.24578764  1
  H+  H57  1  0.17847449  0.35580128  0.74099054  1
  H+  H58  1  0.21941712  0.11686829  0.39954270  1
  H+  H59  1  0.50096847  -0.05572285  0.25114740  1
  H+  H60  1  0.28942263  0.81951570  0.30568662  1
  H+  H61  1  0.53640040  0.84736482  0.98269958  1
  H+  H62  1  0.82495825  0.85912779  0.49345122  1
  H+  H63  1  0.18926025  0.17670856  0.26355922  1
  H+  H64  1  -0.00627637  0.11929289  0.51585478  1
  H+  H65  1  0.82830051  0.20149817  0.75752825  1
  H+  H66  1  0.17036249  0.69005109  0.74743487  1
  H+  H67  1  0.49275917  0.85688962  0.50782226  1
  H+  H68  1  0.52810114  0.69164875  1.01600591  1
  H+  H69  1  0.83006644  0.04297626  0.48921141  1
  H+  H70  1  0.37230048  -0.00455407  0.39951628  1
  H+  H71  1  0.85339943  0.71113861  0.48953165  1
  H+  H72  1  0.33559073  0.16047770  0.01028214  1
  H+  H73  1  0.71927156  0.87023607  0.00628402  1
  H+  H74  1  0.69485616  0.19808713  0.50920844  1
  H+  H75  1  0.21135497  0.75943756  0.66024368  1
  H+  H76  1  0.84841647  0.48777381  0.25611931  1
  H+  H77  1  0.64356082  0.15832143  0.48142785  1
  H+  H78  1  0.64758557  0.83647769  0.49348391  1
  H+  H79  1  0.87134061  0.03993571  0.99818658  1
  H+  H80  1  1.03424765  0.50490949  0.99996764  1
  H+  H81  1  0.50637813  0.28991980  0.02247649  1
  H+  H82  1  0.17403495  0.58117528  0.25603854  1
  H+  H83  1  0.85267932  0.70597940  0.99691517  1
  H+  H84  1  0.51583238  0.38524540  0.26504200  1
  H+  H85  1  0.83057315  0.85465939  0.01080966  1
  H+  H86  1  0.35927822  0.17775085  0.74198487  1
  H+  H87  1  0.15745321  0.87571662  0.26729737  1
  H+  H88  1  0.05937310  0.57873511  0.26040143  1
  H+  H89  1  0.35908145  0.51664735  0.73844104  1
  H+  H90  1  -0.02993501  0.82276961  0.26213914  1
  H+  H91  1  0.82232698  0.96886426  0.23694316  1
  H+  H92  1  0.11734893  0.83436234  0.72119877  1
  H+  H93  1  0.84957107  0.81912503  0.25686990  1
  H+  H94  1  0.54570152  0.35044443  0.48329616  1
  H+  H95  1  0.52306988  0.72103059  0.49690662  1
  H+  H96  1  0.15022297  -0.01276270  0.25254687  1
  H+  H97  1  0.64515297  0.81670655  0.26448508  1
  H+  H98  1  0.45004805  0.16402975  0.50448995  1
  H+  H99  1  0.50008035  0.57095150  -0.01298449  1
  H+  H100  1  0.24915710  0.31227119  0.50775412  1
  H+  H101  1  0.09196825  0.63056727  0.52584239  1
  H+  H102  1  0.18110800  0.58838665  0.51800981  1
  H+  H103  1  0.69279448  0.51335283  1.01343074  1
  H+  H104  1  0.54974905  0.82650378  0.75046271  1
  H+  H105  1  0.75427359  0.39515739  0.45918057  1
  H+  H106  1  0.35177207  0.18920208  0.51238004  1
  H+  H107  1  0.84014999  0.37602042  0.76467517  1
  H+  H108  1  0.10894001  0.55635409  0.66671791  1
  H+  H109  1  0.43864793  0.58165347  0.59838412  1
  H+  H110  1  0.88938074  0.77956515  0.39306481  1
  H+  H111  1  0.26992248  0.13430668  0.91578487  1
  H+  H112  1  0.45082913  0.88997988  0.65175922  1
  H+  H113  1  0.46161088  0.57470613  0.15340735  1
  H+  H114  1  0.54042725  0.42423831  0.89876525  1
  H+  H115  1  0.11129460  0.90327233  0.10586519  1
  H+  H116  1  0.59055586  0.43603894  0.39752156  1
  H+  H117  1  0.18527021  0.39384272  0.26228836  1
  H+  H118  1  0.87761500  0.44456136  0.90564511  1
  H+  H119  1  0.51717375  0.50372290  0.26780511  1
  H+  H120  1  0.46393414  0.23333814  0.16656134  1
  H+  H121  1  0.87746199  0.17867093  0.50042610  1
  H+  H122  1  0.56926879  0.78350637  0.35737593  1
  H+  H123  1  0.45320840  0.88550994  0.10397703  1
  H+  H124  1  0.22952186  0.80170602  0.91178998  1
  H+  H125  1  0.78733275  0.22617363  0.09984321  1
  H+  H126  1  0.77244064  0.56805064  0.66059292  1
  H+  H127  1  0.10696456  0.88276161  0.58020350  1
  H+  H128  1  0.21545287  0.42952497  0.83516954  1
  H+  H129  1  0.84417389  0.26726770  0.62712715  1
  H+  H130  1  0.52113166  0.08809421  0.33830674  1
  H+  H131  1  0.08124859  0.17689593  0.64862500  1
  H+  H132  1  0.87992716  0.44499293  0.34577774  1
  H+  H133  1  0.90431185  0.13890698  0.85991041  1
  H+  H134  1  0.56771380  0.11313492  0.90696859  1
  H+  H135  1  0.57993239  0.80520346  0.89413865  1
  H+  H136  1  0.70453926  0.19178296  0.73976997  1
  H+  H137  1  0.43395160  0.21512072  0.65126848  1
  H+  H138  1  0.88979283  0.11697621  0.34265020  1
  H+  H139  1  0.13166520  0.04955494  0.84671087  1
  H+  H140  1  0.96051251  0.49017008  0.76795264  1
  H+  H141  1  0.78292246  0.88904846  0.14853080  1
  H+  H142  1  0.76904794  0.55326132  0.10356719  1
  H+  H143  1  0.22580640  0.50090540  0.38743867  1
  O2-  O144  1  0.12317843  0.24642277  0.22617212  1
  O2-  O145  1  0.10205585  0.21101694  0.71271119  1
  O2-  O146  1  0.14206137  0.63238592  0.25890708  1
  O2-  O147  1  0.09853846  0.54113356  0.73331205  1
  O2-  O148  1  0.11298445  0.90487201  0.23532486  1
  O2-  O149  1  0.08709169  0.88375965  0.69913432  1
  O2-  O150  1  0.45496933  0.24396420  0.23338513  1
  O2-  O151  1  0.43834310  0.21717459  0.71985670  1
  O2-  O152  1  0.44817325  0.56387062  0.22049917  1
  O2-  O153  1  0.44169854  0.56272936  0.71945566  1
  O2-  O154  1  0.44679120  0.86849874  0.22711674  1
  O2-  O155  1  0.45688272  0.89098795  0.71963143  1
  O2-  O156  1  0.78754196  0.23078794  0.21733154  1
  O2-  O157  1  0.78743533  0.23959577  0.72609842  1
  O2-  O158  1  0.77409369  0.55695165  0.21962174  1
  O2-  O159  1  0.76775337  0.56624103  0.72884141  1
  O2-  O160  1  0.78095255  0.88730677  0.21747427  1
  O2-  O161  1  0.78298644  0.81461744  0.69866577  1
  O2-  O162  1  0.22508972  0.13097220  0.28559029  1
  O2-  O163  1  0.18625257  0.07688487  0.79618176  1
  O2-  O164  1  0.22855105  0.47540673  0.28122014  1
  O2-  O165  1  0.21691332  0.43563306  0.76471900  1
  O2-  O166  1  0.26535784  0.86480853  0.34355297  1
  O2-  O167  1  0.20868353  0.77142066  0.72597824  1
  O2-  O168  1  0.55864751  0.10975175  0.27556467  1
  O2-  O169  1  0.55913772  0.11254926  0.78601478  1
  O2-  O170  1  0.55952622  0.46422102  0.28959872  1
  O2-  O171  1  0.54708982  0.44159672  0.78648464  1
  O2-  O172  1  0.56536416  0.77413197  0.28919546  1
  O2-  O173  1  0.58265519  0.78159221  0.77634641  1
  O2-  O174  1  0.89475427  0.11488581  0.27495898  1
  O2-  O175  1  0.89562869  0.14574450  0.79331537  1
  O2-  O176  1  0.88983277  0.44863652  0.27860605  1
  O2-  O177  1  0.87855884  0.45698316  0.78681019  1
  O2-  O178  1  0.88789450  0.77715221  0.28106903  1
  O2-  O179  1  0.85991034  0.79359368  0.75532395  1
  O2-  O180  1  0.21999453  0.10785314  0.46740085  1
  O2-  O181  1  0.25905999  0.13506094  0.98170923  1
  O2-  O182  1  0.22416072  0.51054126  0.45652964  1
  O2-  O183  1  0.22028408  0.43573613  0.93862908  1
  O2-  O184  1  0.23201247  0.79929424  0.42915018  1
  O2-  O185  1  0.24355543  0.75930023  0.95838512  1
  O2-  O186  1  0.44511087  0.05095310  0.42937136  1
  O2-  O187  1  0.57075622  0.11223225  0.97496550  1
  O2-  O188  1  0.61516650  0.41268594  0.45379827  1
  O2-  O189  1  0.54164213  0.41668030  0.96756248  1
  O2-  O190  1  0.56685915  0.80170592  0.47042076  1
  O2-  O191  1  0.58482248  0.81486257  0.96162307  1
  O2-  O192  1  0.87931544  0.11930538  0.46163905  1
  O2-  O193  1  0.91437875  0.12244373  0.97887774  1
  O2-  O194  1  0.83800906  0.42964468  0.46446082  1
  O2-  O195  1  0.87896225  0.43724297  0.97322676  1
  O2-  O196  1  0.89576899  0.78889115  0.46148003  1
  O2-  O197  1  0.88894183  0.78561165  0.97503345  1
  O2-  O198  1  0.13064643  0.23393945  0.04207148  1
  O2-  O199  1  0.04620045  0.10907361  0.55687256  1
  O2-  O200  1  0.11617940  0.53612282  0.01326758  1
  O2-  O201  1  0.15035516  0.62486689  0.56039002  1
  O2-  O202  1  0.10678495  0.90506651  0.03885295  1
  O2-  O203  1  0.11243660  0.88163737  0.51250081  1
  O2-  O204  1  0.46933085  0.21432294  0.05383750  1
  O2-  O205  1  0.43263596  0.21942158  0.53425765  1
  O2-  O206  1  0.49774257  0.61209932  0.04033793  1
  O2-  O207  1  0.44354859  0.59507166  0.53156258  1
  O2-  O208  1  0.45523533  0.89286001  0.03633819  1
  O2-  O209  1  0.44023794  0.88520584  0.53144956  1
  O2-  O210  1  0.78714927  0.22133701  0.03182032  1
  O2-  O211  1  0.89195566  0.29427942  0.56880813  1
  O2-  O212  1  0.77243232  0.55288972  0.03524237  1
  O2-  O213  1  0.78806244  0.58071854  0.54487700  1
  O2-  O214  1  0.79628889  0.90223558  0.03503900  1
  O2-  O215  1  0.78369507  0.89393256  0.52494598  1
