# generated using pymatgen
data_H2O
_symmetry_space_group_name_H-M   'P 1'
_cell_length_a   13.51332752
_cell_length_b   13.54623520
_cell_length_c   14.69551364
_cell_angle_alpha   89.98526183
_cell_angle_beta   90.00977668
_cell_angle_gamma   119.91097590
_symmetry_Int_Tables_number   1
_chemical_formula_structural   H2O
_chemical_formula_sum   'H144 O72'
_cell_volume   2331.76722600
_cell_formula_units_Z   72
loop_
 _symmetry_equiv_pos_site_id
 _symmetry_equiv_pos_as_xyz
  1  'x, y, z'
loop_
 _atom_type_symbol
 _atom_type_oxidation_number
  H+  1.0
  O2-  -2.0
loop_
 _atom_site_type_symbol
 _atom_site_label
 _atom_site_symmetry_multiplicity
 _atom_site_fract_x
 _atom_site_fract_y
 _atom_site_fract_z
 _atom_site_occupancy
  H+  H0  1  0.86020985  0.03982789  0.75769640  1
  H+  H1  1  0.96628644  0.44531085  0.72255986  1
  H+  H2  1  0.50504286  0.62664308  0.24557112  1
  H+  H3  1  0.21962216  0.77551259  0.39337849  1
  H+  H4  1  0.85802320  0.15365238  0.74892328  1
  H+  H5  1  0.17068864  0.15795130  0.76420777  1
  H+  H6  1  0.08683509  0.74842520  0.72962987  1
  H+  H7  1  0.16006837  0.64435677  0.73575628  1
  H+  H8  1  0.78630852  0.57682467  0.57998587  1
  H+  H9  1  0.87823248  0.73528842  0.49730972  1
  H+  H10  1  0.65456825  0.47357111  0.24273781  1
  H+  H11  1  0.30076204  0.16239820  0.76438849  1
  H+  H12  1  0.85552704  0.13718067  0.02823661  1
  H+  H13  1  0.76905145  0.45282749  0.74099455  1
  H+  H14  1  0.01864087  0.52263261  0.50483231  1
  H+  H15  1  0.72355917  0.55133531  0.48705974  1
  H+  H16  1  0.62565545  0.51314052  0.69994042  1
  H+  H17  1  0.18848973  0.70050556  0.48460063  1
  H+  H18  1  0.16190331  0.20841261  1.00569362  1
  H+  H19  1  0.77194140  0.75288774  0.96822699  1
  H+  H20  1  0.49676945  0.50873539  0.01553649  1
  H+  H21  1  0.65399618  0.83658108  0.73562866  1
  H+  H22  1  0.18420657  0.64089485  0.78120465  1
  H+  H23  1  -0.00768700  0.88784795  -0.07920276  1
  H+  H24  1  0.96643069  0.89327470  0.96463465  1
  H+  H25  1  0.19002777  0.15126759  0.26697649  1
  H+  H26  1  0.49360447  0.28127139  0.24470409  1
  H+  H27  1  0.41487411  0.02048709  0.82452929  1
  H+  H28  1  0.68494458  0.15625143  0.48276273  1
  H+  H29  1  0.79841149  0.26741165  0.25453965  1
  H+  H30  1  0.22500476  0.52777607  0.97070141  1
  H+  H31  1  0.19500467  1.03603059  0.27602400  1
  H+  H32  1  0.40797628  0.53932991  0.70835887  1
  H+  H33  1  0.86868476  0.51728132  0.48191444  1
  H+  H34  1  0.69196478  0.86033601  0.24017175  1
  H+  H35  1  0.20763390  0.48270950  0.25969176  1
  H+  H36  1  0.52165176  0.51309902  0.82024325  1
  H+  H37  1  0.32056034  0.82215596  1.04904302  1
  H+  H38  1  0.78452873  0.59692940  -0.02974791  1
  H+  H39  1  0.78825134  0.41014125  0.83466947  1
  H+  H40  1  0.39069260  0.87297515  0.74881078  1
  H+  H41  1  0.38809269  0.51100107  0.24908395  1
  H+  H42  1  0.45683872  0.30058079  0.76653342  1
  H+  H43  1  0.80691119  0.42748951  0.27572507  1
  H+  H44  1  0.57174126  0.93365120  0.28836627  1
  H+  H45  1  0.54621628  0.85418131  1.00781966  1
  H+  H46  1  0.81807592  0.97522522  0.50927463  1
  H+  H47  1  0.06075508  0.87154521  0.53604469  1
  H+  H48  1  0.08710428  0.52067295  0.28900900  1
  H+  H49  1  0.18899575  1.02581503  -0.01198762  1
  H+  H50  1  0.45912899  0.18277687  0.76561417  1
  H+  H51  1  0.69411428  0.84635051  0.00326186  1
  H+  H52  1  0.94359120  0.46435940  0.26406148  1
  H+  H53  1  0.43568796  0.94134582  0.17623583  1
  H+  H54  1  0.54298450  0.03828520  1.01928161  1
  H+  H55  1  0.62668093  0.42463948  0.63409168  1
  H+  H56  1  0.13990333  0.28896385  0.51822052  1
  H+  H57  1  0.27033770  0.46920418  0.83066927  1
  H+  H58  1  0.83700213  0.71498847  0.30963830  1
  H+  H59  1  0.85211919  0.71200071  0.72590381  1
  H+  H60  1  0.64405172  0.82666256  0.47921856  1
  H+  H61  1  0.14927521  0.68353632  0.26823872  1
  H+  H62  1  0.05684647  0.52677308  1.03245232  1
  H+  H63  1  0.82494958  0.29766778  0.02357551  1
  H+  H64  1  0.76334670  0.26038955  0.71774742  1
  H+  H65  1  0.18450485  0.85387194  0.03758734  1
  H+  H66  1  0.14951912  0.28694418  0.25142148  1
  H+  H67  1  0.11393534  0.56103986  0.12880069  1
  H+  H68  1  0.34531393  0.53757220  -0.03346906  1
  H+  H69  1  0.03862748  0.86163733  0.25433227  1
  H+  H70  1  0.34783389  0.85373539  0.50427243  1
  H+  H71  1  0.50000930  0.83215195  0.22735021  1
  H+  H72  1  0.50064206  0.98514346  0.73632106  1
  H+  H73  1  0.36718380  0.17234745  0.25216624  1
  H+  H74  1  0.63076167  0.44590238  -0.00999874  1
  H+  H75  1  0.54651664  0.50524656  0.47266605  1
  H+  H76  1  0.83859915  0.82559853  0.26899864  1
  H+  H77  1  0.17938954  0.81304619  0.26932067  1
  H+  H78  1  0.21750238  0.36310943  0.75800398  1
  H+  H79  1  0.88054579  0.28888897  0.67895513  1
  H+  H80  1  0.16520467  0.18796677  0.51307931  1
  H+  H81  1  0.53032670  0.10133148  0.87184112  1
  H+  H82  1  0.38890932  0.53346489  0.49049326  1
  H+  H83  1  0.50273954  0.12021465  0.25548067  1
  H+  H84  1  0.96537476  0.14038913  0.48678500  1
  H+  H85  1  0.53927408  0.47570952  0.25228593  1
  H+  H86  1  0.16712163  0.85336678  0.52539133  1
  H+  H87  1  0.24588955  0.44668432  0.58256088  1
  H+  H88  1  0.52784636  0.71059030  0.71787305  1
  H+  H89  1  0.52652112  0.83771030  0.73163319  1
  H+  H90  1  0.84322397  0.13811738  0.47716805  1
  H+  H91  1  0.82756836  0.86349948  0.51811910  1
  H+  H92  1  0.92053909  0.58637592  0.19606546  1
  H+  H93  1  0.87142048  0.47993666  0.97716218  1
  H+  H94  1  0.81722543  0.96515016  0.23763484  1
  H+  H95  1  1.03134409  0.18313004  0.74477467  1
  H+  H96  1  0.84327121  0.13313793  0.25628007  1
  H+  H97  1  0.33253010  0.16468077  0.49202001  1
  H+  H98  1  0.85943730  1.02476678  0.01628376  1
  H+  H99  1  0.30400817  0.14260665  -0.01187124  1
  H+  H100  1  0.02993193  0.17016318  0.24731060  1
  H+  H101  1  0.92618372  0.82948744  0.42026255  1
  H+  H102  1  0.51334515  0.13995752  0.00905627  1
  H+  H103  1  0.88650817  0.09584616  0.34448979  1
  H+  H104  1  0.22659486  0.86830728  0.80352386  1
  H+  H105  1  0.47569648  0.27616693  0.02514811  1
  H+  H106  1  0.69978235  0.18603977  1.01918783  1
  H+  H107  1  0.50700895  0.65442904  0.47973168  1
  H+  H108  1  0.12509377  0.89859946  0.16945397  1
  H+  H109  1  0.81897256  0.85742506  0.73345509  1
  H+  H110  1  0.56026904  0.80530353  0.39412574  1
  H+  H111  1  0.62133976  0.11983298  0.25670670  1
  H+  H112  1  0.11197725  0.21172649  0.65588359  1
  H+  H113  1  0.21657420  0.11112766  0.85867964  1
  H+  H114  1  0.94105926  0.43754243  0.91470942  1
  H+  H115  1  0.87677097  0.67252984  0.18510991  1
  H+  H116  1  0.58710461  0.44904336  0.39691640  1
  H+  H117  1  0.23630749  0.44786392  0.35350954  1
  H+  H118  1  0.39437845  0.42076914  0.81061743  1
  H+  H119  1  0.81889676  0.73171424  0.87485902  1
  H+  H120  1  0.52825110  0.08128687  0.38024674  1
  H+  H121  1  0.76609283  0.20087930  0.56872370  1
  H+  H122  1  0.45832086  0.55869646  0.09455291  1
  H+  H123  1  0.47620041  0.99598304  0.48976894  1
  H+  H124  1  0.28102847  0.84283486  0.89255099  1
  H+  H125  1  0.03257937  0.44514448  0.63458040  1
  H+  H126  1  0.78094592  0.90013159  0.64421487  1
  H+  H127  1  0.97267990  0.81075171  0.75470750  1
  H+  H128  1  0.79743199  0.54523560  0.06515932  1
  H+  H129  1  0.10507394  0.60196963  0.58922683  1
  H+  H130  1  0.52155458  0.40698365  0.92471784  1
  H+  H131  1  0.12085765  0.85500797  0.66490706  1
  H+  H132  1  0.06563029  0.85110073  0.02914852  1
  H+  H133  1  0.48036869  0.58545085  0.61496959  1
  H+  H134  1  0.12662007  0.24194089  0.09379731  1
  H+  H135  1  0.76701039  0.85961395  0.09339711  1
  H+  H136  1  0.42955812  0.19277420  0.11083787  1
  H+  H137  1  0.52372174  0.73291556  0.97360995  1
  H+  H138  1  0.20642416  0.70681478  1.02582818  1
  H+  H139  1  0.89063591  0.44351538  0.40598211  1
  H+  H140  1  0.76564959  0.20134894  0.15930755  1
  H+  H141  1  0.18204201  0.49272756  0.52336458  1
  H+  H142  1  0.26176813  0.15330487  0.40385716  1
  H+  H143  1  0.43503600  0.90739209  0.59421674  1
  O2-  O144  1  0.11290716  0.20733593  0.23160285  1
  O2-  O145  1  0.11505283  0.21894440  0.72371739  1
  O2-  O146  1  0.05712687  0.54422370  0.23825672  1
  O2-  O147  1  0.00490650  0.40817214  0.69391535  1
  O2-  O148  1  0.11993870  0.89657368  0.23747804  1
  O2-  O149  1  0.10450680  0.82755259  0.73232479  1
  O2-  O150  1  0.44599754  0.20098091  0.22531704  1
  O2-  O151  1  0.42288883  0.22483595  0.73802962  1
  O2-  O152  1  0.46723746  0.54788575  0.22454062  1
  O2-  O153  1  0.48539140  0.59217299  0.68370121  1
  O2-  O154  1  0.42931692  0.87844743  0.13827408  1
  O2-  O155  1  0.46140812  0.90599881  0.71066407  1
  O2-  O156  1  0.75881677  0.18914158  0.22747332  1
  O2-  O157  1  0.79940346  0.22452540  0.68379115  1
  O2-  O158  1  0.85139641  0.59105702  0.18355151  1
  O2-  O159  1  0.67580105  0.48685805  0.67519935  1
  O2-  O160  1  0.77047773  0.88113523  0.22197771  1
  O2-  O161  1  0.77683953  0.89654033  0.71358504  1
  O2-  O162  1  0.23778178  0.11875113  0.29101491  1
  O2-  O163  1  0.21582207  0.11834606  0.78767534  1
  O2-  O164  1  0.24580804  0.44512847  0.28779967  1
  O2-  O165  1  0.28590593  0.43744961  0.77342637  1
  O2-  O166  1  0.20769503  0.76172396  0.28995034  1
  O2-  O167  1  0.29857427  0.88050438  0.83184331  1
  O2-  O168  1  0.53868669  0.07443560  0.27664473  1
  O2-  O169  1  0.49209843  0.08580120  0.81031817  1
  O2-  O170  1  0.57964631  0.43425246  0.27180925  1
  O2-  O171  1  0.47276338  0.43042883  0.82195474  1
  O2-  O172  1  0.55579922  0.85556532  0.27796332  1
  O2-  O173  1  0.56559335  0.79173471  0.74692590  1
  O2-  O174  1  0.88811803  0.09607645  0.27628532  1
  O2-  O175  1  0.90305457  0.12112139  0.77500915  1
  O2-  O176  1  0.86161796  0.40446853  0.29429185  1
  O2-  O177  1  0.81849229  0.42936909  0.77302117  1
  O2-  O178  1  0.88831672  0.79458418  0.29418401  1
  O2-  O179  1  0.88847872  0.78233418  0.76098834  1
  O2-  O180  1  0.27487012  0.18132462  0.46786233  1
  O2-  O181  1  0.22639578  0.10199480  0.95887665  1
  O2-  O182  1  0.22728092  0.45252724  0.51914620  1
  O2-  O183  1  0.28489245  0.53763751  0.92784698  1
  O2-  O184  1  0.22500772  0.78040429  0.46390701  1
  O2-  O185  1  0.25219317  0.79035406  1.00915614  1
  O2-  O186  1  0.53093459  0.08771844  0.45105195  1
  O2-  O187  1  0.56189264  0.10997755  0.98298672  1
  O2-  O188  1  0.59628115  0.47163253  0.46166002  1
  O2-  O189  1  0.54579497  0.40932172  0.98890763  1
  O2-  O190  1  0.56439476  0.78082584  0.45640492  1
  O2-  O191  1  0.57003413  0.81464041  0.96164588  1
  O2-  O192  1  0.88739764  0.09782826  0.46026841  1
  O2-  O193  1  0.90825638  0.10699221  1.02623847  1
  O2-  O194  1  0.90838198  0.47335617  0.46993419  1
  O2-  O195  1  0.91878445  0.44137207  0.97704103  1
  O2-  O196  1  0.92114319  0.82003973  0.48705143  1
  O2-  O197  1  0.76858782  0.69204064  0.92670734  1
  O2-  O198  1  0.17642314  0.27568577  0.04075147  1
  O2-  O199  1  0.10725419  0.20854807  0.53611027  1
  O2-  O200  1  0.13222159  0.57125818  0.06206366  1
  O2-  O201  1  0.10238358  0.55712685  0.53639321  1
  O2-  O202  1  0.14231177  0.89652954  0.05400224  1
  O2-  O203  1  0.13433787  0.88954562  0.56474581  1
  O2-  O204  1  0.43027495  0.19353908  0.04256060  1
  O2-  O205  1  0.48704714  0.16237510  0.47590002  1
  O2-  O206  1  0.46727374  0.56134728  0.02801899  1
  O2-  O207  1  0.47119233  0.57212579  0.50377177  1
  O2-  O208  1  0.53510486  0.93744307  0.08386268  1
  O2-  O209  1  0.43006334  0.90427197  0.52637403  1
  O2-  O210  1  0.77675651  0.22051284  0.04858919  1
  O2-  O211  1  0.76522080  0.19158119  0.50170079  1
  O2-  O212  1  0.78013725  0.52592858  0.00002842  1
  O2-  O213  1  0.80410529  0.59483293  0.51516724  1
  O2-  O214  1  0.77016237  0.85831527  0.02636967  1
  O2-  O215  1  0.77738913  0.89527386  0.53578651  1
