# generated using pymatgen
data_H2O
_symmetry_space_group_name_H-M   'P 1'
_cell_length_a   13.50883633
_cell_length_b   13.51663324
_cell_length_c   14.68211063
_cell_angle_alpha   90.01775572
_cell_angle_beta   89.99250655
_cell_angle_gamma   120.03929684
_symmetry_Int_Tables_number   1
_chemical_formula_structural   H2O
_chemical_formula_sum   'H144 O72'
_cell_volume   2320.77728037
_cell_formula_units_Z   72
loop_
 _symmetry_equiv_pos_site_id
 _symmetry_equiv_pos_as_xyz
  1  'x, y, z'
loop_
 _atom_type_symbol
 _atom_type_oxidation_number
  H+  1.0
  O2-  -2.0
loop_
 _atom_site_type_symbol
 _atom_site_label
 _atom_site_symmetry_multiplicity
 _atom_site_fract_x
 _atom_site_fract_y
 _atom_site_fract_z
 _atom_site_occupancy
  H+  H0  1  0.42877931  0.88859308  0.09053201  1
  H+  H1  1  0.77323308  0.88306774  0.14143682  1
  H+  H2  1  0.38508193  0.77005167  0.20109638  1
  H+  H3  1  0.62103033  0.13194339  0.75247631  1
  H+  H4  1  0.82369386  -0.03382727  0.99975036  1
  H+  H5  1  0.13286357  0.85368010  0.50792093  1
  H+  H6  1  0.52980790  0.00484138  0.28511008  1
  H+  H7  1  0.62868952  0.80354732  0.75743918  1
  H+  H8  1  0.16906345  0.35645529  0.50137864  1
  H+  H9  1  0.45976368  0.12627416  0.23884469  1
  H+  H10  1  0.84643131  0.81560210  0.25308939  1
  H+  H11  1  0.88159997  0.76916350  0.40013190  1
  H+  H12  1  0.49420962  0.63655521  0.23022693  1
  H+  H13  1  0.82292105  0.62837836  0.23083630  1
  H+  H14  1  0.82919656  0.35558181  0.49220150  1
  H+  H15  1  0.29500851  0.18745030  0.26591236  1
  H+  H16  1  0.45826118  0.56384229  0.09266117  1
  H+  H17  1  0.49798516  0.14536782  0.48773456  1
  H+  H18  1  0.80938830  0.82622315  0.76211435  1
  H+  H19  1  0.13898158  0.84151312  0.02652899  1
  H+  H20  1  0.83694502  0.03537490  0.20584030  1
  H+  H21  1  0.68940544  0.15046794  0.26280034  1
  H+  H22  1  0.47085364  0.51087633  0.51571463  1
  H+  H23  1  0.48421647  0.35760250  0.24241483  1
  H+  H24  1  0.28710235  0.12612272  0.75500452  1
  H+  H25  1  0.82788414  0.46676894  0.25094689  1
  H+  H26  1  0.14077773  -0.04132802  1.01461424  1
  H+  H27  1  0.51403870  0.16755545  0.21459996  1
  H+  H28  1  0.13623780  0.62819862  0.02105619  1
  H+  H29  1  0.62282154  0.14619534  0.98414842  1
  H+  H30  1  0.49604407  0.80473737  0.50101867  1
  H+  H31  1  0.46213094  0.24678318  0.76419694  1
  H+  H32  1  0.80112708  0.30475464  0.74684468  1
  H+  H33  1  0.16811767  0.13349027  0.98548358  1
  H+  H34  1  0.48058183  0.53669616  0.74440264  1
  H+  H35  1  0.50925360  0.48503540  0.98602262  1
  H+  H36  1  0.11031268  0.55626885  0.66318703  1
  H+  H37  1  0.29135903  0.47313216  0.49816507  1
  H+  H38  1  0.62272677  0.47442359  0.98985176  1
  H+  H39  1  0.49354602  0.68610646  0.49479508  1
  H+  H40  1  0.50523568  0.14870182  -0.01567703  1
  H+  H41  1  0.18310689  0.38126637  0.99275956  1
  H+  H42  1  0.55482931  0.42340312  0.74654182  1
  H+  H43  1  0.79323707  0.16789510  0.53422526  1
  H+  H44  1  0.75278620  0.53000378  0.61577845  1
  H+  H45  1  0.62474385  0.56546611  0.32625375  1
  H+  H46  1  0.17912329  0.71008689  0.49237477  1
  H+  H47  1  0.94043896  0.45567785  0.25851515  1
  H+  H48  1  0.34375458  0.84416132  0.53008302  1
  H+  H49  1  0.13588810  0.17566105  0.51438005  1
  H+  H50  1  0.72548816  0.55884312  0.76100004  1
  H+  H51  1  0.86358273  0.08334185  0.63548784  1
  H+  H52  1  0.83392135  0.79788234  0.48937326  1
  H+  H53  1  0.36979017  0.52796175  0.00765067  1
  H+  H54  1  0.95556286  0.47511639  1.00159841  1
  H+  H55  1  0.14264421  0.95457210  0.73321836  1
  H+  H56  1  -0.01669575  0.17697790  0.74975592  1
  H+  H57  1  0.14766281  0.73860559  0.27907895  1
  H+  H58  1  0.17774439  0.86496886  0.26596155  1
  H+  H59  1  0.33541678  0.84321138  0.24021418  1
  H+  H60  1  0.13654799  0.58909642  0.24848008  1
  H+  H61  1  0.69647977  0.51870630  0.24271076  1
  H+  H62  1  0.46981302  0.30113924  -0.00289269  1
  H+  H63  1  -0.03102875  0.15695275  -0.02327877  1
  H+  H64  1  0.79558606  0.93867524  0.53951641  1
  H+  H65  1  0.77178142  0.46714489  0.53112939  1
  H+  H66  1  0.16507787  0.45346630  0.26990825  1
  H+  H67  1  0.51539904  0.82242462  0.98902504  1
  H+  H68  1  0.70117835  0.85330071  0.00125600  1
  H+  H69  1  0.14222061  0.51379519  0.01385160  1
  H+  H70  1  0.52893872  0.83095894  0.27296677  1
  H+  H71  1  0.16829523  0.31494243  0.74796175  1
  H+  H72  1  0.84866142  0.14956871  -0.01845969  1
  H+  H73  1  0.47575266  0.65199491  0.74137223  1
  H+  H74  1  0.70204606  0.85754760  0.23622640  1
  H+  H75  1  0.47096324  0.96877330  1.00178744  1
  H+  H76  1  0.29041010  0.80990003  0.99004405  1
  H+  H77  1  0.12764379  0.23571800  0.11494869  1
  H+  H78  1  0.18113711  0.48745172  0.76747578  1
  H+  H79  1  0.15931189  0.18981106  0.74461891  1
  H+  H80  1  0.14377010  0.63127190  0.75193730  1
  H+  H81  1  0.30623895  0.49916322  0.76515416  1
  H+  H82  1  0.51659878  0.53226405  0.23207480  1
  H+  H83  1  0.95923156  0.48081656  0.76888521  1
  H+  H84  1  0.19250275  0.83284421  0.74225616  1
  H+  H85  1  0.31953209  0.77935720  0.67739431  1
  H+  H86  1  0.96800600  0.82646762  0.25695508  1
  H+  H87  1  0.79750798  0.61466699  0.00041455  1
  H+  H88  1  0.12855065  0.17404469  0.24659108  1
  H+  H89  1  0.16958543  0.52777738  0.52174472  1
  H+  H90  1  0.28792801  0.13938531  0.98338132  1
  H+  H91  1  0.47082309  0.13815739  0.73835877  1
  H+  H92  1  0.83102367  0.53705670  0.76005052  1
  H+  H93  1  0.55611880  0.77797300  0.35769082  1
  H+  H94  1  0.13553610  0.29634058  0.25236638  1
  H+  H95  1  0.80545628  0.29335361  1.00774515  1
  H+  H96  1  0.16326429  0.02749416  0.48869417  1
  H+  H97  1  0.60654807  0.45858293  0.51005466  1
  H+  H98  1  0.67770675  0.82623663  0.51370705  1
  H+  H99  1  1.01005220  0.84642529  0.50519428  1
  H+  H100  1  0.82741291  0.80251063  0.95359983  1
  H+  H101  1  0.83522280  0.47282954  0.99820081  1
  H+  H102  1  0.96006781  0.16006492  0.21055939  1
  H+  H103  1  0.94769854  0.12889882  0.55234448  1
  H+  H104  1  0.15128518  -0.00162399  0.24291233  1
  H+  H105  1  0.79578528  0.28760755  0.24551029  1
  H+  H106  1  0.23708563  0.28555676  0.05305501  1
  H+  H107  1  0.86758580  0.70931134  0.80460705  1
  H+  H108  1  0.20208482  0.76497243  0.90779983  1
  H+  H109  1  0.46166986  0.29710064  0.51308753  1
  H+  H110  1  0.82273367  0.16470704  0.21224449  1
  H+  H111  1  0.10563975  0.88014101  0.64270701  1
  H+  H112  1  0.11341218  0.90947334  0.15529098  1
  H+  H113  1  0.54942561  0.77853800  0.84339941  1
  H+  H114  1  0.24143810  0.64333682  0.57718464  1
  H+  H115  1  0.54129684  0.08741528  0.83909004  1
  H+  H116  1  0.76782885  0.83877393  0.66237748  1
  H+  H117  1  0.86506019  0.11502796  0.36017044  1
  H+  H118  1  0.61416491  0.14454553  0.50390983  1
  H+  H119  1  0.85766084  0.43481661  0.40658969  1
  H+  H120  1  0.42800519  0.21292965  0.59965395  1
  H+  H121  1  0.75571771  0.22562481  0.60674125  1
  H+  H122  1  0.42872724  0.23623871  0.09010035  1
  H+  H123  1  0.22278765  0.45876012  0.90251549  1
  H+  H124  1  0.81512135  0.19485315  0.73726388  1
  H+  H125  1  0.20601403  0.09391101  0.84246171  1
  H+  H126  1  0.21895054  0.80061469  0.40908365  1
  H+  H127  1  0.56169069  0.46468440  0.85094979  1
  H+  H128  1  0.20584737  0.41999862  0.36105082  1
  H+  H129  1  0.75732095  0.20673979  0.09102622  1
  H+  H130  1  0.21818888  0.12518670  0.35617938  1
  H+  H131  1  0.31220121  0.86220025  0.79153579  1
  H+  H132  1  0.54892832  0.44330926  0.41022306  1
  H+  H133  1  0.38751421  0.35554802  0.18789621  1
  H+  H134  1  0.28465270  0.14575140  0.49459556  1
  H+  H135  1  0.88016978  0.44024488  0.85792984  1
  H+  H136  1  0.09394652  0.52931284  0.15196307  1
  H+  H137  1  0.76679748  0.54847022  0.09793087  1
  H+  H138  1  0.56945059  0.07839065  0.37778346  1
  H+  H139  1  0.88612498  0.10998445  0.82298141  1
  H+  H140  1  0.43273851  0.55626212  0.60387394  1
  H+  H141  1  0.11551436  0.22577268  0.60733358  1
  H+  H142  1  0.52026113  0.70633105  0.98898439  1
  H+  H143  1  0.84936950  0.08496151  0.40540076  1
  O2-  O144  1  0.09368849  0.21757249  0.21882066  1
  O2-  O145  1  0.12469953  0.23591060  0.72241470  1
  O2-  O146  1  0.08653634  0.51548295  0.22035825  1
  O2-  O147  1  0.10222362  0.55127941  0.73134740  1
  O2-  O148  1  0.11228378  0.91574284  0.22493201  1
  O2-  O149  1  0.11904262  0.87709031  0.70954039  1
  O2-  O150  1  0.41627394  0.30470904  0.20519508  1
  O2-  O151  1  0.42795702  0.18216864  0.72263628  1
  O2-  O152  1  0.46957122  0.56249741  0.20038229  1
  O2-  O153  1  0.43259978  0.56701655  0.72024781  1
  O2-  O154  1  0.40588605  0.84950999  0.21110709  1
  O2-  O155  1  0.35475948  0.75455130  0.62906136  1
  O2-  O156  1  0.75810186  0.20570861  0.22118257  1
  O2-  O157  1  0.76314897  0.22541760  0.72194553  1
  O2-  O158  1  0.77645919  0.54792071  0.20964543  1
  O2-  O159  1  0.80621487  0.59255100  0.74131274  1
  O2-  O160  1  0.78013844  0.89784332  0.20875767  1
  O2-  O161  1  0.76350532  0.85178816  0.72806961  1
  O2-  O162  1  0.21730419  0.13036919  0.28728490  1
  O2-  O163  1  0.20660473  0.09843315  0.77465130  1
  O2-  O164  1  0.20339886  0.41267741  0.29292257  1
  O2-  O165  1  0.22595321  0.45247397  0.79129591  1
  O2-  O166  1  0.21147760  0.81512706  0.29056978  1
  O2-  O167  1  0.24129870  0.79771924  0.76879793  1
  O2-  O168  1  0.59750386  0.05828293  0.31923776  1
  O2-  O169  1  0.53953444  0.08362178  0.77170205  1
  O2-  O170  1  0.59055622  0.49258406  0.29375404  1
  O2-  O171  1  0.57627418  0.48968863  0.78499571  1
  O2-  O172  1  0.56544997  0.78649326  0.28951548  1
  O2-  O173  1  0.54688347  0.77346213  0.77625027  1
  O2-  O174  1  0.87565571  0.12089866  0.19313846  1
  O2-  O175  1  0.89870927  0.13665296  0.75931327  1
  O2-  O176  1  0.85902924  0.41838824  0.27670732  1
  O2-  O177  1  0.87827291  0.44420837  0.79008956  1
  O2-  O178  1  0.88652392  0.77515819  0.27402575  1
  O2-  O179  1  0.89290575  0.78296949  0.84004478  1
  O2-  O180  1  0.20584046  0.10963483  0.46739847  1
  O2-  O181  1  0.20736899  0.09425185  0.96081064  1
  O2-  O182  1  0.21018996  0.43605375  0.47597576  1
  O2-  O183  1  0.22137800  0.46151377  0.97161270  1
  O2-  O184  1  0.21529809  0.79288966  0.47639849  1
  O2-  O185  1  0.20671336  0.76439348  0.97472042  1
  O2-  O186  1  0.53791400  0.10252661  0.47367785  1
  O2-  O187  1  0.54148960  0.10466276  0.96291849  1
  O2-  O188  1  0.53159046  0.43464713  0.47702082  1
  O2-  O189  1  0.54410409  0.43912472  0.96227548  1
  O2-  O190  1  0.53469283  0.76714256  0.47167447  1
  O2-  O191  1  0.56123844  0.78774737  0.96841363  1
  O2-  O192  1  0.86478037  0.08352988  0.56830344  1
  O2-  O193  1  0.88958100  0.11089812  0.95716996  1
  O2-  O194  1  0.86114495  0.43661996  0.47356370  1
  O2-  O195  1  0.87619867  0.43220737  0.97686988  1
  O2-  O196  1  0.88519802  0.76966521  0.46734768  1
  O2-  O197  1  0.83252124  0.73750592  0.92646318  1
  O2-  O198  1  0.15403325  0.24814022  0.04810439  1
  O2-  O199  1  0.09869064  0.21759075  0.54042083  1
  O2-  O200  1  0.09739199  0.54699794  0.04248023  1
  O2-  O201  1  0.16277711  0.59000113  0.55331097  1
  O2-  O202  1  0.10630223  0.88716520  0.05086797  1
  O2-  O203  1  0.09236601  0.89393465  0.52879812  1
  O2-  O204  1  0.42853271  0.22194506  0.02402216  1
  O2-  O205  1  0.42131626  0.21464154  0.53263865  1
  O2-  O206  1  0.45215681  0.56294281  0.02329887  1
  O2-  O207  1  0.42921119  0.55135138  0.53559353  1
  O2-  O208  1  0.43032558  0.88700269  0.02317892  1
  O2-  O209  1  0.41036226  0.85372726  0.56778127  1
  O2-  O210  1  0.76364062  0.20962797  0.02397045  1
  O2-  O211  1  0.75604454  0.21493099  0.53915908  1
  O2-  O212  1  0.76029285  0.53828054  0.02917686  1
  O2-  O213  1  0.71215197  0.47204243  0.56868548  1
  O2-  O214  1  0.78257820  0.88577100  0.02189612  1
  O2-  O215  1  0.75624703  0.85352784  0.53704416  1
