# generated using pymatgen
data_H2O
_symmetry_space_group_name_H-M   'P 1'
_cell_length_a   13.49431445
_cell_length_b   13.50218146
_cell_length_c   14.69525526
_cell_angle_alpha   89.98446676
_cell_angle_beta   89.99496784
_cell_angle_gamma   120.02412687
_symmetry_Int_Tables_number   1
_chemical_formula_structural   H2O
_chemical_formula_sum   'H144 O72'
_cell_volume   2318.23183586
_cell_formula_units_Z   72
loop_
 _symmetry_equiv_pos_site_id
 _symmetry_equiv_pos_as_xyz
  1  'x, y, z'
loop_
 _atom_type_symbol
 _atom_type_oxidation_number
  H+  1.0
  O2-  -2.0
loop_
 _atom_site_type_symbol
 _atom_site_label
 _atom_site_symmetry_multiplicity
 _atom_site_fract_x
 _atom_site_fract_y
 _atom_site_fract_z
 _atom_site_occupancy
  H+  H0  1  0.54222709  0.94404964  0.68381481  1
  H+  H1  1  0.16909000  0.36058570  0.76433850  1
  H+  H2  1  0.01467341  0.82590191  0.72333997  1
  H+  H3  1  0.62946962  0.83163945  0.19624449  1
  H+  H4  1  0.79659070  0.87559220  0.28874508  1
  H+  H5  1  0.43217336  0.55240296  0.66621390  1
  H+  H6  1  0.87126763  0.14782886  0.98906832  1
  H+  H7  1  0.50626677  0.48922007  0.76643990  1
  H+  H8  1  0.46770541  0.85352798  0.21308564  1
  H+  H9  1  0.78558385  0.88787879  0.46308317  1
  H+  H10  1  0.31845635  0.17635471  0.77037745  1
  H+  H11  1  0.49493205  0.15064556  0.00728336  1
  H+  H12  1  0.61789122  0.83547476  0.51511797  1
  H+  H13  1  0.84226368  0.47605536  0.76564957  1
  H+  H14  1  0.52502212  0.77878454  0.43946329  1
  H+  H15  1  0.84229829  0.29426490  1.01591767  1
  H+  H16  1  0.69359562  0.86003485  1.01069802  1
  H+  H17  1  0.31172104  0.79999580  0.97887132  1
  H+  H18  1  0.14935987  0.79458235  0.48064910  1
  H+  H19  1  0.35633423  0.49783223  -0.00335576  1
  H+  H20  1  0.22399143  0.06624930  0.24307132  1
  H+  H21  1  0.03422449  0.17140466  0.00780542  1
  H+  H22  1  0.70268890  0.50947097  0.24658821  1
  H+  H23  1  0.81730319  0.29692390  0.75277481  1
  H+  H24  1  0.48459705  0.19272428  0.74619576  1
  H+  H25  1  0.76945383  -0.02548634  0.21027413  1
  H+  H26  1  0.36269543  0.51754414  0.52837780  1
  H+  H27  1  0.16394192  0.29637523  0.22453500  1
  H+  H28  1  0.48428908  0.84475305  0.75502885  1
  H+  H29  1  0.84544856  0.47697142  0.49549577  1
  H+  H30  1  0.14070750  0.51056892  0.52935612  1
  H+  H31  1  0.80781397  0.29620441  0.52429767  1
  H+  H32  1  0.77351837  0.54413317  0.64902534  1
  H+  H33  1  0.86224951  0.48535173  1.00453970  1
  H+  H34  1  0.32451259  0.50173567  0.22010041  1
  H+  H35  1  0.52932152  0.50650562  0.49989511  1
  H+  H36  1  0.85281002  0.14649392  0.76312927  1
  H+  H37  1  0.46682033  0.97377572  0.00762950  1
  H+  H38  1  0.78446913  0.90402965  0.57634018  1
  H+  H39  1  0.40309084  0.88480970  0.60540388  1
  H+  H40  1  0.03873928  0.18344049  0.52102672  1
  H+  H41  1  0.81866849  0.16821218  0.25423776  1
  H+  H42  1  0.16774534  0.66229564  0.22528780  1
  H+  H43  1  0.03262437  0.17747044  0.74746506  1
  H+  H44  1  0.48580829  0.31939685  0.03703720  1
  H+  H45  1  0.28768860  0.82637978  0.25488867  1
  H+  H46  1  0.85293754  0.05581492  0.49610013  1
  H+  H47  1  0.29990549  0.82192493  0.74897985  1
  H+  H48  1  0.08563691  -0.05783428  0.27329336  1
  H+  H49  1  0.81634512  0.49859963  0.24866163  1
  H+  H50  1  0.48903322  0.64640469  0.20040467  1
  H+  H51  1  0.16912640  0.48114779  0.76712471  1
  H+  H52  1  0.17937998  0.35284378  0.99365365  1
  H+  H53  1  0.84065637  0.85388805  0.70772676  1
  H+  H54  1  0.15401866  0.50551346  0.01255646  1
  H+  H55  1  0.84681197  -0.02433112  0.71513070  1
  H+  H56  1  0.84515857  0.64645751  0.51667747  1
  H+  H57  1  0.93738683  0.85685646  0.52127759  1
  H+  H58  1  0.34532883  0.50439146  0.75191178  1
  H+  H59  1  0.14060803  0.83769890  0.72206346  1
  H+  H60  1  0.16761872  0.63066886  -0.00547600  1
  H+  H61  1  0.49215082  0.81652674  0.99741468  1
  H+  H62  1  0.19221024  0.17165172  0.77277441  1
  H+  H63  1  0.53589322  0.78432923  0.11567881  1
  H+  H64  1  0.17911110  0.35055669  0.52592377  1
  H+  H65  1  0.63704520  0.13104532  0.49136679  1
  H+  H66  1  0.63706063  0.16203524  0.77403930  1
  H+  H67  1  0.68356519  0.50246692  0.99677726  1
  H+  H68  1  0.89096494  0.64988278  0.05607582  1
  H+  H69  1  0.51745094  0.04694643  0.77651360  1
  H+  H70  1  0.18362182  0.70118385  0.75328114  1
  H+  H71  1  0.71501924  0.53980026  0.50576253  1
  H+  H72  1  0.83847780  0.68336775  0.74725631  1
  H+  H73  1  0.82434208  0.18877881  0.52360936  1
  H+  H74  1  0.81483541  0.70168678  -0.02914870  1
  H+  H75  1  -0.00911230  0.81895968  0.01955682  1
  H+  H76  1  0.47325987  -0.02618905  0.23765144  1
  H+  H77  1  0.51017659  1.02154318  0.48789923  1
  H+  H78  1  0.18778375  0.16524690  0.99220639  1
  H+  H79  1  0.85987095  0.02419211  0.98631483  1
  H+  H80  1  0.49426946  0.69484965  -0.00466894  1
  H+  H81  1  0.49391076  0.31617271  0.25622079  1
  H+  H82  1  0.17342116  0.17926792  0.24197094  1
  H+  H83  1  0.13574910  0.62642482  0.51336997  1
  H+  H84  1  0.37126102  0.19965690  0.25850668  1
  H+  H85  1  0.44865266  0.84205934  0.52565621  1
  H+  H86  1  0.52203663  0.15650865  0.26356119  1
  H+  H87  1  0.16845174  0.02024102  0.47692695  1
  H+  H88  1  0.09397195  0.83141387  0.26545237  1
  H+  H89  1  0.80534783  0.21244868  0.10256405  1
  H+  H90  1  0.02692929  0.51832620  0.75277179  1
  H+  H91  1  0.52642292  0.50056496  0.26095548  1
  H+  H92  1  0.27181197  0.80487186  0.48851030  1
  H+  H93  1  0.15328153  0.17417914  0.51373264  1
  H+  H94  1  0.95994200  0.47202803  0.50103651  1
  H+  H95  1  0.84590651  0.35132133  0.26542887  1
  H+  H96  1  0.48614155  0.31227200  0.74693163  1
  H+  H97  1  0.13140453  0.57530883  0.12073319  1
  H+  H98  1  0.35304984  0.19920659  0.50799973  1
  H+  H99  1  0.47436221  0.64299096  0.53423865  1
  H+  H100  1  0.48057490  0.68242047  0.77706533  1
  H+  H101  1  0.69985610  0.16734318  0.24212677  1
  H+  H102  1  0.81973681  0.82137521  0.97624822  1
  H+  H103  1  0.68842682  0.50692581  0.73550379  1
  H+  H104  1  0.77025181  0.89115915  0.10141636  1
  H+  H105  1  0.18083067  0.54272183  0.21721603  1
  H+  H106  1  0.97644689  0.48147668  0.99220145  1
  H+  H107  1  0.48148441  0.51109972  -0.01376064  1
  H+  H108  1  0.88546598  0.44209282  0.85710841  1
  H+  H109  1  0.89625207  0.10224700  0.84706196  1
  H+  H110  1  0.62618575  0.38471179  0.94866504  1
  H+  H111  1  0.45380359  0.54462998  0.13204339  1
  H+  H112  1  0.54012828  0.12120094  0.91632304  1
  H+  H113  1  0.11669636  0.21630781  0.66050265  1
  H+  H114  1  0.52833674  0.76819534  0.86322749  1
  H+  H115  1  0.52232953  0.38697205  0.49397007  1
  H+  H116  1  0.91395599  0.13845619  0.41219219  1
  H+  H117  1  0.21443188  0.43428529  0.90439437  1
  H+  H118  1  0.44132650  0.23814300  0.12526213  1
  H+  H119  1  0.19657128  0.42303519  0.43940092  1
  H+  H120  1  0.10206052  0.55545895  0.66162502  1
  H+  H121  1  -0.00561044  0.14856798  0.27013622  1
  H+  H122  1  0.56726801  0.46029480  0.84898848  1
  H+  H123  1  0.31261801  0.17420024  -0.00180909  1
  H+  H124  1  0.77401698  0.21690356  0.66426414  1
  H+  H125  1  0.02520297  0.82215778  0.12269482  1
  H+  H126  1  0.42109675  0.89414562  0.09660495  1
  H+  H127  1  0.89950731  0.03087102  0.31588390  1
  H+  H128  1  0.87174450  0.77339531  0.82883079  1
  H+  H129  1  0.79530211  0.55745436  0.12002348  1
  H+  H130  1  0.88084442  0.42712167  0.35456799  1
  H+  H131  1  0.89456443  0.85734465  0.33476204  1
  H+  H132  1  0.56221601  0.46536256  0.35551790  1
  H+  H133  1  0.55898926  0.10185781  0.34472755  1
  H+  H134  1  0.56886870  0.78577141  0.33608733  1
  H+  H135  1  0.42801376  0.24018248  0.59805694  1
  H+  H136  1  0.24370801  0.46065982  0.30502356  1
  H+  H137  1  0.21387513  0.10648898  0.38976240  1
  H+  H138  1  0.11324301  0.21201804  0.10025211  1
  H+  H139  1  0.24210547  0.14213519  0.87986535  1
  H+  H140  1  0.57494171  0.73360300  0.34227419  1
  H+  H141  1  0.20524284  0.76815336  0.34165985  1
  H+  H142  1  0.23209785  0.76001690  0.88778551  1
  H+  H143  1  0.08673211  0.86258037  0.60235574  1
  O2-  O144  1  0.12285187  0.21357596  0.21307634  1
  O2-  O145  1  0.11603792  0.22232627  0.72854163  1
  O2-  O146  1  0.13931937  0.58291042  0.19514904  1
  O2-  O147  1  0.10793576  0.55854603  0.72969268  1
  O2-  O148  1  0.04370735  0.86317493  0.25120239  1
  O2-  O149  1  0.09242476  0.86615541  0.69356065  1
  O2-  O150  1  0.45269096  0.23536100  0.23364000  1
  O2-  O151  1  0.44167463  0.23131403  0.72532423  1
  O2-  O152  1  0.45409069  0.55954596  0.19854664  1
  O2-  O153  1  0.42844387  0.54711710  0.73429690  1
  O2-  O154  1  0.42245164  0.89417781  0.21314170  1
  O2-  O155  1  0.47312259  0.90687152  0.72114462  1
  O2-  O156  1  0.78206747  0.20600945  0.22288525  1
  O2-  O157  1  0.77388589  0.21521561  0.73278079  1
  O2-  O158  1  0.78163157  0.54341609  0.22268499  1
  O2-  O159  1  0.77020039  0.54070119  0.71704924  1
  O2-  O160  1  0.74722619  0.89429578  0.20265099  1
  O2-  O161  1  0.82133463  0.90724734  0.67608179  1
  O2-  O162  1  0.23379141  0.12846217  0.28236492  1
  O2-  O163  1  0.23956748  0.13984331  0.80039569  1
  O2-  O164  1  0.23954663  0.46270066  0.23910867  1
  O2-  O165  1  0.20934380  0.44023903  0.78963181  1
  O2-  O166  1  0.20555431  0.77571747  0.27386949  1
  O2-  O167  1  0.22079821  0.78420297  0.77095739  1
  O2-  O168  1  0.55686789  0.10787454  0.27630919  1
  O2-  O169  1  0.55532956  0.12842691  0.79478362  1
  O2-  O170  1  0.56070058  0.45709673  0.28784479  1
  O2-  O171  1  0.55297389  0.45214115  0.78282194  1
  O2-  O172  1  0.53706964  0.78115730  0.18235535  1
  O2-  O173  1  0.51540091  0.76375653  0.79673662  1
  O2-  O174  1  0.91819779  0.11089882  0.30210138  1
  O2-  O175  1  0.89709313  0.10771316  0.77870484  1
  O2-  O176  1  0.88273970  0.43135258  0.28730334  1
  O2-  O177  1  0.88687567  0.44043530  0.78879992  1
  O2-  O178  1  0.84255857  0.88601819  0.34875161  1
  O2-  O179  1  0.88219191  0.76679824  0.76207213  1
  O2-  O180  1  0.20616749  0.10169163  0.45931878  1
  O2-  O181  1  0.23744075  0.13533440  0.96508217  1
  O2-  O182  1  0.21255684  0.43341522  0.50426898  1
  O2-  O183  1  0.22144485  0.43505328  0.97257343  1
  O2-  O184  1  0.19425007  0.75753413  0.46033110  1
  O2-  O185  1  0.24424273  0.73506241  0.94800468  1
  O2-  O186  1  0.56625884  0.09002675  0.45453484  1
  O2-  O187  1  0.52868592  0.10617529  0.98256873  1
  O2-  O188  1  0.57017205  0.46911046  0.47356705  1
  O2-  O189  1  0.61047626  0.44536664  0.96613463  1
  O2-  O190  1  0.53153770  0.78498328  0.50590888  1
  O2-  O191  1  0.53936368  0.77881856  0.98502653  1
  O2-  O192  1  0.90808530  0.13763436  0.48063980  1
  O2-  O193  1  0.90727947  0.10368734  0.96159061  1
  O2-  O194  1  0.87973249  0.42937786  0.47796271  1
  O2-  O195  1  0.89441216  0.44164672  0.97354497  1
  O2-  O196  1  0.96261277  0.80399411  0.50057224  1
  O2-  O197  1  0.84924641  0.77668174  0.94128581  1
  O2-  O198  1  0.11546210  0.21843600  0.03158866  1
  O2-  O199  1  0.11924771  0.21698674  0.54508919  1
  O2-  O200  1  0.11883501  0.55301898  0.03016900  1
  O2-  O201  1  0.09799713  0.55035253  0.54528571  1
  O2-  O202  1  0.01429908  0.78097812  0.06475354  1
  O2-  O203  1  0.08563412  0.86631039  0.52581570  1
  O2-  O204  1  0.43686890  0.23949466  0.05576724  1
  O2-  O205  1  0.42893818  0.25556244  0.53241838  1
  O2-  O206  1  0.44018659  0.54486366  0.01504503  1
  O2-  O207  1  0.44300343  0.56071601  0.55044384  1
  O2-  O208  1  0.42991699  0.89101996  0.02916089  1
  O2-  O209  1  0.40227197  0.87982719  0.53837810  1
  O2-  O210  1  0.81849728  0.21565568  0.03595501  1
  O2-  O211  1  0.77322376  0.21610334  0.54844985  1
  O2-  O212  1  0.81582539  0.57573842  0.05123371  1
  O2-  O213  1  0.79239239  0.56572358  0.53273925  1
  O2-  O214  1  0.77390181  0.89245747  0.03049545  1
  O2-  O215  1  0.75523160  0.91300572  0.51413044  1
