# generated using pymatgen
data_H2O
_symmetry_space_group_name_H-M   'P 1'
_cell_length_a   13.51883630
_cell_length_b   13.52090292
_cell_length_c   14.70256134
_cell_angle_alpha   90.00707082
_cell_angle_beta   89.98653060
_cell_angle_gamma   120.05442215
_symmetry_Int_Tables_number   1
_chemical_formula_structural   H2O
_chemical_formula_sum   'H144 O72'
_cell_volume   2326.10972860
_cell_formula_units_Z   72
loop_
 _symmetry_equiv_pos_site_id
 _symmetry_equiv_pos_as_xyz
  1  'x, y, z'
loop_
 _atom_type_symbol
 _atom_type_oxidation_number
  H+  1.0
  O2-  -2.0
loop_
 _atom_site_type_symbol
 _atom_site_label
 _atom_site_symmetry_multiplicity
 _atom_site_fract_x
 _atom_site_fract_y
 _atom_site_fract_z
 _atom_site_occupancy
  H+  H0  1  0.64206914  0.15913236  0.49150050  1
  H+  H1  1  0.39500746  0.87610573  0.74244197  1
  H+  H2  1  0.35616370  0.51447546  0.01028700  1
  H+  H3  1  0.50470603  0.80614888  0.99346322  1
  H+  H4  1  0.23583704  0.84451054  0.77928848  1
  H+  H5  1  0.81735190  0.51680169  0.74632724  1
  H+  H6  1  0.82283103  0.87954731  0.21485338  1
  H+  H7  1  1.06855853  0.18174180  0.51519210  1
  H+  H8  1  0.15402448  -0.03410388  1.00605307  1
  H+  H9  1  0.18400904  0.55754863  0.52761527  1
  H+  H10  1  0.64360647  0.81259940  0.47437562  1
  H+  H11  1  0.81523591  0.18726293  0.20363418  1
  H+  H12  1  0.50662723  -0.00031172  0.73826872  1
  H+  H13  1  0.48332281  0.86015823  0.24045670  1
  H+  H14  1  0.61837599  0.46438543  0.49938710  1
  H+  H15  1  0.55707220  0.11778711  0.86202135  1
  H+  H16  1  0.16597943  0.68623494  0.99774127  1
  H+  H17  1  0.47577093  0.29624325  0.01507703  1
  H+  H18  1  0.18148330  0.36374561  -0.00546547  1
  H+  H19  1  0.47848574  0.63507881  0.01061983  1
  H+  H20  1  0.50025864  0.34488046  0.49813312  1
  H+  H21  1  0.36985145  0.17596065  0.74297010  1
  H+  H22  1  0.47152446  0.64143537  0.23103147  1
  H+  H23  1  0.16152838  0.63737186  0.76043670  1
  H+  H24  1  0.49098418  0.98194003  0.24842538  1
  H+  H25  1  0.03602589  0.17604806  0.74273991  1
  H+  H26  1  0.14348010  0.83350168  0.50525276  1
  H+  H27  1  0.19176455  0.68954671  0.44779626  1
  H+  H28  1  0.82912620  0.21994650  0.54013378  1
  H+  H29  1  0.59020024  0.48240455  0.35190160  1
  H+  H30  1  0.62722723  0.81069320  0.98908328  1
  H+  H31  1  0.48763298  0.19078043  0.23674626  1
  H+  H32  1  0.80355104  0.62210355  0.50507196  1
  H+  H33  1  0.32812338  0.47217175  0.47235026  1
  H+  H34  1  0.18406287  0.47929130  0.77007960  1
  H+  H35  1  0.36690023  0.18357586  0.23893303  1
  H+  H36  1  0.83974379  0.31435947  0.21005584  1
  H+  H37  1  0.14909390  0.17679245  0.00260478  1
  H+  H38  1  0.96491966  0.46761472  0.99684216  1
  H+  H39  1  0.35493289  0.83172825  0.00776473  1
  H+  H40  1  1.08636348  0.56670653  0.67680780  1
  H+  H41  1  0.15430619  0.46390541  0.26168703  1
  H+  H42  1  0.68855006  0.49686993  1.02300934  1
  H+  H43  1  0.52186994  0.80549246  0.47815890  1
  H+  H44  1  0.50935911  0.48285841  0.99806114  1
  H+  H45  1  0.53397581  0.67448577  0.72717021  1
  H+  H46  1  0.89960008  0.45060690  0.39301586  1
  H+  H47  1  0.83158453  0.48237494  0.46971498  1
  H+  H48  1  0.87651931  0.66223073  0.25858282  1
  H+  H49  1  0.85469135  0.37500835  0.77132143  1
  H+  H50  1  0.12605040  0.50479567  0.51958549  1
  H+  H51  1  0.30238796  0.15092063  0.99653457  1
  H+  H52  1  0.12662071  0.22183955  0.66086401  1
  H+  H53  1  0.96867215  0.83542582  0.98672957  1
  H+  H54  1  0.83143161  0.30963784  -0.00942137  1
  H+  H55  1  0.04023054  0.84355425  0.23137365  1
  H+  H56  1  0.18631744  0.36316831  0.77221471  1
  H+  H57  1  0.86126756  0.50025267  0.22841713  1
  H+  H58  1  0.52631193  0.51152097  0.74710220  1
  H+  H59  1  0.42776206  0.40671424  0.79696412  1
  H+  H60  1  0.49196688  0.62694146  0.48888673  1
  H+  H61  1  0.13058616  0.29943958  0.22503641  1
  H+  H62  1  0.84230438  1.02870743  0.74854787  1
  H+  H63  1  0.97000031  0.16874930  0.22647360  1
  H+  H64  1  0.39289519  0.74998087  0.57978520  1
  H+  H65  1  0.70746347  0.19707125  0.76147287  1
  H+  H66  1  0.84981933  0.15178075  0.75565889  1
  H+  H67  1  0.29639473  0.79674350  0.49312570  1
  H+  H68  1  0.52493219  0.84043566  0.76879882  1
  H+  H69  1  0.18480196  0.02280731  0.76040493  1
  H+  H70  1  0.62031707  0.14531425  0.99879212  1
  H+  H71  1  0.18829361  0.29662968  0.50953139  1
  H+  H72  1  0.94764421  0.81526070  0.75322687  1
  H+  H73  1  0.69722108  0.51028277  0.74114681  1
  H+  H74  1  0.83363253  0.69418784  0.75772083  1
  H+  H75  1  0.50345146  0.14886623  0.00146160  1
  H+  H76  1  0.51903643  0.14225291  0.48715549  1
  H+  H77  1  0.07535175  0.66935156  0.55995365  1
  H+  H78  1  0.18573187  0.14145038  0.76102394  1
  H+  H79  1  0.19462771  0.13525461  0.50120793  1
  H+  H80  1  0.19168618  0.03074219  0.25682458  1
  H+  H81  1  0.48588124  0.50518457  0.50617052  1
  H+  H82  1  0.44762051  0.87860231  0.59863848  1
  H+  H83  1  0.17066752  0.80796099  0.99267844  1
  H+  H84  1  0.47116604  0.95049223  0.01186250  1
  H+  H85  1  0.80103411  0.48844901  1.01377163  1
  H+  H86  1  0.68547396  0.51984461  0.27854153  1
  H+  H87  1  0.16242911  0.85220449  0.22775339  1
  H+  H88  1  0.03029290  0.17787641  -0.00360917  1
  H+  H89  1  0.82921352  -0.04583015  0.50004061  1
  H+  H90  1  0.62472257  0.80827879  0.24136464  1
  H+  H91  1  0.36224456  0.15703697  0.51160695  1
  H+  H92  1  0.83869466  1.02888440  -0.02044705  1
  H+  H93  1  0.33889059  0.51952067  0.22758654  1
  H+  H94  1  0.13984834  0.50388141  1.02250986  1
  H+  H95  1  0.48131756  0.29922074  0.73574764  1
  H+  H96  1  0.82912508  0.74380180  0.26461796  1
  H+  H97  1  0.17797087  1.00921735  0.49663321  1
  H+  H98  1  0.97958014  0.54297202  0.54041308  1
  H+  H99  1  0.82051128  0.32865111  0.51564718  1
  H+  H100  1  0.80352255  0.98407946  0.21862641  1
  H+  H101  1  0.08808735  0.79656604  0.73482407  1
  H+  H102  1  0.90875082  0.14748893  0.44333375  1
  H+  H103  1  0.08162924  0.52827995  0.10896244  1
  H+  H104  1  0.82039608  0.86343631  -0.00586882  1
  H+  H105  1  0.80446941  0.84376642  0.73044518  1
  H+  H106  1  0.52901566  0.16620578  0.77106399  1
  H+  H107  1  0.84813681  0.80182747  0.48069779  1
  H+  H108  1  0.49977056  0.59626707  0.63588679  1
  H+  H109  1  0.82424873  0.17465264  0.99169044  1
  H+  H110  1  0.54739855  0.44714482  0.90794599  1
  H+  H111  1  0.22859947  0.10923332  0.90438961  1
  H+  H112  1  0.77459223  0.87780780  0.58911504  1
  H+  H113  1  0.42681449  0.55861497  0.13225092  1
  H+  H114  1  0.96359480  0.08809944  0.38815555  1
  H+  H115  1  0.20294090  0.45191732  0.47135884  1
  H+  H116  1  0.89068449  0.75351669  0.39689850  1
  H+  H117  1  0.43807328  0.21872009  0.10685945  1
  H+  H118  1  0.24035365  0.77744023  0.86518128  1
  H+  H119  1  0.23209454  0.09828649  0.34986788  1
  H+  H120  1  1.02075147  0.82662396  0.50580867  1
  H+  H121  1  0.64265848  0.16672724  0.25502770  1
  H+  H122  1  0.22658905  0.79643111  0.33345015  1
  H+  H123  1  0.09679349  0.86718734  0.64658364  1
  H+  H124  1  0.78540831  0.22685393  0.08672116  1
  H+  H125  1  0.11122424  0.88545231  0.09378248  1
  H+  H126  1  0.97290399  0.49561534  0.77681272  1
  H+  H127  1  0.22026506  0.44672937  0.90836851  1
  H+  H128  1  0.44341503  0.20334813  0.59950022  1
  H+  H129  1  0.55149555  0.78423741  0.85652631  1
  H+  H130  1  0.78041593  0.24522861  0.67009716  1
  H+  H131  1  0.86902529  0.13981660  0.30691128  1
  H+  H132  1  0.09391132  0.21840783  0.13592494  1
  H+  H133  1  0.55454698  0.76776023  0.33442967  1
  H+  H134  1  0.22410702  0.42961186  0.33288583  1
  H+  H135  1  0.88934604  0.43877280  0.90259872  1
  H+  H136  1  0.88560878  0.79289886  0.90005146  1
  H+  H137  1  0.77160079  0.54481942  0.59419802  1
  H+  H138  1  0.31191471  0.83544457  0.25022305  1
  H+  H139  1  0.88274342  0.10959681  0.88999142  1
  H+  H140  1  0.57241467  0.12516569  0.34968897  1
  H+  H141  1  0.77090143  0.90096773  0.07957091  1
  H+  H142  1  0.69180899  0.85249160  0.73320131  1
  H+  H143  1  0.79819920  0.53529693  0.15058135  1
  O2-  O144  1  0.08047481  0.21982408  0.20302461  1
  O2-  O145  1  0.11932151  0.21562915  0.72843750  1
  O2-  O146  1  0.04549989  0.48891312  0.23487238  1
  O2-  O147  1  0.11057027  0.55796661  0.73924737  1
  O2-  O148  1  0.11744963  0.89009931  0.20540930  1
  O2-  O149  1  0.09560980  0.86908787  0.71544024  1
  O2-  O150  1  0.44465111  0.22542137  0.21030282  1
  O2-  O151  1  0.45044256  0.21767942  0.71984587  1
  O2-  O152  1  0.42117208  0.56039153  0.20450187  1
  O2-  O153  1  0.54365006  0.61597770  0.69347089  1
  O2-  O154  1  0.44355142  0.90219142  0.22624812  1
  O2-  O155  1  0.47029525  0.92008122  0.71234510  1
  O2-  O156  1  0.78358882  0.23715691  0.18338841  1
  O2-  O157  1  0.78793081  0.23799158  0.73684994  1
  O2-  O158  1  0.81868216  0.54107670  0.21765307  1
  O2-  O159  1  0.77555466  0.55329852  0.71845635  1
  O2-  O160  1  0.76627117  0.90141806  0.19972430  1
  O2-  O161  1  0.76922515  0.88759320  0.70420665  1
  O2-  O162  1  0.23303295  0.10860222  0.28340741  1
  O2-  O163  1  0.22905476  0.10274275  0.78118652  1
  O2-  O164  1  0.21299289  0.43895389  0.26689817  1
  O2-  O165  1  0.22479334  0.44222578  0.79639121  1
  O2-  O166  1  0.22758615  0.79247976  0.26710649  1
  O2-  O167  1  0.25437982  0.78601617  0.79646900  1
  O2-  O168  1  0.56563850  0.12422951  0.28127898  1
  O2-  O169  1  0.57003545  0.12679563  0.79419424  1
  O2-  O170  1  0.63241812  0.54131208  0.30583858  1
  O2-  O171  1  0.50863482  0.43817378  0.78294501  1
  O2-  O172  1  0.54613077  0.76479660  0.26655347  1
  O2-  O173  1  0.56101984  0.79574959  0.78880552  1
  O2-  O174  1  0.87758538  0.12046877  0.24481559  1
  O2-  O175  1  0.88742242  0.10754661  0.77469850  1
  O2-  O176  1  0.93662153  0.43127862  0.26786343  1
  O2-  O177  1  0.88998695  0.45572753  0.79462429  1
  O2-  O178  1  0.89785939  0.74250926  0.28255689  1
  O2-  O179  1  0.86868911  0.77570488  0.77718716  1
  O2-  O180  1  0.22633165  0.08906199  0.47492619  1
  O2-  O181  1  0.22180301  0.11013349  0.97156797  1
  O2-  O182  1  0.24765813  0.41877509  0.44720761  1
  O2-  O183  1  0.21939838  0.44637401  0.97744838  1
  O2-  O184  1  0.21889227  0.76869831  0.46546414  1
  O2-  O185  1  0.20909876  0.76419408  0.97162266  1
  O2-  O186  1  0.56719903  0.11160130  0.46266757  1
  O2-  O187  1  0.54148332  0.10630617  0.97602878  1
  O2-  O188  1  0.53715522  0.42701525  0.47967486  1
  O2-  O189  1  0.54770488  0.44131313  0.97490159  1
  O2-  O190  1  0.56406352  0.77130315  0.44940821  1
  O2-  O191  1  0.54501601  0.76339004  0.97139754  1
  O2-  O192  1  0.93845225  0.09526008  0.44901783  1
  O2-  O193  1  0.88176131  0.11249511  0.95841358  1
  O2-  O194  1  0.88257633  0.44933022  0.45879368  1
  O2-  O195  1  0.88496742  0.42316578  0.97046613  1
  O2-  O196  1  0.88871644  0.75953418  0.46506449  1
  O2-  O197  1  0.88856032  0.80625836  0.96629352  1
  O2-  O198  1  0.10848687  0.21850664  0.02260815  1
  O2-  O199  1  0.14497568  0.22231526  0.54336379  1
  O2-  O200  1  0.09229985  0.53810065  0.04204088  1
  O2-  O201  1  0.02237973  0.59791516  0.59016992  1
  O2-  O202  1  0.11021256  0.88406489  0.02489025  1
  O2-  O203  1  0.09971308  0.86638811  0.53384177  1
  O2-  O204  1  0.43579852  0.21549291  0.03602253  1
  O2-  O205  1  0.44375372  0.20438232  0.53193135  1
  O2-  O206  1  0.43632594  0.55385268  0.03590521  1
  O2-  O207  1  0.44735309  0.55206217  0.52034472  1
  O2-  O208  1  0.43773063  0.86755434  0.02043916  1
  O2-  O209  1  0.41887297  0.82194685  0.54740762  1
  O2-  O210  1  0.78527223  0.22092948  0.01431577  1
  O2-  O211  1  0.78296814  0.25515924  0.55202906  1
  O2-  O212  1  0.76810503  0.52965386  0.04499897  1
  O2-  O213  1  0.76360084  0.54115770  0.52695718  1
  O2-  O214  1  0.77212566  0.90040700  0.01216770  1
  O2-  O215  1  0.77948646  0.87496640  0.52068586  1
