# generated using pymatgen
data_H2O
_symmetry_space_group_name_H-M   'P 1'
_cell_length_a   13.50520334
_cell_length_b   13.50390152
_cell_length_c   14.68724286
_cell_angle_alpha   89.98750009
_cell_angle_beta   90.00664561
_cell_angle_gamma   119.99450149
_symmetry_Int_Tables_number   1
_chemical_formula_structural   H2O
_chemical_formula_sum   'H144 O72'
_cell_volume   2319.82565513
_cell_formula_units_Z   72
loop_
 _symmetry_equiv_pos_site_id
 _symmetry_equiv_pos_as_xyz
  1  'x, y, z'
loop_
 _atom_type_symbol
 _atom_type_oxidation_number
  H+  1.0
  O2-  -2.0
loop_
 _atom_site_type_symbol
 _atom_site_label
 _atom_site_symmetry_multiplicity
 _atom_site_fract_x
 _atom_site_fract_y
 _atom_site_fract_z
 _atom_site_occupancy
  H+  H0  1  0.92259363  0.44857090  0.96683645  1
  H+  H1  1  0.63291035  0.48232198  0.48570571  1
  H+  H2  1  0.33403085  0.45939252  0.77507648  1
  H+  H3  1  0.66254891  0.82222132  0.76318137  1
  H+  H4  1  0.77649520  0.48853072  1.00129822  1
  H+  H5  1  0.54069085  0.45279078  0.88059604  1
  H+  H6  1  0.16293013  0.96024986  0.22544074  1
  H+  H7  1  0.09346351  0.51242515  0.74930179  1
  H+  H8  1  0.17967801  0.47175146  0.49469116  1
  H+  H9  1  0.69688856  0.17139411  0.74131209  1
  H+  H10  1  0.63031221  0.13652977  0.98421807  1
  H+  H11  1  -0.03001435  0.80806642  0.24827014  1
  H+  H12  1  0.50315591  0.35329704  0.96728043  1
  H+  H13  1  0.96330575  0.80837424  0.48835898  1
  H+  H14  1  0.11176829  0.87381929  0.64921638  1
  H+  H15  1  0.48867440  0.50731129  0.51811289  1
  H+  H16  1  0.83753645  0.13125537  0.25868905  1
  H+  H17  1  0.65613533  0.51750200  0.74005418  1
  H+  H18  1  0.15768888  0.68244875  0.47342880  1
  H+  H19  1  0.63844093  0.81043054  0.50486481  1
  H+  H20  1  0.91249318  0.48992868  0.75616699  1
  H+  H21  1  0.51945730  0.16104087  0.50446887  1
  H+  H22  1  0.50436908  0.09999354  0.76175734  1
  H+  H23  1  0.17632357  0.13798167  0.75355543  1
  H+  H24  1  0.34471503  0.83938641  -0.01493734  1
  H+  H25  1  0.78843399  0.62825868  0.74392717  1
  H+  H26  1  0.82621962  0.84135239  0.74512340  1
  H+  H27  1  0.85492800  0.14738652  0.75926225  1
  H+  H28  1  0.51589433  0.36309870  0.48293705  1
  H+  H29  1  0.15596881  0.62993239  0.23584102  1
  H+  H30  1  0.44405051  0.55604530  0.10032352  1
  H+  H31  1  0.38759814  0.83882211  0.73479448  1
  H+  H32  1  0.47698586  0.50231081  0.23760898  1
  H+  H33  1  0.56981232  0.12036867  0.35331345  1
  H+  H34  1  0.10642219  0.03923857  0.30096288  1
  H+  H35  1  0.62589132  0.47372873  0.24918433  1
  H+  H36  1  0.81065203  0.63356595  0.22484597  1
  H+  H37  1  0.49801018  0.86569130  0.50066110  1
  H+  H38  1  0.17192551  0.31307420  0.23264824  1
  H+  H39  1  0.78925271  0.47484776  0.75388819  1
  H+  H40  1  0.36248038  0.16205664  0.24840879  1
  H+  H41  1  0.78105712  0.87831099  0.09472646  1
  H+  H42  1  0.52428188  0.03153265  0.50309341  1
  H+  H43  1  1.03538748  0.18481317  0.73903908  1
  H+  H44  1  0.50755871  1.02112886  -0.02199755  1
  H+  H45  1  0.80128918  0.29874514  0.73802041  1
  H+  H46  1  0.29918519  0.15314393  0.75365248  1
  H+  H47  1  0.51956070  0.69280952  0.51313046  1
  H+  H48  1  0.97862103  0.48505319  0.22058618  1
  H+  H49  1  0.49020462  0.19353053  0.98190099  1
  H+  H50  1  0.69594405  0.17691300  0.23412522  1
  H+  H51  1  0.30333882  0.49167026  0.99223391  1
  H+  H52  1  0.51502756  0.81640799  0.97897652  1
  H+  H53  1  0.63412566  0.48458318  -0.01928015  1
  H+  H54  1  0.30747882  0.48583872  0.26856146  1
  H+  H55  1  0.47659073  0.28260321  0.24563308  1
  H+  H56  1  0.70019522  0.83052896  0.24226732  1
  H+  H57  1  0.46216507  0.90041119  0.59166189  1
  H+  H58  1  0.81588730  0.29163422  0.21626418  1
  H+  H59  1  0.17734403  0.15838166  0.25327884  1
  H+  H60  1  0.16061056  0.32887862  0.50149741  1
  H+  H61  1  0.79702803  0.27394109  1.00074636  1
  H+  H62  1  0.19496618  0.68109605  1.00533196  1
  H+  H63  1  0.16166343  0.29851338  0.74205680  1
  H+  H64  1  0.89174590  0.76858890  0.84739443  1
  H+  H65  1  0.48472501  0.62372903  0.24771883  1
  H+  H66  1  0.85313849  0.81209352  0.25093924  1
  H+  H67  1  1.04081816  0.50836296  0.53064238  1
  H+  H68  1  0.21963205  0.70092547  0.75071128  1
  H+  H69  1  0.50955820  0.95231180  0.74058818  1
  H+  H70  1  0.18746381  0.48372834  0.26700055  1
  H+  H71  1  0.19116866  0.50165657  -0.01552061  1
  H+  H72  1  0.18807639  0.15746334  0.98484989  1
  H+  H73  1  0.46898348  0.34303782  0.73214899  1
  H+  H74  1  0.80919075  0.63329379  0.51341021  1
  H+  H75  1  0.84759849  0.14600711  0.49984211  1
  H+  H76  1  0.75583070  0.55699701  0.60516716  1
  H+  H77  1  0.47814418  0.51577194  0.00837347  1
  H+  H78  1  0.81187541  0.51716045  0.21064369  1
  H+  H79  1  0.65203467  0.16794090  0.50840726  1
  H+  H80  1  0.17202251  0.85819649  1.00254222  1
  H+  H81  1  0.81186111  -0.04599907  0.24024694  1
  H+  H82  1  0.06928307  0.57283015  0.02289371  1
  H+  H83  1  0.19090992  0.81254619  0.23881149  1
  H+  H84  1  0.52278227  0.79981218  0.28782362  1
  H+  H85  1  0.36998232  0.19256038  -0.01364362  1
  H+  H86  1  0.15041130  0.94781886  0.73973205  1
  H+  H87  1  0.30844539  0.81061660  0.25475449  1
  H+  H88  1  0.18771959  0.15223678  0.49489267  1
  H+  H89  1  0.37230230  0.50532271  0.53471552  1
  H+  H90  1  0.15148298  0.30924504  0.99907117  1
  H+  H91  1  0.82845934  -0.03652132  0.74434770  1
  H+  H92  1  1.14539654  0.95937590  0.50852639  1
  H+  H93  1  -0.01486747  0.82018334  -0.02345975  1
  H+  H94  1  0.03669322  0.18585650  0.00163044  1
  H+  H95  1  0.50067032  0.96932374  0.26518119  1
  H+  H96  1  0.70538704  0.84223918  0.00463645  1
  H+  H97  1  0.49464918  0.24112245  0.73171247  1
  H+  H98  1  0.84407699  0.49384324  0.52405255  1
  H+  H99  1  0.16373903  -0.02640465  1.00330238  1
  H+  H100  1  0.51302312  0.14286041  0.26557135  1
  H+  H101  1  0.85737850  0.02165672  0.98627364  1
  H+  H102  1  0.81033767  0.30739298  0.52203690  1
  H+  H103  1  0.96171778  0.79521114  0.75351241  1
  H+  H104  1  0.51410648  0.69578586  -0.01446216  1
  H+  H105  1  0.86422590  0.81320058  0.98172245  1
  H+  H106  1  0.82203925  0.84688765  0.50761234  1
  H+  H107  1  0.36918891  0.18088398  0.50375516  1
  H+  H108  1  0.88617571  0.44130088  0.29730031  1
  H+  H109  1  0.23811939  0.78444138  0.90240028  1
  H+  H110  1  0.13654501  0.23793592  0.13974949  1
  H+  H111  1  0.56474545  0.75373426  0.36807199  1
  H+  H112  1  0.55174998  0.43782007  0.34082793  1
  H+  H113  1  0.44432425  0.23551837  0.59427272  1
  H+  H114  1  0.20865105  0.51322879  0.74042670  1
  H+  H115  1  0.83420109  0.41730814  0.88809868  1
  H+  H116  1  0.89531250  0.10664118  0.84747773  1
  H+  H117  1  0.88782763  0.77010482  0.39719888  1
  H+  H118  1  0.13622791  0.56177912  0.14471452  1
  H+  H119  1  0.20523088  0.81185659  0.74853485  1
  H+  H120  1  0.50748277  0.89175619  0.18917273  1
  H+  H121  1  0.44287770  0.89516839  0.07206056  1
  H+  H122  1  0.85387741  0.03020086  0.50113744  1
  H+  H123  1  0.22194407  0.11139173  0.89616708  1
  H+  H124  1  0.11135242  0.23133028  0.60451843  1
  H+  H125  1  0.89943191  0.46505538  0.44249068  1
  H+  H126  1  0.12072859  0.88555767  0.13467202  1
  H+  H127  1  0.22138134  0.11593503  0.40254631  1
  H+  H128  1  0.22129890  0.43148698  0.40243058  1
  H+  H129  1  0.78802486  0.88434301  0.60104786  1
  H+  H130  1  0.47595613  0.52150027  0.67947600  1
  H+  H131  1  0.74047781  0.54019269  0.08650570  1
  H+  H132  1  0.18219231  0.75274464  0.38065090  1
  H+  H133  1  0.76691962  0.19721928  0.09104105  1
  H+  H134  1  0.14248517  0.55192323  0.60265834  1
  H+  H135  1  0.13043888  0.83361604  0.49925983  1
  H+  H136  1  0.56947188  0.77709765  0.85681396  1
  H+  H137  1  0.53259615  0.81487893  0.75556954  1
  H+  H138  1  0.87555200  0.09555731  0.34966988  1
  H+  H139  1  0.56176612  0.09418688  0.85570717  1
  H+  H140  1  0.84806276  0.13493045  0.98551966  1
  H+  H141  1  0.24142432  0.43881688  0.85369519  1
  H+  H142  1  0.77040849  0.22080901  0.60704975  1
  H+  H143  1  0.02534128  0.18606588  0.51380082  1
  O2-  O144  1  0.14544726  0.23624995  0.20686851  1
  O2-  O145  1  0.11406394  0.22243827  0.71159113  1
  O2-  O146  1  0.11854403  0.54932775  0.21162673  1
  O2-  O147  1  0.16652077  0.55370067  0.71771339  1
  O2-  O148  1  0.12023337  0.88047582  0.20388085  1
  O2-  O149  1  0.11451326  0.86800937  0.71713415  1
  O2-  O150  1  0.44308632  0.19976463  0.23152950  1
  O2-  O151  1  0.43757550  0.25716324  0.70631138  1
  O2-  O152  1  0.43867179  0.54652342  0.21887101  1
  O2-  O153  1  0.47193738  0.51875459  0.74721919  1
  O2-  O154  1  0.46691419  0.88679218  0.24542728  1
  O2-  O155  1  0.46939784  0.87438011  0.71234006  1
  O2-  O156  1  0.77265732  0.20794063  0.20498665  1
  O2-  O157  1  0.77630238  0.21953520  0.71679973  1
  O2-  O158  1  0.76494968  0.55373659  0.19994207  1
  O2-  O159  1  0.73941294  0.54864796  0.71910228  1
  O2-  O160  1  0.77742726  0.87394074  0.21439805  1
  O2-  O161  1  0.78438279  0.88212699  0.72326046  1
  O2-  O162  1  0.18628267  0.09583901  0.28891944  1
  O2-  O163  1  0.22035027  0.10238090  0.77680758  1
  O2-  O164  1  0.22778228  0.44597695  0.29480771  1
  O2-  O165  1  0.25054437  0.43224660  0.78610866  1
  O2-  O166  1  0.22514707  0.76813512  0.26613817  1
  O2-  O167  1  0.25429768  0.78114041  0.77186079  1
  O2-  O168  1  0.56158501  0.10820846  0.28710611  1
  O2-  O169  1  0.56426649  0.08649610  0.78461323  1
  O2-  O170  1  0.54612736  0.43108795  0.27310804  1
  O2-  O171  1  0.52886833  0.45311924  0.77348531  1
  O2-  O172  1  0.56174002  0.75538654  0.29987979  1
  O2-  O173  1  0.57823747  0.78110323  0.78562740  1
  O2-  O174  1  0.86763410  0.08339228  0.28337567  1
  O2-  O175  1  0.89676822  0.10801349  0.77862228  1
  O2-  O176  1  0.89253060  0.44387863  0.23142912  1
  O2-  O177  1  0.83449410  0.43542679  0.77473708  1
  O2-  O178  1  0.89104087  0.76857265  0.27328840  1
  O2-  O179  1  0.88265820  0.76345687  0.77751838  1
  O2-  O180  1  0.22895554  0.11495346  0.47053011  1
  O2-  O181  1  0.22796285  0.11577483  0.96399424  1
  O2-  O182  1  0.21545154  0.42469548  0.47248319  1
  O2-  O183  1  0.22489193  0.45395251  0.96479218  1
  O2-  O184  1  0.14564086  0.73934797  0.44160780  1
  O2-  O185  1  0.24520372  0.79124262  0.96922823  1
  O2-  O186  1  0.56568373  0.12228136  0.48439952  1
  O2-  O187  1  0.55229628  0.10457704  0.95638027  1
  O2-  O188  1  0.55327273  0.44365475  0.46091541  1
  O2-  O189  1  0.54429555  0.44379360  0.95059248  1
  O2-  O190  1  0.55705230  0.76972508  0.48400495  1
  O2-  O191  1  0.55642804  0.77460222  0.95856911  1
  O2-  O192  1  0.89442732  0.11225583  0.48024606  1
  O2-  O193  1  0.89467488  0.10179696  0.96192601  1
  O2-  O194  1  0.88769546  0.45200411  0.50779354  1
  O2-  O195  1  0.84059467  0.41196481  0.95601328  1
  O2-  O196  1  0.88265535  0.76898950  0.46504505  1
  O2-  O197  1  0.90560985  0.77823113  0.95286257  1
  O2-  O198  1  0.11829207  0.22915097  0.02150037  1
  O2-  O199  1  0.10906156  0.23201860  0.53430065  1
  O2-  O200  1  0.14875725  0.59322743  0.03159948  1
  O2-  O201  1  0.12490782  0.54273050  0.53599033  1
  O2-  O202  1  0.12526126  0.89254389  0.02473357  1
  O2-  O203  1  0.10172102  0.88032127  0.53207970  1
  O2-  O204  1  0.45459567  0.24054181  -0.00326594  1
  O2-  O205  1  0.45005144  0.22189061  0.52732809  1
  O2-  O206  1  0.44264800  0.55951858  0.03209805  1
  O2-  O207  1  0.45253313  0.54387913  0.55459435  1
  O2-  O208  1  0.44866671  0.88932326  0.00653899  1
  O2-  O209  1  0.46901150  0.91549722  0.52487239  1
  O2-  O210  1  0.76589460  0.19426059  0.02247362  1
  O2-  O211  1  0.76893754  0.22374100  0.53776536  1
  O2-  O212  1  0.73389162  0.52784477  0.01869339  1
  O2-  O213  1  0.76801535  0.55310126  0.53787200  1
  O2-  O214  1  0.78544394  0.88206888  0.02668772  1
  O2-  O215  1  0.78478194  0.88907748  0.53349084  1
