# generated using pymatgen
data_H2O
_symmetry_space_group_name_H-M   'P 1'
_cell_length_a   13.51258351
_cell_length_b   13.49993257
_cell_length_c   14.68936755
_cell_angle_alpha   89.99394820
_cell_angle_beta   90.00732490
_cell_angle_gamma   119.99596189
_symmetry_Int_Tables_number   1
_chemical_formula_structural   H2O
_chemical_formula_sum   'H144 O72'
_cell_volume   2320.71273668
_cell_formula_units_Z   72
loop_
 _symmetry_equiv_pos_site_id
 _symmetry_equiv_pos_as_xyz
  1  'x, y, z'
loop_
 _atom_type_symbol
 _atom_type_oxidation_number
  H+  1.0
  O2-  -2.0
loop_
 _atom_site_type_symbol
 _atom_site_label
 _atom_site_symmetry_multiplicity
 _atom_site_fract_x
 _atom_site_fract_y
 _atom_site_fract_z
 _atom_site_occupancy
  H+  H0  1  0.86705031  0.81489840  0.48151680  1
  H+  H1  1  0.51985546  0.47416420  -0.01512550  1
  H+  H2  1  0.47144225  0.18954462  0.22980865  1
  H+  H3  1  0.06093596  0.79713729  0.03770108  1
  H+  H4  1  0.48070368  0.17000868  0.73450255  1
  H+  H5  1  0.63275207  0.14519031  0.48958616  1
  H+  H6  1  0.52272741  0.83867788  0.26631128  1
  H+  H7  1  0.16412119  1.01837669  0.26445967  1
  H+  H8  1  0.52703962  0.03920560  0.77107426  1
  H+  H9  1  0.18321889  1.02967198  0.49141983  1
  H+  H10  1  0.47424134  0.79764011  0.23623491  1
  H+  H11  1  0.11159127  0.21978588  0.16205570  1
  H+  H12  1  0.36353041  0.17115548  0.72959746  1
  H+  H13  1  0.02459357  0.18256401  0.24826230  1
  H+  H14  1  0.95039967  0.48374675  0.24518361  1
  H+  H15  1  0.18165741  0.49515647  1.01689662  1
  H+  H16  1  0.95264622  0.86395085  1.00048337  1
  H+  H17  1  0.48999722  0.97136618  0.49870083  1
  H+  H18  1  0.23532671  0.48766756  0.26487722  1
  H+  H19  1  0.79623039  0.86427461  0.11579515  1
  H+  H20  1  0.50447021  0.64765102  0.73512543  1
  H+  H21  1  0.68240095  0.16090158  1.01757809  1
  H+  H22  1  0.48829282  0.84691127  0.50433323  1
  H+  H23  1  0.35026578  0.43567564  0.23207998  1
  H+  H24  1  0.14485420  0.49085627  0.73879262  1
  H+  H25  1  0.14476577  0.64936067  -0.01051261  1
  H+  H26  1  0.52284819  0.86725314  0.73155578  1
  H+  H27  1  0.82111208  0.18613183  0.50645120  1
  H+  H28  1  0.05306425  0.18990583  0.74096575  1
  H+  H29  1  0.81304648  0.63533549  0.50602048  1
  H+  H30  1  0.15917429  0.18453955  0.50991578  1
  H+  H31  1  0.80628273  0.51464320  0.50896982  1
  H+  H32  1  0.47454436  0.15502969  1.00247705  1
  H+  H33  1  0.52269906  0.35941423  0.26852678  1
  H+  H34  1  0.63119148  0.81385437  0.51892694  1
  H+  H35  1  0.36133350  0.51691554  0.51754096  1
  H+  H36  1  0.83568684  0.49321166  0.25293896  1
  H+  H37  1  0.19564977  0.74441510  0.33337212  1
  H+  H38  1  0.81821856  0.20398910  0.26016783  1
  H+  H39  1  0.19828159  0.70960388  0.50520450  1
  H+  H40  1  0.86602425  0.20159732  0.73200818  1
  H+  H41  1  0.09995111  0.47964931  0.19766267  1
  H+  H42  1  -0.00978217  0.16427983  0.49963137  1
  H+  H43  1  0.11363381  0.83139261  0.24802448  1
  H+  H44  1  0.16720070  1.02367006  -0.00663286  1
  H+  H45  1  0.20046642  0.37269626  0.75890220  1
  H+  H46  1  0.02384131  0.86460449  0.72774944  1
  H+  H47  1  0.75610634  0.96356683  0.58743652  1
  H+  H48  1  0.07198144  0.87458511  0.12379637  1
  H+  H49  1  0.79424665  0.87892639  0.61725321  1
  H+  H50  1  0.15409519  0.18358250  0.02714229  1
  H+  H51  1  0.44475567  0.20615205  0.59484495  1
  H+  H52  1  0.54301028  0.07519260  0.23706852  1
  H+  H53  1  0.17900877  0.03115432  0.75818853  1
  H+  H54  1  0.19907026  0.82261363  0.97172735  1
  H+  H55  1  0.81428193  0.05066444  0.30314699  1
  H+  H56  1  0.48020220  0.67637937  0.93544754  1
  H+  H57  1  0.84724537  0.36694357  0.76317001  1
  H+  H58  1  0.49022182  0.79491046  0.96114823  1
  H+  H59  1  0.84190842  0.34784244  -0.00647552  1
  H+  H60  1  0.31040691  0.49579636  0.76067258  1
  H+  H61  1  0.51623942  0.69703350  0.49741850  1
  H+  H62  1  0.82753326  0.97532757  0.16882153  1
  H+  H63  1  0.35295339  0.18220832  0.24973728  1
  H+  H64  1  0.29968254  0.49452019  1.01764003  1
  H+  H65  1  0.95064746  0.48822839  0.77468722  1
  H+  H66  1  0.14945675  0.52976262  0.51457670  1
  H+  H67  1  0.15649997  0.30313700  1.04029028  1
  H+  H68  1  0.13710908  0.68766860  0.75635457  1
  H+  H69  1  0.37043029  0.89744010  0.30581501  1
  H+  H70  1  0.33914175  0.83793389  0.50096735  1
  H+  H71  1  0.51062807  0.65350117  0.28166043  1
  H+  H72  1  0.84242798  0.79852304  0.26967297  1
  H+  H73  1  0.80449386  0.49686363  0.00838155  1
  H+  H74  1  0.51923440  1.01716290  -0.02498639  1
  H+  H75  1  0.88620310  0.02868465  0.76476256  1
  H+  H76  1  0.87353988  0.04592868  0.48290865  1
  H+  H77  1  0.96357930  0.49324500  0.48595802  1
  H+  H78  1  0.81340114  0.30017956  0.50399726  1
  H+  H79  1  0.82604713  0.64310823  0.24550732  1
  H+  H80  1  0.68030828  0.19472754  0.26263988  1
  H+  H81  1  0.62651658  0.48239485  0.49803359  1
  H+  H82  1  0.52046873  0.50294209  0.76285247  1
  H+  H83  1  0.56404622  0.67518753  0.25357972  1
  H+  H84  1  0.47728484  0.50998019  0.51139410  1
  H+  H85  1  0.34907301  0.87296171  0.25929635  1
  H+  H86  1  0.56142766  0.96805750  0.15645017  1
  H+  H87  1  0.47212446  0.27189297  -0.00786169  1
  H+  H88  1  0.64499837  0.49725687  0.75693043  1
  H+  H89  1  0.72311362  0.87324349  0.28564130  1
  H+  H90  1  1.04049772  0.83944866  0.50134483  1
  H+  H91  1  0.79799655  0.50745168  0.74164285  1
  H+  H92  1  0.36952532  0.17539501  0.50296482  1
  H+  H93  1  0.81727496  0.32948667  0.24995896  1
  H+  H94  1  0.57259345  0.78240149  0.83465155  1
  H+  H95  1  0.66843264  0.81443643  0.75845435  1
  H+  H96  1  0.89441020  0.10330499  0.84881180  1
  H+  H97  1  0.33255563  0.81200858  0.97163689  1
  H+  H98  1  0.16855591  0.18630478  0.73867966  1
  H+  H99  1  0.17893668  0.36913696  0.50779427  1
  H+  H100  1  0.13063052  0.84392389  0.73828706  1
  H+  H101  1  0.99824166  0.83492340  0.25497254  1
  H+  H102  1  0.12201325  0.65775800  0.25515184  1
  H+  H103  1  0.51219283  0.14419304  0.48882583  1
  H+  H104  1  0.48006419  0.46574707  0.23134351  1
  H+  H105  1  0.02025264  0.41949027  0.69864376  1
  H+  H106  1  0.80464926  0.11357018  -0.01132867  1
  H+  H107  1  0.81203589  0.93219066  -0.01640270  1
  H+  H108  1  0.45387921  0.55912925  0.65193191  1
  H+  H109  1  0.11197014  0.88566129  0.59517323  1
  H+  H110  1  0.21794418  0.10711908  0.84934609  1
  H+  H111  1  0.77322459  0.21171873  0.10103793  1
  H+  H112  1  0.86958154  0.42767732  0.90528923  1
  H+  H113  1  0.16956499  0.13994809  0.26706495  1
  H+  H114  1  0.12339936  0.22319286  0.60299182  1
  H+  H115  1  0.19968844  0.83298949  0.49917521  1
  H+  H116  1  0.21628357  0.44649087  0.41995243  1
  H+  H117  1  0.76098232  0.54838869  0.65079185  1
  H+  H118  1  0.56068818  0.45350927  0.85841495  1
  H+  H119  1  0.65841674  0.86126560  0.37956025  1
  H+  H120  1  0.44572686  0.52071834  0.10006104  1
  H+  H121  1  0.70593699  0.52136639  0.24090795  1
  H+  H122  1  0.56394124  0.11905865  0.35046275  1
  H+  H123  1  0.54916687  0.11636440  0.85878594  1
  H+  H124  1  0.17525097  0.34943433  0.27544985  1
  H+  H125  1  0.90070233  0.14875684  0.36190583  1
  H+  H126  1  0.08675183  0.55329185  0.11796134  1
  H+  H127  1  0.89133614  0.76610201  0.38545934  1
  H+  H128  1  0.21764553  0.10525575  0.40111051  1
  H+  H129  1  0.88417235  0.45057435  0.39739804  1
  H+  H130  1  0.19284924  0.76536498  0.84487230  1
  H+  H131  1  0.73327673  0.01644496  0.91917634  1
  H+  H132  1  0.53427268  1.05045211  0.08843295  1
  H+  H133  1  0.10530298  0.56162753  0.60199397  1
  H+  H134  1  0.76895552  0.54922637  0.09018223  1
  H+  H135  1  0.81694067  0.23941014  0.64731132  1
  H+  H136  1  0.29381645  0.13241285  0.98773646  1
  H+  H137  1  0.51186797  0.35924736  0.49567930  1
  H+  H138  1  0.46597505  0.90324908  0.65430701  1
  H+  H139  1  0.02348158  0.52075147  -0.00660547  1
  H+  H140  1  0.63696351  0.47144909  0.98313289  1
  H+  H141  1  0.52487106  0.63475677  0.04419325  1
  H+  H142  1  0.42196866  0.86476740  0.05748753  1
  H+  H143  1  0.56537882  0.44330633  0.35527731  1
  O2-  O144  1  0.10653145  0.22114330  0.23279792  1
  O2-  O145  1  0.13110720  0.22988788  0.71415766  1
  O2-  O146  1  0.07574367  0.53566736  0.18811564  1
  O2-  O147  1  0.07980184  0.49933263  0.71019047  1
  O2-  O148  1  0.08307493  0.88152895  0.22786910  1
  O2-  O149  1  0.10401516  0.89524428  0.70846183  1
  O2-  O150  1  0.43274586  0.23414848  0.22957458  1
  O2-  O151  1  0.43848074  0.20091429  0.69936995  1
  O2-  O152  1  0.41760060  0.46313238  0.19307014  1
  O2-  O153  1  0.45797258  0.56392536  0.72000895  1
  O2-  O154  1  0.51373174  1.00321835  0.15411805  1
  O2-  O155  1  0.48108765  0.90880822  0.71980385  1
  O2-  O156  1  0.77484179  0.24102829  0.23328220  1
  O2-  O157  1  0.86112679  0.26608901  0.70469832  1
  O2-  O158  1  0.78560282  0.56175501  0.21640075  1
  O2-  O159  1  0.75575284  0.54503044  0.71848809  1
  O2-  O160  1  0.79175310  0.89307403  0.17744993  1
  O2-  O161  1  0.82356669  0.87219388  0.73304227  1
  O2-  O162  1  0.20988305  0.09913652  0.28785854  1
  O2-  O163  1  0.22188759  0.11141875  0.78129076  1
  O2-  O164  1  0.22758599  0.42662519  0.30482419  1
  O2-  O165  1  0.22919298  0.45276399  0.77928118  1
  O2-  O166  1  0.12936585  0.72077713  0.29444309  1
  O2-  O167  1  0.17767559  0.76691334  0.77614205  1
  O2-  O168  1  0.57934158  0.14243687  0.28437435  1
  O2-  O169  1  0.55494640  0.11916428  0.79236556  1
  O2-  O170  1  0.57305257  0.44189220  0.28795073  1
  O2-  O171  1  0.56195569  0.46221200  0.78650699  1
  O2-  O172  1  0.72405708  0.91355820  0.34182479  1
  O2-  O173  1  0.58587216  0.78532041  0.76627500  1
  O2-  O174  1  0.87525476  0.13271366  0.29666891  1
  O2-  O175  1  0.91336734  0.10877680  0.78295194  1
  O2-  O176  1  0.87475802  0.44780305  0.27710265  1
  O2-  O177  1  0.86890270  0.44293002  0.79101062  1
  O2-  O178  1  0.88458727  0.76171951  0.29113744  1
  O2-  O179  1  0.87215211  0.81385069  0.75691456  1
  O2-  O180  1  0.22252409  0.11038803  0.46967642  1
  O2-  O181  1  0.21053537  0.10194328  0.96938090  1
  O2-  O182  1  0.21437428  0.45090350  0.48759544  1
  O2-  O183  1  0.21841896  0.44981843  1.03357962  1
  O2-  O184  1  0.24417288  0.79181654  0.48151377  1
  O2-  O185  1  0.21441621  0.76420638  0.94832962  1
  O2-  O186  1  0.55326700  0.10323540  0.46397092  1
  O2-  O187  1  0.55657247  0.09445204  1.00175444  1
  O2-  O188  1  0.54591100  0.44047969  0.47492903  1
  O2-  O189  1  0.55656123  0.43403570  0.95538846  1
  O2-  O190  1  0.55905696  0.78119854  0.48330483  1
  O2-  O191  1  0.53609713  0.75781375  0.93886387  1
  O2-  O192  1  0.90921559  0.12898307  0.47427461  1
  O2-  O193  1  0.80748791  0.05317412  0.94948025  1
  O2-  O194  1  0.88339781  0.44574590  0.46532260  1
  O2-  O195  1  0.87918445  0.42898019  0.97282435  1
  O2-  O196  1  0.89952227  0.76873387  0.46052550  1
  O2-  O197  1  0.89687781  0.85764362  0.95210209  1
  O2-  O198  1  0.11608974  0.22091092  0.05844470  1
  O2-  O199  1  0.11937664  0.22519660  0.53412892  1
  O2-  O200  1  0.10257359  0.56665618  0.01800594  1
  O2-  O201  1  0.11522757  0.57714947  0.53483892  1
  O2-  O202  1  0.06650158  0.86990271  0.05339497  1
  O2-  O203  1  0.12029511  0.88312721  0.52680649  1
  O2-  O204  1  0.42581593  0.19124421  0.01017973  1
  O2-  O205  1  0.45017615  0.21250833  0.52456613  1
  O2-  O206  1  0.46616009  0.55475262  0.03577229  1
  O2-  O207  1  0.44383227  0.55699735  0.53491380  1
  O2-  O208  1  0.42052168  0.85099818  -0.00784305  1
  O2-  O209  1  0.44602491  0.88914618  0.52189018  1
  O2-  O210  1  0.77007347  0.20459995  0.03437208  1
  O2-  O211  1  0.77377766  0.21966329  0.52669590  1
  O2-  O212  1  0.76124512  0.53646785  0.02360374  1
  O2-  O213  1  0.76711035  0.55559583  0.53136870  1
  O2-  O214  1  0.80325268  0.85685179  0.00200380  1
  O2-  O215  1  0.77003231  0.90478637  0.56216113  1
