# generated using pymatgen
data_H2O
_symmetry_space_group_name_H-M   'P 1'
_cell_length_a   13.50662046
_cell_length_b   13.48778859
_cell_length_c   14.67367730
_cell_angle_alpha   89.96702264
_cell_angle_beta   89.99789273
_cell_angle_gamma   120.02794083
_symmetry_Int_Tables_number   1
_chemical_formula_structural   H2O
_chemical_formula_sum   'H144 O72'
_cell_volume   2314.37961297
_cell_formula_units_Z   72
loop_
 _symmetry_equiv_pos_site_id
 _symmetry_equiv_pos_as_xyz
  1  'x, y, z'
loop_
 _atom_type_symbol
 _atom_type_oxidation_number
  H+  1.0
  O2-  -2.0
loop_
 _atom_site_type_symbol
 _atom_site_label
 _atom_site_symmetry_multiplicity
 _atom_site_fract_x
 _atom_site_fract_y
 _atom_site_fract_z
 _atom_site_occupancy
  H+  H0  1  0.69384776  0.52196539  0.51606007  1
  H+  H1  1  0.78904687  0.22287195  0.16434773  1
  H+  H2  1  0.47548786  0.30431100  0.25113585  1
  H+  H3  1  0.42992308  0.21461820  0.12243677  1
  H+  H4  1  0.29832267  0.81123290  0.75743302  1
  H+  H5  1  0.14508778  -0.03686513  1.01271720  1
  H+  H6  1  0.10617609  0.88750759  0.15834693  1
  H+  H7  1  1.02948457  0.83161256  0.51437852  1
  H+  H8  1  0.51370937  0.43217514  0.96899014  1
  H+  H9  1  0.30164333  0.51935537  -0.01157371  1
  H+  H10  1  0.18602081  0.81948519  0.49520524  1
  H+  H11  1  0.21616106  0.77425782  0.35330322  1
  H+  H12  1  0.51623262  0.47776225  0.75609164  1
  H+  H13  1  0.54800078  0.71163031  0.49878307  1
  H+  H14  1  0.14026154  0.15822846  0.01477882  1
  H+  H15  1  0.29196102  0.14746536  0.26978498  1
  H+  H16  1  0.29992161  0.48741414  0.25044792  1
  H+  H17  1  0.17120819  0.69487889  0.26316975  1
  H+  H18  1  0.17177763  0.02801128  0.26312293  1
  H+  H19  1  0.51825684  0.18430453  0.51409937  1
  H+  H20  1  0.52624102  1.02597220  -0.01481532  1
  H+  H21  1  0.85574257  0.82305549  0.49772867  1
  H+  H22  1  -0.03324403  0.81095508  0.00568812  1
  H+  H23  1  0.21579591  0.10379575  0.89849268  1
  H+  H24  1  0.72836349  0.17130106  -0.00777971  1
  H+  H25  1  0.48842786  0.67556165  0.01625575  1
  H+  H26  1  0.81807681  0.84412459  0.01068137  1
  H+  H27  1  0.62895875  0.48602165  0.25775743  1
  H+  H28  1  0.15375331  0.30991386  0.44082463  1
  H+  H29  1  0.85014075  0.32562678  0.75067557  1
  H+  H30  1  0.28909101  0.14555748  -0.00786788  1
  H+  H31  1  0.47605988  0.29023775  0.73169058  1
  H+  H32  1  0.47467854  0.18320813  0.25360202  1
  H+  H33  1  0.48543444  0.85814551  1.01128097  1
  H+  H34  1  0.80073504  0.29166149  0.51261609  1
  H+  H35  1  0.03946961  0.85339933  0.75049640  1
  H+  H36  1  0.11479430  0.88478801  0.65765397  1
  H+  H37  1  0.86510351  0.72237625  0.76545221  1
  H+  H38  1  -0.02203426  0.46470451  0.75619306  1
  H+  H39  1  0.83729437  0.03204191  0.27318923  1
  H+  H40  1  0.41453986  0.54572595  0.50371554  1
  H+  H41  1  0.14196451  0.84787803  0.24916291  1
  H+  H42  1  0.02163049  0.15705579  0.02172095  1
  H+  H43  1  0.36529388  0.85622206  0.00833157  1
  H+  H44  1  0.85098620  0.03762488  0.50030751  1
  H+  H45  1  0.42393134  0.12614042  0.04964548  1
  H+  H46  1  0.62117754  0.14576677  0.26315838  1
  H+  H47  1  0.17911482  0.02751063  0.76272794  1
  H+  H48  1  0.15161811  0.84829316  0.01400427  1
  H+  H49  1  0.86216890  0.35387125  -0.01818074  1
  H+  H50  1  0.11792390  0.52834983  0.49951295  1
  H+  H51  1  0.15935695  0.17631217  0.24328830  1
  H+  H52  1  0.84505427  0.36608655  0.26651823  1
  H+  H53  1  0.14032688  0.51380753  0.23209101  1
  H+  H54  1  0.53059189  0.35704779  0.49629517  1
  H+  H55  1  0.30884230  0.82339390  0.49368529  1
  H+  H56  1  0.56005511  0.15776784  0.97501885  1
  H+  H57  1  0.86603870  0.07741174  0.86435531  1
  H+  H58  1  0.67925755  0.16207215  0.51468987  1
  H+  H59  1  0.82572998  0.50460885  1.00605798  1
  H+  H60  1  0.94808443  0.49110356  0.49683369  1
  H+  H61  1  0.81088119  0.63389739  0.24088207  1
  H+  H62  1  0.18209365  0.70521581  0.99070695  1
  H+  H63  1  0.48796175  0.85491747  0.51264985  1
  H+  H64  1  0.98921849  0.16104893  0.89372743  1
  H+  H65  1  0.81043377  0.52134139  0.51535934  1
  H+  H66  1  0.00879989  0.14777228  0.54713326  1
  H+  H67  1  0.79665791  0.15577721  0.72800602  1
  H+  H68  1  0.84351284  0.48430231  0.26220660  1
  H+  H69  1  0.55720749  0.44042090  0.40737522  1
  H+  H70  1  0.63278434  0.14651101  0.74245399  1
  H+  H71  1  0.16137319  0.30395952  0.23146034  1
  H+  H72  1  0.51492067  0.51791261  0.51615267  1
  H+  H73  1  0.71009869  0.53712837  0.74320441  1
  H+  H74  1  0.17924916  0.36581553  0.77394325  1
  H+  H75  1  0.14973955  0.53082755  0.00293974  1
  H+  H76  1  0.81327437  0.18051424  0.25830506  1
  H+  H77  1  0.85030879  0.18364648  -0.01705867  1
  H+  H78  1  0.30194046  0.61617691  0.48223372  1
  H+  H79  1  0.71032326  0.86307416  0.51962450  1
  H+  H80  1  0.77684401  0.22065242  0.63980212  1
  H+  H81  1  0.84976755  0.15586133  0.50195575  1
  H+  H82  1  0.47344292  0.17047923  0.73600504  1
  H+  H83  1  0.64309938  0.83330745  0.98813499  1
  H+  H84  1  -0.02662925  0.48172881  -0.01851629  1
  H+  H85  1  0.51845805  0.32233478  0.98945494  1
  H+  H86  1  0.14520334  0.95219278  0.51336615  1
  H+  H87  1  0.49671483  0.98188386  0.51426172  1
  H+  H88  1  0.62726067  0.81764491  0.26289509  1
  H+  H89  1  0.80569781  0.84332521  0.24344283  1
  H+  H90  1  0.18450694  0.48525926  0.75210028  1
  H+  H91  1  0.15029231  0.10882179  0.51387356  1
  H+  H92  1  0.50935750  0.82038185  0.75816127  1
  H+  H93  1  0.47900107  0.96112173  0.73142884  1
  H+  H94  1  0.13865810  0.17575972  0.78288032  1
  H+  H95  1  0.70516240  0.49550885  1.00576301  1
  H+  H96  1  0.78823229  0.58239301  0.65735256  1
  H+  H97  1  0.29609967  0.14785283  0.76169480  1
  H+  H98  1  0.84963967  0.69115076  -0.00193300  1
  H+  H99  1  0.83001047  0.96616266  -0.00058718  1
  H+  H100  1  0.02259419  0.51496756  0.24055946  1
  H+  H101  1  0.84298088  0.69850512  0.49510022  1
  H+  H102  1  0.95767492  0.81535622  0.26446465  1
  H+  H103  1  0.20577296  0.32428381  0.46943258  1
  H+  H104  1  0.47665778  0.64184331  0.25539485  1
  H+  H105  1  0.48339082  0.55721387  0.02587677  1
  H+  H106  1  0.35159297  0.84176642  0.24458546  1
  H+  H107  1  0.14467964  0.63427297  0.74565030  1
  H+  H108  1  0.18225135  0.81652825  0.76077341  1
  H+  H109  1  0.43997365  0.57629763  0.16080626  1
  H+  H110  1  0.77191498  0.88830188  0.15459111  1
  H+  H111  1  0.22457641  0.78348062  0.90129597  1
  H+  H112  1  0.50825793  0.81816423  0.26818185  1
  H+  H113  1  0.12523959  0.23200595  0.59660201  1
  H+  H114  1  0.55899180  0.79303466  0.90033524  1
  H+  H115  1  0.43413100  0.88510278  0.15708132  1
  H+  H116  1  0.51155038  0.48882587  0.26216516  1
  H+  H117  1  0.55949908  0.42242538  0.83215110  1
  H+  H118  1  0.03040788  0.17439749  0.74260769  1
  H+  H119  1  0.22852653  0.47308653  0.89717016  1
  H+  H120  1  0.10118335  0.56173412  0.09315518  1
  H+  H121  1  0.50148827  0.02934202  0.26434938  1
  H+  H122  1  0.11233316  0.20789285  0.13962606  1
  H+  H123  1  0.77656070  0.55229803  0.15218634  1
  H+  H124  1  0.56215301  0.10111164  0.42305373  1
  H+  H125  1  0.46282955  0.56312379  0.65729563  1
  H+  H126  1  0.24494694  0.48448814  0.50400203  1
  H+  H127  1  0.87486313  0.44656662  0.40579195  1
  H+  H128  1  0.56947905  0.78720862  0.40875855  1
  H+  H129  1  0.79020667  0.91415988  0.60765273  1
  H+  H130  1  0.89535843  0.41722928  0.85073490  1
  H+  H131  1  0.52758876  0.71184074  0.76353420  1
  H+  H132  1  0.10282133  0.56171334  0.65309834  1
  H+  H133  1  0.21343181  0.44237560  0.33266627  1
  H+  H134  1  0.19395613  0.09265969  0.41629300  1
  H+  H135  1  0.88364806  0.11246334  0.36117531  1
  H+  H136  1  0.87851337  0.77406658  0.35305944  1
  H+  H137  1  0.56135463  0.09995060  0.83339261  1
  H+  H138  1  0.14382273  0.65525940  0.51206726  1
  H+  H139  1  0.37374497  0.52048903  0.74065478  1
  H+  H140  1  0.90821699  0.79403895  0.85647654  1
  H+  H141  1  0.70233967  0.90078519  0.75575014  1
  H+  H142  1  0.45799523  0.22099490  0.59110290  1
  H+  H143  1  0.43840394  0.88078042  0.64366791  1
  O2-  O144  1  0.12357351  0.22082722  0.21259293  1
  O2-  O145  1  0.09226684  0.21497846  0.78688339  1
  O2-  O146  1  0.10216060  0.55766070  0.21474779  1
  O2-  O147  1  0.10554792  0.55360721  0.72045614  1
  O2-  O148  1  0.10342322  0.89011365  0.22647785  1
  O2-  O149  1  0.12153681  0.89125753  0.72545806  1
  O2-  O150  1  0.43247247  0.22238800  0.22992940  1
  O2-  O151  1  0.42877987  0.20726525  0.71621309  1
  O2-  O152  1  0.43630956  0.56243362  0.22786617  1
  O2-  O153  1  0.45686846  0.56128935  0.72516382  1
  O2-  O154  1  0.43366901  0.88271421  0.22484384  1
  O2-  O155  1  0.43670505  0.87871141  0.71301415  1
  O2-  O156  1  0.77536149  0.22285542  0.23005552  1
  O2-  O157  1  0.77954738  0.21941831  0.71094535  1
  O2-  O158  1  0.77028282  0.55211991  0.21987843  1
  O2-  O159  1  0.79046419  0.58675510  0.72495619  1
  O2-  O160  1  0.76470114  0.88356508  0.22194953  1
  O2-  O161  1  0.78026112  0.94813457  0.72923634  1
  O2-  O162  1  0.20888661  0.10936559  0.28577939  1
  O2-  O163  1  0.21707799  0.10742348  0.78886973  1
  O2-  O164  1  0.21550454  0.43851460  0.26612232  1
  O2-  O165  1  0.22918578  0.45088215  0.77686663  1
  O2-  O166  1  0.21263897  0.77589325  0.28513731  1
  O2-  O167  1  0.21898181  0.77147613  0.78341833  1
  O2-  O168  1  0.54071320  0.11087053  0.28416944  1
  O2-  O169  1  0.55290691  0.10348983  0.76653019  1
  O2-  O170  1  0.54895490  0.44497251  0.28216629  1
  O2-  O171  1  0.55483019  0.43165847  0.76611928  1
  O2-  O172  1  0.54864619  0.77759079  0.29060499  1
  O2-  O173  1  0.55804866  0.79117352  0.78661737  1
  O2-  O174  1  0.87380730  0.11238692  0.29385731  1
  O2-  O175  1  0.82316369  0.06300948  0.76893328  1
  O2-  O176  1  0.88715573  0.44815391  0.28654179  1
  O2-  O177  1  0.89803583  0.41090651  0.78090633  1
  O2-  O178  1  0.87617032  0.77248876  0.28444329  1
  O2-  O179  1  0.91569304  0.80155548  0.78962460  1
  O2-  O180  1  0.19541352  0.07945637  0.48204042  1
  O2-  O181  1  0.21058784  0.10147137  0.96797059  1
  O2-  O182  1  0.27840360  0.54115031  0.45534607  1
  O2-  O183  1  0.22297503  0.47798872  0.96435253  1
  O2-  O184  1  0.22686104  0.77838095  0.47134666  1
  O2-  O185  1  0.22693799  0.78706557  0.96969074  1
  O2-  O186  1  0.56585139  0.09902401  0.48972839  1
  O2-  O187  1  0.57998456  0.10151824  0.95410100  1
  O2-  O188  1  0.56072915  0.44125286  0.47481650  1
  O2-  O189  1  0.56144363  0.39818609  0.95846358  1
  O2-  O190  1  0.57507396  0.79096388  0.47669980  1
  O2-  O191  1  0.56076453  0.79615135  0.96919536  1
  O2-  O192  1  0.89556337  0.11989043  0.48087917  1
  O2-  O193  1  0.91464679  0.11277431  0.92427825  1
  O2-  O194  1  0.86896125  0.44386093  0.47375340  1
  O2-  O195  1  0.89338560  0.43352683  0.95614942  1
  O2-  O196  1  0.88853489  0.77857802  0.46966034  1
  O2-  O197  1  0.88666491  0.77366291  0.98209844  1
  O2-  O198  1  0.09964659  0.19413747  0.04648716  1
  O2-  O199  1  0.07188824  0.15127334  0.58607809  1
  O2-  O200  1  0.10232137  0.56587612  0.02529951  1
  O2-  O201  1  0.09272814  0.57295029  0.53493134  1
  O2-  O202  1  0.10911373  0.88500406  0.04023400  1
  O2-  O203  1  0.10987541  0.86995952  0.53708814  1
  O2-  O204  1  0.42806962  0.20029204  0.05321438  1
  O2-  O205  1  0.48581344  0.23676641  0.52765649  1
  O2-  O206  1  0.44203110  0.59555540  0.04440298  1
  O2-  O207  1  0.48488038  0.56994678  0.53870154  1
  O2-  O208  1  0.44531983  0.89909057  0.03346191  1
  O2-  O209  1  0.44372891  0.89159768  0.53242073  1
  O2-  O210  1  0.80807545  0.21685018  0.01456228  1
  O2-  O211  1  0.76948681  0.21324833  0.53725927  1
  O2-  O212  1  0.78310022  0.54147085  0.03098980  1
  O2-  O213  1  0.77529908  0.56702797  0.53718851  1
  O2-  O214  1  0.78149707  0.89089682  0.02795467  1
  O2-  O215  1  0.79164723  0.90239569  0.54119360  1
