# generated using pymatgen
data_H2O
_symmetry_space_group_name_H-M   'P 1'
_cell_length_a   13.50680269
_cell_length_b   13.50366319
_cell_length_c   14.67666564
_cell_angle_alpha   90.05469140
_cell_angle_beta   90.02743117
_cell_angle_gamma   120.00945351
_symmetry_Int_Tables_number   1
_chemical_formula_structural   H2O
_chemical_formula_sum   'H144 O72'
_cell_volume   2318.03689304
_cell_formula_units_Z   72
loop_
 _symmetry_equiv_pos_site_id
 _symmetry_equiv_pos_as_xyz
  1  'x, y, z'
loop_
 _atom_type_symbol
 _atom_type_oxidation_number
  H+  1.0
  O2-  -2.0
loop_
 _atom_site_type_symbol
 _atom_site_label
 _atom_site_symmetry_multiplicity
 _atom_site_fract_x
 _atom_site_fract_y
 _atom_site_fract_z
 _atom_site_occupancy
  H+  H0  1  0.85453415  0.15016832  0.76689631  1
  H+  H1  1  0.51778331  0.70905613  0.23095214  1
  H+  H2  1  0.15872629  -0.01962494  0.24403702  1
  H+  H3  1  0.51527161  0.36419209  -0.00064792  1
  H+  H4  1  0.32450682  0.85766777  0.49438593  1
  H+  H5  1  0.54215359  0.82594615  0.76075997  1
  H+  H6  1  0.51186260  0.04264967  0.25757680  1
  H+  H7  1  0.78819661  0.56329191  0.59020007  1
  H+  H8  1  0.35397391  0.83415440  1.01771171  1
  H+  H9  1  0.22176372  0.36403271  1.00773018  1
  H+  H10  1  0.06057888  0.19226028  0.23934486  1
  H+  H11  1  0.19081378  0.15178500  0.99090781  1
  H+  H12  1  0.86780324  0.04312276  0.26149398  1
  H+  H13  1  0.49229494  0.17777800  0.49468175  1
  H+  H14  1  0.84883629  0.69681978  -0.00437023  1
  H+  H15  1  0.15158261  0.98282027  0.51193061  1
  H+  H16  1  0.85314337  0.70182293  0.48733461  1
  H+  H17  1  0.20345898  0.48785243  0.79891567  1
  H+  H18  1  0.19597753  0.15586841  0.25998725  1
  H+  H19  1  0.83334707  0.34503586  0.25685449  1
  H+  H20  1  0.17559113  0.83199568  0.76209082  1
  H+  H21  1  0.43537151  0.89059632  0.14595787  1
  H+  H22  1  0.94362540  0.46251629  0.78208570  1
  H+  H23  1  0.38631832  0.52886840  0.74480381  1
  H+  H24  1  0.49202617  -0.04089307  0.53960907  1
  H+  H25  1  0.68487442  0.15822497  0.74768598  1
  H+  H26  1  0.82613208  0.34694345  0.76640636  1
  H+  H27  1  0.69861274  0.52195690  0.23755453  1
  H+  H28  1  0.32121965  0.84792607  0.25571160  1
  H+  H29  1  0.19440514  0.84949285  0.25910335  1
  H+  H30  1  1.03152901  0.48353872  0.24539833  1
  H+  H31  1  0.69987633  0.86088858  0.24286156  1
  H+  H32  1  0.47764145  0.85297447  0.23538720  1
  H+  H33  1  0.36815562  0.17269750  0.73070177  1
  H+  H34  1  0.14377316  0.63422604  0.80008217  1
  H+  H35  1  0.48404289  0.12823106  -0.01737593  1
  H+  H36  1  0.31275771  0.15308718  0.26171788  1
  H+  H37  1  0.49141613  0.19300380  0.23989737  1
  H+  H38  1  0.84442022  0.13276792  0.48997540  1
  H+  H39  1  0.45700750  0.21955701  0.58685316  1
  H+  H40  1  0.52331489  0.70654714  1.01112044  1
  H+  H41  1  0.84843702  0.81506786  0.99562522  1
  H+  H42  1  0.12016571  0.56040406  0.17198652  1
  H+  H43  1  0.51373114  0.81840962  0.99988367  1
  H+  H44  1  0.64397206  0.48304837  0.47532864  1
  H+  H45  1  0.20972995  0.87097828  0.48641527  1
  H+  H46  1  0.32139223  0.48685464  0.50182392  1
  H+  H47  1  0.05288005  0.17962431  0.00903312  1
  H+  H48  1  0.69480411  0.51654363  0.01333562  1
  H+  H49  1  0.52032109  0.49560400  0.23253067  1
  H+  H50  1  0.87919440  0.44638907  0.91176444  1
  H+  H51  1  0.19131941  0.15939801  0.76206602  1
  H+  H52  1  0.74181940  0.11972406  0.17875723  1
  H+  H53  1  0.36483964  0.18457021  0.00739860  1
  H+  H54  1  0.86686751  0.03846239  0.76441327  1
  H+  H55  1  0.50477572  0.69065027  0.47269268  1
  H+  H56  1  0.50762060  0.12690713  0.74918099  1
  H+  H57  1  0.02838978  0.85360918  0.01612590  1
  H+  H58  1  0.87481807  0.16338436  0.26490994  1
  H+  H59  1  0.81037519  0.51507162  0.73143142  1
  H+  H60  1  1.02852636  0.54260436  0.43458630  1
  H+  H61  1  0.64735238  0.10387712  0.50272812  1
  H+  H62  1  0.20060902  0.36992241  0.50810863  1
  H+  H63  1  0.97076284  0.82407109  0.25723355  1
  H+  H64  1  0.48626378  0.30970020  0.23297196  1
  H+  H65  1  0.50625246  1.00621779  0.75697151  1
  H+  H66  1  0.89762855  0.77669572  0.85402866  1
  H+  H67  1  0.48550872  0.28729542  0.73696179  1
  H+  H68  1  0.02921222  0.85320498  0.74360629  1
  H+  H69  1  0.67777260  0.16153949  0.24528350  1
  H+  H70  1  0.03135286  0.53377399  0.03413539  1
  H+  H71  1  0.80811311  0.30733899  0.00356456  1
  H+  H72  1  0.20509674  0.37363291  0.77557945  1
  H+  H73  1  0.31401814  0.15607307  0.49025326  1
  H+  H74  1  0.50762024  0.64423058  0.74387258  1
  H+  H75  1  0.15901412  0.56826214  0.35770626  1
  H+  H76  1  0.14909159  0.97321289  0.01156325  1
  H+  H77  1  0.04414679  0.19542659  0.75043877  1
  H+  H78  1  0.17917970  0.82749603  -0.00003206  1
  H+  H79  1  0.52260934  0.48519664  0.01243275  1
  H+  H80  1  0.51328308  0.47026229  0.76160044  1
  H+  H81  1  0.32438023  0.48565290  0.21205693  1
  H+  H82  1  0.18151725  0.52066028  0.44982646  1
  H+  H83  1  0.70002068  0.85081909  0.01571689  1
  H+  H84  1  0.29839000  0.84214728  0.76862109  1
  H+  H85  1  0.78618748  0.33258581  0.52629456  1
  H+  H86  1  1.04541115  0.19010260  0.51885536  1
  H+  H87  1  0.83766375  0.53738280  0.49856362  1
  H+  H88  1  0.14680214  0.65304835  0.03111738  1
  H+  H89  1  0.18451150  0.30868114  0.22694287  1
  H+  H90  1  0.72165454  0.85733128  0.74857943  1
  H+  H91  1  0.11336773  0.55421049  0.71727388  1
  H+  H92  1  0.84850307  0.49309468  -0.00016855  1
  H+  H93  1  0.77293799  0.32318365  0.47625553  1
  H+  H94  1  1.03512396  0.85941316  0.50703070  1
  H+  H95  1  0.16171161  0.18564218  0.51863129  1
  H+  H96  1  0.38242115  0.51616822  0.04816770  1
  H+  H97  1  0.50306888  0.51949316  0.50699984  1
  H+  H98  1  0.81698908  0.85692251  0.24614297  1
  H+  H99  1  0.83139834  0.64193303  0.73106409  1
  H+  H100  1  0.20168304  0.47207898  0.23792575  1
  H+  H101  1  0.86084504  0.82209463  0.76668852  1
  H+  H102  1  0.85286346  0.70397814  0.25597648  1
  H+  H103  1  0.68711797  0.02629126  0.55631632  1
  H+  H104  1  0.83977463  0.86151812  0.51967761  1
  H+  H105  1  0.39013771  0.78904061  0.74176567  1
  H+  H106  1  0.46285248  -0.04438812  1.00777696  1
  H+  H107  1  0.85401559  0.98518575  0.52068598  1
  H+  H108  1  0.46968587  0.02768151  0.44611917  1
  H+  H109  1  0.49257196  0.80102696  0.47820556  1
  H+  H110  1  0.07109461  0.54253611  0.59953104  1
  H+  H111  1  0.88973238  0.44704006  0.33190132  1
  H+  H112  1  0.77570150  0.56061399  0.10219826  1
  H+  H113  1  0.22757615  0.10946224  0.90024770  1
  H+  H114  1  0.80589373  0.90111516  0.66064330  1
  H+  H115  1  0.25371156  0.83555478  0.35936347  1
  H+  H116  1  0.18272730  0.03649856  0.75813631  1
  H+  H117  1  0.12447833  0.23368783  0.66202387  1
  H+  H118  1  0.89227314  0.78308898  0.39884454  1
  H+  H119  1  0.51630250  0.07944318  0.89395031  1
  H+  H120  1  0.47059785  0.56406206  0.59830291  1
  H+  H121  1  0.57569143  0.78525803  0.85294770  1
  H+  H122  1  0.10711250  0.89558655  0.65182419  1
  H+  H123  1  0.52616326  0.36411799  0.47583080  1
  H+  H124  1  0.44324594  0.86914598  0.62486589  1
  H+  H125  1  0.13305010  0.21788635  0.09933384  1
  H+  H126  1  0.96895178  0.60993911  0.39999735  1
  H+  H127  1  0.55109520  0.45709890  0.32969760  1
  H+  H128  1  0.11588327  0.89947034  0.15383283  1
  H+  H129  1  0.12940197  0.59622830  0.60068891  1
  H+  H130  1  0.55472811  0.11777541  0.35320032  1
  H+  H131  1  0.81235734  0.51150304  0.23570110  1
  H+  H132  1  0.91090317  0.12349108  0.40229792  1
  H+  H133  1  0.23167570  0.11822629  0.40324721  1
  H+  H134  1  0.75705380  0.18530476  0.65809251  1
  H+  H135  1  0.87467019  1.02677811  -0.00688228  1
  H+  H136  1  0.44394911  0.22321227  0.09687949  1
  H+  H137  1  0.27544635  0.45106742  0.92531285  1
  H+  H138  1  0.54055127  0.42755886  0.85337098  1
  H+  H139  1  0.53744175  0.77004457  0.33030610  1
  H+  H140  1  0.91488296  0.10986477  0.90690034  1
  H+  H141  1  0.78043391  0.89043624  0.10401939  1
  H+  H142  1  0.74779314  0.22453732  0.08209149  1
  H+  H143  1  0.21685968  0.79087211  0.90882356  1
  O2-  O144  1  0.13824323  0.22156505  0.21394897  1
  O2-  O145  1  0.12618748  0.23631647  0.73039634  1
  O2-  O146  1  0.11470061  0.53106702  0.23625353  1
  O2-  O147  1  0.10873913  0.55201747  0.78389302  1
  O2-  O148  1  0.11800632  0.89797894  0.22264114  1
  O2-  O149  1  0.11041411  0.89638963  0.72000210  1
  O2-  O150  1  0.44577364  0.22712607  0.21517617  1
  O2-  O151  1  0.44841910  0.20884532  0.70809163  1
  O2-  O152  1  0.46237738  0.56926221  0.17332198  1
  O2-  O153  1  0.46435944  0.56544617  0.71775575  1
  O2-  O154  1  0.43747764  0.89541809  0.21578080  1
  O2-  O155  1  0.45011201  0.86436594  0.72255261  1
  O2-  O156  1  0.75699524  0.18409708  0.21812738  1
  O2-  O157  1  0.76586191  0.20246634  0.72404779  1
  O2-  O158  1  0.78132210  0.56249148  0.21916630  1
  O2-  O159  1  0.79391059  0.56831783  0.69742422  1
  O2-  O160  1  0.78240839  0.90294874  0.22441181  1
  O2-  O161  1  0.80403912  0.89930268  0.72970935  1
  O2-  O162  1  0.23239675  0.11163168  0.28579185  1
  O2-  O163  1  0.23020049  0.11620648  0.78162798  1
  O2-  O164  1  0.25036893  0.43630495  0.24411079  1
  O2-  O165  1  0.25206158  0.45241869  0.80170268  1
  O2-  O166  1  0.24196990  0.81719820  0.28778867  1
  O2-  O167  1  0.21882879  0.79604711  0.79009957  1
  O2-  O168  1  0.55674665  0.12262161  0.28017902  1
  O2-  O169  1  0.54708818  0.08813225  0.77674887  1
  O2-  O170  1  0.55648080  0.45422103  0.26209511  1
  O2-  O171  1  0.53237656  0.41397282  0.78699263  1
  O2-  O172  1  0.55091555  0.78475799  0.26228026  1
  O2-  O173  1  0.58364181  0.78612149  0.78568913  1
  O2-  O174  1  0.91607880  0.12361039  0.28410430  1
  O2-  O175  1  0.90502704  0.11975980  0.78629564  1
  O2-  O176  1  0.87380633  0.42812275  0.26565203  1
  O2-  O177  1  0.86035432  0.42642004  0.79073691  1
  O2-  O178  1  0.89011351  0.78451289  0.27919337  1
  O2-  O179  1  0.90023611  0.77882687  0.78593592  1
  O2-  O180  1  0.23118694  0.11846678  0.47152101  1
  O2-  O181  1  0.22723641  0.10599854  0.96837593  1
  O2-  O182  1  0.23922615  0.44918412  0.48480070  1
  O2-  O183  1  0.27534543  0.44613260  0.99260248  1
  O2-  O184  1  0.27142092  0.86692869  0.45161853  1
  O2-  O185  1  0.21715201  0.78516981  0.97641938  1
  O2-  O186  1  0.54152830  0.10019396  0.45126923  1
  O2-  O187  1  0.48237901  0.06012231  0.95581808  1
  O2-  O188  1  0.56367246  0.44442339  0.45233079  1
  O2-  O189  1  0.55795034  0.44670807  0.97949515  1
  O2-  O190  1  0.52437768  0.76291607  0.44041008  1
  O2-  O191  1  0.55872135  0.78145651  0.97958042  1
  O2-  O192  1  0.90989183  0.12353441  0.47031459  1
  O2-  O193  1  0.92664055  0.10635833  0.97323254  1
  O2-  O194  1  0.94835247  0.53611661  0.42681006  1
  O2-  O195  1  0.89309358  0.45664917  0.97846098  1
  O2-  O196  1  0.89813328  0.78371761  0.46661887  1
  O2-  O197  1  0.89226391  0.77801319  0.97311175  1
  O2-  O198  1  0.13564877  0.22258501  0.03115206  1
  O2-  O199  1  0.12325396  0.22523013  0.54638106  1
  O2-  O200  1  0.10642467  0.57959425  0.06444685  1
  O2-  O201  1  0.15127000  0.57013159  0.42435658  1
  O2-  O202  1  0.10874448  0.89506588  0.04034265  1
  O2-  O203  1  0.11364306  0.90173251  0.53453191  1
  O2-  O204  1  0.44628106  0.22726340  0.02894685  1
  O2-  O205  1  0.45519219  0.22270951  0.51887370  1
  O2-  O206  1  0.46644924  0.56788489  0.07215013  1
  O2-  O207  1  0.46578625  0.56199978  0.53047409  1
  O2-  O208  1  0.43532202  0.87744779  0.03890433  1
  O2-  O209  1  0.44106809  0.87765451  0.55180424  1
  O2-  O210  1  0.75293898  0.22567415  0.01592256  1
  O2-  O211  1  0.71313245  0.10555568  0.54004672  1
  O2-  O212  1  0.77677334  0.56108335  0.03410365  1
  O2-  O213  1  0.78500010  0.56322236  0.52056709  1
  O2-  O214  1  0.78125904  0.88487615  0.03632655  1
  O2-  O215  1  0.81182786  0.90883014  0.54971004  1
