# generated using pymatgen
data_H2O
_symmetry_space_group_name_H-M   'P 1'
_cell_length_a   13.47509348
_cell_length_b   13.48287416
_cell_length_c   14.64902421
_cell_angle_alpha   90.01932943
_cell_angle_beta   89.96934333
_cell_angle_gamma   119.99022653
_symmetry_Int_Tables_number   1
_chemical_formula_structural   H2O
_chemical_formula_sum   'H144 O72'
_cell_volume   2305.13463131
_cell_formula_units_Z   72
loop_
 _symmetry_equiv_pos_site_id
 _symmetry_equiv_pos_as_xyz
  1  'x, y, z'
loop_
 _atom_type_symbol
 _atom_type_oxidation_number
  H+  1.0
  O2-  -2.0
loop_
 _atom_site_type_symbol
 _atom_site_label
 _atom_site_symmetry_multiplicity
 _atom_site_fract_x
 _atom_site_fract_y
 _atom_site_fract_z
 _atom_site_occupancy
  H+  H0  1  0.49856485  0.86068414  0.50377517  1
  H+  H1  1  0.49911286  0.33226773  0.73054771  1
  H+  H2  1  0.81385386  0.31753144  0.51763267  1
  H+  H3  1  0.48959448  0.78780086  0.25989686  1
  H+  H4  1  0.19181645  0.37942263  0.47073718  1
  H+  H5  1  0.79507541  0.83571837  0.25714536  1
  H+  H6  1  0.10022635  0.31615749  0.79558127  1
  H+  H7  1  0.80976842  0.18022289  0.01780276  1
  H+  H8  1  1.02447981  0.50825529  1.01370056  1
  H+  H9  1  0.57287903  0.79092867  0.65553568  1
  H+  H10  1  0.18090112  0.85033402  0.73153542  1
  H+  H11  1  0.35360175  0.19769868  0.24444781  1
  H+  H12  1  0.19854493  -0.02133014  0.73372075  1
  H+  H13  1  0.48973251  0.18438192  0.99399003  1
  H+  H14  1  0.19739440  0.03926992  0.99488606  1
  H+  H15  1  0.14027743  0.63441526  0.50426534  1
  H+  H16  1  0.30621672  0.81200987  -0.00438401  1
  H+  H17  1  0.51780273  0.04117479  0.99022202  1
  H+  H18  1  0.52923590  0.00939264  0.22320785  1
  H+  H19  1  0.83768832  0.36333351  0.75735721  1
  H+  H20  1  0.54148970  0.22607243  0.27143915  1
  H+  H21  1  0.44780476  0.88190175  0.08904617  1
  H+  H22  1  0.55793587  0.40471256  0.25831483  1
  H+  H23  1  0.84458573  0.86433630  0.73887529  1
  H+  H24  1  0.51297663  0.16345388  0.49108432  1
  H+  H25  1  0.84198889  0.48157942  0.48724654  1
  H+  H26  1  0.24782258  0.96431728  0.09862944  1
  H+  H27  1  0.23501546  0.46526343  0.38831983  1
  H+  H28  1  0.85121412  0.35117735  0.25679145  1
  H+  H29  1  0.37260599  0.52575237  0.50278085  1
  H+  H30  1  0.49637030  0.85293271  1.00095744  1
  H+  H31  1  -0.03841262  0.47854232  0.49280583  1
  H+  H32  1  0.35882786  0.18805332  0.49121906  1
  H+  H33  1  0.17967664  0.47349029  1.01839694  1
  H+  H34  1  0.67014916  0.16624182  0.74142696  1
  H+  H35  1  0.61644945  0.80736907  0.26631714  1
  H+  H36  1  0.31506585  0.49039112  0.25285391  1
  H+  H37  1  0.95726127  0.14075458  1.00626565  1
  H+  H38  1  0.53956296  0.51071209  0.26069480  1
  H+  H39  1  0.16979379  0.86310837  0.50458424  1
  H+  H40  1  0.72703867  0.86353938  0.72233285  1
  H+  H41  1  0.14005271  0.28605929  0.03325914  1
  H+  H42  1  0.74895880  0.60234992  0.28172081  1
  H+  H43  1  0.15429695  0.91036029  0.61389023  1
  H+  H44  1  0.81376268  0.84103335  0.01812830  1
  H+  H45  1  0.83023551  0.02433154  0.26132164  1
  H+  H46  1  0.98162176  0.48081299  0.26623901  1
  H+  H47  1  0.81860510  0.51771176  0.00452152  1
  H+  H48  1  0.48912802  0.10545205  0.77589460  1
  H+  H49  1  0.84933007  0.80574586  0.44721373  1
  H+  H50  1  0.11545908  0.21767910  0.71437900  1
  H+  H51  1  0.14006102  0.17120280  1.01834439  1
  H+  H52  1  -0.04091433  0.48111931  0.75607947  1
  H+  H53  1  0.84725148  0.36400495  0.98993110  1
  H+  H54  1  0.19184469  0.81568258  1.01217780  1
  H+  H55  1  0.13867892  0.63560051  0.74245599  1
  H+  H56  1  0.30632861  0.80720519  0.78824357  1
  H+  H57  1  0.50251824  0.63976156  0.72594578  1
  H+  H58  1  0.18051021  0.15289867  0.47695454  1
  H+  H59  1  0.64946817  0.82578860  0.52280672  1
  H+  H60  1  0.49177757  0.32145551  -0.01221032  1
  H+  H61  1  0.14057511  0.69007807  0.26396368  1
  H+  H62  1  0.84855978  0.70523730  0.75677830  1
  H+  H63  1  0.49087794  0.52322595  0.50314785  1
  H+  H64  1  0.17247109  -0.01108850  0.50561474  1
  H+  H65  1  -0.04056347  0.80865019  -0.00500352  1
  H+  H66  1  0.80969017  0.95859048  0.02161262  1
  H+  H67  1  0.32899574  0.16231294  0.75755312  1
  H+  H68  1  0.48520986  0.62188462  0.01046884  1
  H+  H69  1  0.52268932  0.49459076  0.75787929  1
  H+  H70  1  0.84538726  0.03064058  0.76096246  1
  H+  H71  1  0.19635545  0.12541545  0.75026977  1
  H+  H72  1  0.52586986  0.70866631  0.52629938  1
  H+  H73  1  0.69975492  0.51527178  0.00558731  1
  H+  H74  1  0.51774180  0.37410506  0.47641512  1
  H+  H75  1  0.82112197  0.62779009  0.48580391  1
  H+  H76  1  0.94634791  0.15723806  0.77489529  1
  H+  H77  1  0.36342886  0.18407441  0.99419112  1
  H+  H78  1  0.01482260  0.18146970  0.48846733  1
  H+  H79  1  0.84000347  0.14143845  0.48145493  1
  H+  H80  1  0.20298278  0.36785386  0.26296920  1
  H+  H81  1  0.31496250  0.80237769  0.22990775  1
  H+  H82  1  0.29763832  0.81455098  0.47059852  1
  H+  H83  1  0.70567895  0.22675757  0.24590731  1
  H+  H84  1  0.43835905  0.23773353  0.58127351  1
  H+  H85  1  0.15000298  0.51397038  0.24177781  1
  H+  H86  1  0.68279894  0.19374389  0.51450183  1
  H+  H87  1  0.83320701  0.14499741  0.25900743  1
  H+  H88  1  0.69426200  0.18710880  1.01087273  1
  H+  H89  1  0.50443094  0.47100322  0.98942074  1
  H+  H90  1  0.36402407  0.50475326  1.02343933  1
  H+  H91  1  0.12868538  0.98133632  0.26014172  1
  H+  H92  1  0.14630909  0.81383626  0.26776424  1
  H+  H93  1  0.77871544  0.23893448  0.15188221  1
  H+  H94  1  0.47944005  1.00890524  0.24690256  1
  H+  H95  1  0.79250709  0.17089653  0.73843523  1
  H+  H96  1  0.19936843  0.77374002  0.39592504  1
  H+  H97  1  0.00970047  0.85798559  0.26501372  1
  H+  H98  1  0.14472317  0.62611696  0.01985675  1
  H+  H99  1  0.48691940  0.63592208  0.24743974  1
  H+  H100  1  0.64045204  0.80822336  0.99529389  1
  H+  H101  1  0.52287832  0.23262076  0.70577341  1
  H+  H102  1  0.43343945  0.23090547  0.15554534  1
  H+  H103  1  0.82778704  0.96522300  0.49541343  1
  H+  H104  1  0.14740751  0.52015206  0.50168357  1
  H+  H105  1  0.70061819  0.51436400  0.49820660  1
  H+  H106  1  0.09825968  0.33517405  0.74707563  1
  H+  H107  1  0.33728369  0.52950059  0.78804267  1
  H+  H108  1  0.88349025  0.77756900  0.84837131  1
  H+  H109  1  0.44448436  0.54659533  0.64889133  1
  H+  H110  1  0.87743721  0.10690397  0.38606259  1
  H+  H111  1  0.52611666  0.04978769  0.47453527  1
  H+  H112  1  0.23646146  0.45592067  0.93137844  1
  H+  H113  1  0.09721673  0.54614387  0.15552806  1
  H+  H114  1  0.13810654  0.17134732  0.19552963  1
  H+  H115  1  0.45489829  0.55549860  0.15594636  1
  H+  H116  1  0.76652138  0.87372157  0.16168968  1
  H+  H117  1  0.81177208  0.89501899  0.58623347  1
  H+  H118  1  0.53580786  0.82269343  0.74882387  1
  H+  H119  1  0.64263197  0.49400204  0.75741740  1
  H+  H120  1  0.55659183  0.11280666  0.89548215  1
  H+  H121  1  0.21778437  0.11681759  0.38257640  1
  H+  H122  1  0.33433535  0.72445308  0.16263897  1
  H+  H123  1  0.43582633  0.88043722  0.69963707  1
  H+  H124  1  0.88725328  0.44305836  0.90009529  1
  H+  H125  1  0.84188080  0.68897300  0.99417806  1
  H+  H126  1  0.58993226  0.19028118  0.35785709  1
  H+  H127  1  0.20848895  0.76780794  0.86171693  1
  H+  H128  1  0.23138309  0.10801720  0.89813837  1
  H+  H129  1  0.43506945  0.91079320  0.55940520  1
  H+  H130  1  0.22445380  0.53764096  0.79454223  1
  H+  H131  1  0.54935131  0.43900814  0.89438857  1
  H+  H132  1  0.09333558  0.14007802  0.62966591  1
  H+  H133  1  0.12187640  0.90622692  0.12803693  1
  H+  H134  1  0.81387172  0.51772795  0.73314423  1
  H+  H135  1  0.08647257  0.27155294  0.56477065  1
  H+  H136  1  0.10353208  0.55713155  0.65311769  1
  H+  H137  1  0.57066248  0.46534594  0.39405498  1
  H+  H138  1  0.56691373  0.76555949  0.90383596  1
  H+  H139  1  0.89058159  0.43304037  0.35744460  1
  H+  H140  1  0.49881443  -0.02612791  0.77949862  1
  H+  H141  1  0.77779169  0.55910897  0.64274239  1
  H+  H142  1  0.87561584  0.10295054  0.91745404  1
  H+  H143  1  0.76111202  0.22507821  0.61556842  1
  O2-  O144  1  0.16315029  0.19260132  0.25918002  1
  O2-  O145  1  0.09364862  0.13916642  0.69691687  1
  O2-  O146  1  0.10170085  0.54825334  0.22470314  1
  O2-  O147  1  0.09894158  0.55475387  0.72078653  1
  O2-  O148  1  0.08813179  0.89835180  0.23899530  1
  O2-  O149  1  0.15939617  0.90357639  0.70086415  1
  O2-  O150  1  0.43583131  0.24201275  0.22164730  1
  O2-  O151  1  0.46256208  0.25250799  0.70149693  1
  O2-  O152  1  0.44905366  0.55323574  0.22373537  1
  O2-  O153  1  0.45446974  0.55479554  0.71685198  1
  O2-  O154  1  0.37542597  0.79851271  0.19298973  1
  O2-  O155  1  0.45270517  0.88249327  0.76436582  1
  O2-  O156  1  0.78336010  0.24219012  0.22041839  1
  O2-  O157  1  0.75150062  0.20981055  0.71314958  1
  O2-  O158  1  0.83410874  0.64836224  0.27743252  1
  O2-  O159  1  0.77289557  0.55755116  0.71064161  1
  O2-  O160  1  0.76062994  0.87825320  0.22936989  1
  O2-  O161  1  0.81090284  0.91032352  0.71030475  1
  O2-  O162  1  0.21779834  0.12259706  0.28137159  1
  O2-  O163  1  0.25176381  0.10859173  0.78284240  1
  O2-  O164  1  0.23184608  0.44987721  0.27395433  1
  O2-  O165  1  0.28105925  0.53013543  0.83154413  1
  O2-  O166  1  0.18614259  0.77059302  0.28539011  1
  O2-  O167  1  0.22130470  0.77150624  0.79447272  1
  O2-  O168  1  0.61214684  0.23468202  0.30066445  1
  O2-  O169  1  0.55264276  0.09455836  0.79351651  1
  O2-  O170  1  0.59149334  0.48259094  0.28355055  1
  O2-  O171  1  0.56167534  0.45204154  0.78218849  1
  O2-  O172  1  0.53633305  0.75869010  0.28828940  1
  O2-  O173  1  0.57808741  0.78489125  0.72377946  1
  O2-  O174  1  0.87104922  0.10442893  0.28449841  1
  O2-  O175  1  0.86555537  0.10742436  0.78998382  1
  O2-  O176  1  0.89784876  0.43518059  0.28852504  1
  O2-  O177  1  0.87800151  0.44336465  0.77950233  1
  O2-  O178  1  0.86249778  0.75756705  0.31484007  1
  O2-  O179  1  0.88864804  0.78425803  0.78112067  1
  O2-  O180  1  0.22099085  0.11368292  0.45530987  1
  O2-  O181  1  0.23325961  0.11652401  0.96635230  1
  O2-  O182  1  0.23070582  0.46212398  0.45699051  1
  O2-  O183  1  0.22257057  0.43499008  0.99781919  1
  O2-  O184  1  0.21341183  0.77811320  0.46414207  1
  O2-  O185  1  0.22212256  0.77015147  0.98253637  1
  O2-  O186  1  0.56733896  0.13527647  0.47255429  1
  O2-  O187  1  0.55376516  0.12124548  0.96667637  1
  O2-  O188  1  0.56293032  0.45744754  0.46285583  1
  O2-  O189  1  0.54195213  0.42756282  0.96311670  1
  O2-  O190  1  0.56618266  0.79292848  0.53953580  1
  O2-  O191  1  0.55929918  0.76730898  0.96997958  1
  O2-  O192  1  0.88491057  0.10844204  0.45732044  1
  O2-  O193  1  0.87536067  0.10200183  0.98522204  1
  O2-  O194  1  0.87971976  0.43355833  0.47054867  1
  O2-  O195  1  0.89085046  0.44513036  0.96818899  1
  O2-  O196  1  0.88205380  0.75811334  0.42499920  1
  O2-  O197  1  0.88052120  0.77319437  0.97382410  1
  O2-  O198  1  0.09759666  0.20331100  0.04969665  1
  O2-  O199  1  0.09521443  0.22667763  0.51641099  1
  O2-  O200  1  0.10226826  0.54616264  0.04357269  1
  O2-  O201  1  0.10071177  0.55324575  0.52569181  1
  O2-  O202  1  0.17131259  0.92454447  0.07150346  1
  O2-  O203  1  0.14178372  0.91132823  0.53658140  1
  O2-  O204  1  0.44822208  0.22893377  0.01373781  1
  O2-  O205  1  0.44047846  0.22889286  0.51404644  1
  O2-  O206  1  0.44904554  0.54261956  0.03556029  1
  O2-  O207  1  0.44998136  0.56090464  0.53123430  1
  O2-  O208  1  0.45633559  0.89422478  0.02215522  1
  O2-  O209  1  0.45336298  0.90213454  0.49667287  1
  O2-  O210  1  0.77393669  0.22693882  0.03597874  1
  O2-  O211  1  0.76588461  0.23358717  0.54235659  1
  O2-  O212  1  0.78003270  0.56047677  0.02491870  1
  O2-  O213  1  0.78301722  0.55217787  0.51831892  1
  O2-  O214  1  0.76886775  0.87673789  0.04187088  1
  O2-  O215  1  0.79446903  0.88586531  0.51952054  1
