# generated using pymatgen
data_H2O
_symmetry_space_group_name_H-M   'P 1'
_cell_length_a   13.51624622
_cell_length_b   13.50646084
_cell_length_c   14.71651554
_cell_angle_alpha   89.90607045
_cell_angle_beta   90.08298907
_cell_angle_gamma   119.95087374
_symmetry_Int_Tables_number   1
_chemical_formula_structural   H2O
_chemical_formula_sum   'H144 O72'
_cell_volume   2327.80909337
_cell_formula_units_Z   72
loop_
 _symmetry_equiv_pos_site_id
 _symmetry_equiv_pos_as_xyz
  1  'x, y, z'
loop_
 _atom_type_symbol
 _atom_type_oxidation_number
  H+  1.0
  O2-  -2.0
loop_
 _atom_site_type_symbol
 _atom_site_label
 _atom_site_symmetry_multiplicity
 _atom_site_fract_x
 _atom_site_fract_y
 _atom_site_fract_z
 _atom_site_occupancy
  H+  H0  1  0.63635518  0.47034273  -0.03629333  1
  H+  H1  1  0.48006520  0.50901065  0.52636648  1
  H+  H2  1  0.18712338  0.81579695  0.53038690  1
  H+  H3  1  0.82749609  0.84807445  -0.00377397  1
  H+  H4  1  0.02468191  0.84248231  0.73232754  1
  H+  H5  1  0.38060082  0.88588497  0.17658527  1
  H+  H6  1  0.27877621  0.17671674  0.74753137  1
  H+  H7  1  0.34620936  0.83016666  0.52577802  1
  H+  H8  1  0.34782494  0.50692193  0.25693342  1
  H+  H9  1  0.67894647  0.51684924  0.49771198  1
  H+  H10  1  0.20197857  0.37335649  0.98522864  1
  H+  H11  1  1.09659479  0.87458516  0.61366816  1
  H+  H12  1  0.18669670  0.03566788  0.25196751  1
  H+  H13  1  0.11578484  0.89420384  0.08766314  1
  H+  H14  1  0.15362699  0.97033933  -0.00300063  1
  H+  H15  1  0.32598346  0.49029677  -0.02616628  1
  H+  H16  1  0.35594949  0.49658438  0.75050169  1
  H+  H17  1  0.63334875  0.48229947  0.74473872  1
  H+  H18  1  0.88402834  0.76979559  0.84120716  1
  H+  H19  1  0.81824007  0.97293025  0.23123956  1
  H+  H20  1  0.80186911  0.51236373  0.49575127  1
  H+  H21  1  0.14542480  0.28296286  0.22533694  1
  H+  H22  1  0.51606546  0.66002321  -0.05148456  1
  H+  H23  1  0.83726674  0.80542413  0.75424116  1
  H+  H24  1  0.37269305  0.19100212  0.50270764  1
  H+  H25  1  0.13480208  -0.05548654  0.51501692  1
  H+  H26  1  0.19164185  0.54399594  -0.03023705  1
  H+  H27  1  0.16906727  0.72550141  0.31504097  1
  H+  H28  1  0.98579378  0.37614917  0.58934658  1
  H+  H29  1  0.15326466  0.86538010  0.23960262  1
  H+  H30  1  0.81474842  0.35282579  0.24825748  1
  H+  H31  1  0.80815407  0.84295453  0.50912885  1
  H+  H32  1  0.50236743  0.15345077  0.26275207  1
  H+  H33  1  0.70327813  0.18122836  0.99025420  1
  H+  H34  1  0.44843476  0.22618216  0.14469522  1
  H+  H35  1  0.04247416  0.19229585  -0.00646977  1
  H+  H36  1  0.81602651  0.64998990  0.49458454  1
  H+  H37  1  0.15548059  0.50979822  0.74540830  1
  H+  H38  1  0.85872581  0.72214558  0.27501112  1
  H+  H39  1  0.48030280  0.29628495  0.00015993  1
  H+  H40  1  0.61625583  0.12471154  0.49866454  1
  H+  H41  1  0.82253046  0.17854621  0.73074063  1
  H+  H42  1  0.49913904  0.98138986  -0.01901847  1
  H+  H43  1  0.96946803  0.48262630  0.74823220  1
  H+  H44  1  0.16842717  0.45937776  0.23588841  1
  H+  H45  1  0.10555505  0.15243021  0.54245057  1
  H+  H46  1  0.51148487  0.70011974  0.25734084  1
  H+  H47  1  0.16499572  0.33605393  0.52941784  1
  H+  H48  1  0.13009054  0.60236530  0.19899530  1
  H+  H49  1  0.18005023  0.70422249  0.75036173  1
  H+  H50  1  0.65973864  0.83469351  0.95555118  1
  H+  H51  1  0.63659579  0.82054410  0.79603304  1
  H+  H52  1  0.49390453  0.47449697  0.27273309  1
  H+  H53  1  0.78799302  0.52308741  0.24271957  1
  H+  H54  1  0.61891518  0.16158356  0.29158653  1
  H+  H55  1  0.85382843  0.68938577  -0.02363482  1
  H+  H56  1  0.61714789  0.48825547  0.27441852  1
  H+  H57  1  0.48172718  0.30311271  0.23691547  1
  H+  H58  1  0.71379350  0.16265251  0.19192917  1
  H+  H59  1  1.07295983  0.16770115  0.74517443  1
  H+  H60  1  1.00135341  0.16628039  0.50770441  1
  H+  H61  1  0.96412920  0.80368164  0.50247387  1
  H+  H62  1  0.84927165  0.48192748  0.73968025  1
  H+  H63  1  0.09694931  0.44613912  0.53343047  1
  H+  H64  1  0.48205701  0.17522714  0.51380755  1
  H+  H65  1  0.54305792  0.83390780  0.93716304  1
  H+  H66  1  0.47932988  0.95442859  0.51346979  1
  H+  H67  1  0.50704189  0.68831703  0.49205051  1
  H+  H68  1  0.24835704  0.22869090  0.45382520  1
  H+  H69  1  0.20357118  0.70720541  -0.02294892  1
  H+  H70  1  0.81247053  0.63321628  0.73743257  1
  H+  H71  1  0.77807298  0.27919559  0.50840105  1
  H+  H72  1  0.14798196  0.16716814  0.22810078  1
  H+  H73  1  0.54237852  0.43939750  0.40854894  1
  H+  H74  1  0.19460444  0.83416642  -0.00937209  1
  H+  H75  1  0.84533154  0.36049579  0.96322459  1
  H+  H76  1  0.29659430  0.82234374  0.75505443  1
  H+  H77  1  0.83398274  0.18834281  0.22847866  1
  H+  H78  1  0.32566524  0.84109147  -0.02008776  1
  H+  H79  1  0.51832190  0.15337585  0.98418690  1
  H+  H80  1  0.20470007  0.35245796  0.76180540  1
  H+  H81  1  0.81896446  0.29608409  0.72845942  1
  H+  H82  1  0.83130952  0.02164624  0.48069125  1
  H+  H83  1  0.91585007  0.47646252  0.27133073  1
  H+  H84  1  0.36076094  0.50542752  0.54139554  1
  H+  H85  1  0.18284741  0.15334943  0.98736876  1
  H+  H86  1  0.97272630  0.80906357  0.97987508  1
  H+  H87  1  0.03457855  0.48481290  0.16145874  1
  H+  H88  1  0.29874226  0.81481032  0.29861671  1
  H+  H89  1  0.30639289  0.15459399  0.24881826  1
  H+  H90  1  0.82648690  0.13747216  0.48203499  1
  H+  H91  1  0.52517320  0.48352093  0.95938147  1
  H+  H92  1  0.85888682  0.03471409  0.74744858  1
  H+  H93  1  0.48843892  0.50227348  0.74703777  1
  H+  H94  1  0.48255236  -0.03326833  0.75232284  1
  H+  H95  1  0.54290538  0.76573442  0.39963356  1
  H+  H96  1  0.10283106  0.53550080  0.65906509  1
  H+  H97  1  0.51850049  0.82092253  0.25395187  1
  H+  H98  1  0.51959955  0.36173901  0.49817186  1
  H+  H99  1  0.23643084  0.43883760  0.84618205  1
  H+  H100  1  0.63234160  0.15459455  0.75227789  1
  H+  H101  1  0.96978286  0.14751562  0.25164638  1
  H+  H102  1  0.88566781  0.11307820  0.33971855  1
  H+  H103  1  0.70322596  0.85242963  0.23305316  1
  H+  H104  1  0.86527976  0.03542428  0.97338479  1
  H+  H105  1  0.03524788  0.86435353  0.23750819  1
  H+  H106  1  0.48793870  -0.01899847  0.22999530  1
  H+  H107  1  0.81764617  0.49837026  -0.03119432  1
  H+  H108  1  0.77166098  0.52182847  0.06023733  1
  H+  H109  1  0.84255276  0.42346343  0.39942392  1
  H+  H110  1  0.47209733  0.29625162  0.73413773  1
  H+  H111  1  0.53020283  0.08518781  0.41228858  1
  H+  H112  1  0.92214148  0.44931738  0.48961677  1
  H+  H113  1  0.55431855  0.43321735  0.83438041  1
  H+  H114  1  0.77024008  0.88350911  0.64659150  1
  H+  H115  1  0.85980905  0.15099613  0.96878752  1
  H+  H116  1  0.76006002  0.20437630  0.59872274  1
  H+  H117  1  0.75233170  0.59623943  0.17810659  1
  H+  H118  1  0.51193194  0.60602969  0.04194144  1
  H+  H119  1  0.41555568  0.53542149  0.16659843  1
  H+  H120  1  0.42919958  0.21369320  0.64959941  1
  H+  H121  1  0.14610483  0.84518873  0.73051557  1
  H+  H122  1  0.14746886  0.57252396  0.05801552  1
  H+  H123  1  0.45882421  0.87535127  0.67749203  1
  H+  H124  1  0.22599333  0.43224920  0.45454550  1
  H+  H125  1  0.77236899  0.55971488  0.64629958  1
  H+  H126  1  0.21692523  0.11912837  0.89622079  1
  H+  H127  1  0.36229334  0.17872069  0.00465733  1
  H+  H128  1  0.55882176  0.12168131  0.89055790  1
  H+  H129  1  0.47719191  0.89618909  0.06287343  1
  H+  H130  1  0.79573902  0.22884900  0.07067209  1
  H+  H131  1  0.89366709  0.78373617  0.40772484  1
  H+  H132  1  0.86027637  0.83954459  0.26602597  1
  H+  H133  1  0.90680850  0.11600570  0.83241124  1
  H+  H134  1  0.51154129  0.15345746  0.75399309  1
  H+  H135  1  0.22704633  0.78358677  0.44147832  1
  H+  H136  1  0.68891426  0.84115233  0.50730381  1
  H+  H137  1  0.47702776  0.82804604  0.50654304  1
  H+  H138  1  0.88251438  0.43753854  0.87362200  1
  H+  H139  1  0.23605156  0.13310487  0.38851517  1
  H+  H140  1  0.78532886  0.89016779  0.08181663  1
  H+  H141  1  0.11251042  0.22094287  0.08676138  1
  H+  H142  1  0.16180690  0.40063191  0.32894817  1
  H+  H143  1  0.44781923  0.55431467  0.66123756  1
  O2-  O144  1  0.10268617  0.20266124  0.20451092  1
  O2-  O145  1  0.15645414  0.21516438  0.73266919  1
  O2-  O146  1  0.11591717  0.52853985  0.17601923  1
  O2-  O147  1  0.11365028  0.54873438  0.72505441  1
  O2-  O148  1  0.11329045  0.90078602  0.20965001  1
  O2-  O149  1  0.10207182  0.88270562  0.70534523  1
  O2-  O150  1  0.44662388  0.22346358  0.21325862  1
  O2-  O151  1  0.42507875  0.21421639  0.71708266  1
  O2-  O152  1  0.42709577  0.54795705  0.23206397  1
  O2-  O153  1  0.44332828  0.54394073  0.72992099  1
  O2-  O154  1  0.45376450  0.90262702  0.20301428  1
  O2-  O155  1  0.44227182  0.88336477  0.74071479  1
  O2-  O156  1  0.79135948  0.22617273  0.20081232  1
  O2-  O157  1  0.77726379  0.21416900  0.70845382  1
  O2-  O158  1  0.75850560  0.57768488  0.24138939  1
  O2-  O159  1  0.77148755  0.55201032  0.71267406  1
  O2-  O160  1  0.78347854  0.89157289  0.21133546  1
  O2-  O161  1  0.76983619  0.88097663  0.71489890  1
  O2-  O162  1  0.22715040  0.11649585  0.27439604  1
  O2-  O163  1  0.20410214  0.15120351  0.77899093  1
  O2-  O164  1  0.20383211  0.42204259  0.27179789  1
  O2-  O165  1  0.23764851  0.43573899  0.77759247  1
  O2-  O166  1  0.22516729  0.80706301  0.31639761  1
  O2-  O167  1  0.21282899  0.78527562  0.76646429  1
  O2-  O168  1  0.53672089  0.10827984  0.29088710  1
  O2-  O169  1  0.55453746  0.11732754  0.77934879  1
  O2-  O170  1  0.53689219  0.43663667  0.29418682  1
  O2-  O171  1  0.55156167  0.44020661  0.76612784  1
  O2-  O172  1  0.55521763  0.77980038  0.28007985  1
  O2-  O173  1  0.64470613  0.81456308  0.72935353  1
  O2-  O174  1  0.88837434  0.11592943  0.27154986  1
  O2-  O175  1  0.90664180  0.11610082  0.76438324  1
  O2-  O176  1  0.83361890  0.42682409  0.27909098  1
  O2-  O177  1  0.88530120  0.43659827  0.75943467  1
  O2-  O178  1  0.90355104  0.80353657  0.29307646  1
  O2-  O179  1  0.87852995  0.76492213  0.77344161  1
  O2-  O180  1  0.24459641  0.15467489  0.45461699  1
  O2-  O181  1  0.22033520  0.11061337  0.96305788  1
  O2-  O182  1  0.21330369  0.42320470  0.51983944  1
  O2-  O183  1  0.24392280  0.45176462  0.95717960  1
  O2-  O184  1  0.23371243  0.78072080  0.50797655  1
  O2-  O185  1  0.24010392  0.79718055  0.96764574  1
  O2-  O186  1  0.53286981  0.08056944  0.47954915  1
  O2-  O187  1  0.56115834  0.11684073  0.95925743  1
  O2-  O188  1  0.55378076  0.44376744  0.47647019  1
  O2-  O189  1  0.55350694  0.42986990  0.94553013  1
  O2-  O190  1  0.54268419  0.76786745  0.46766247  1
  O2-  O191  1  0.58724413  0.79661988  0.91932340  1
  O2-  O192  1  0.87006870  0.10195858  0.45700273  1
  O2-  O193  1  0.90619039  0.11559221  0.95022134  1
  O2-  O194  1  0.84420779  0.42919244  0.46688161  1
  O2-  O195  1  0.87944422  0.44065346  0.94144013  1
  O2-  O196  1  0.88353850  0.76664772  0.47485333  1
  O2-  O197  1  0.89201824  0.77161747  0.95879048  1
  O2-  O198  1  0.12182216  0.23287274  0.01971139  1
  O2-  O199  1  0.07768248  0.20662260  0.53856857  1
  O2-  O200  1  0.15619404  0.58881261  -0.00744597  1
  O2-  O201  1  0.02698374  0.44684605  0.55424636  1
  O2-  O202  1  0.11924422  0.88953187  0.02034242  1
  O2-  O203  1  0.09551464  0.86629200  0.53841194  1
  O2-  O204  1  0.44246827  0.21870240  0.02859409  1
  O2-  O205  1  0.45077819  0.22556671  0.53061523  1
  O2-  O206  1  0.48020010  0.58314326  -0.01896488  1
  O2-  O207  1  0.44493915  0.55340392  0.55070545  1
  O2-  O208  1  0.46087616  0.89695243  -0.00208392  1
  O2-  O209  1  0.44014206  0.87103894  0.53584911  1
  O2-  O210  1  0.78718529  0.22069096  0.00419599  1
  O2-  O211  1  0.75015277  0.20009973  0.52981304  1
  O2-  O212  1  0.77471033  0.53974573  -0.00421288  1
  O2-  O213  1  0.76566916  0.56070214  0.51521566  1
  O2-  O214  1  0.78889802  0.89187756  0.01452619  1
  O2-  O215  1  0.76960066  0.88560269  0.52821238  1
