# generated using pymatgen
data_H2O
_symmetry_space_group_name_H-M   'P 1'
_cell_length_a   13.49808163
_cell_length_b   13.49508313
_cell_length_c   14.68760549
_cell_angle_alpha   89.97173831
_cell_angle_beta   90.03602527
_cell_angle_gamma   119.97158692
_symmetry_Int_Tables_number   1
_chemical_formula_structural   H2O
_chemical_formula_sum   'H144 O72'
_cell_volume   2317.67972266
_cell_formula_units_Z   72
loop_
 _symmetry_equiv_pos_site_id
 _symmetry_equiv_pos_as_xyz
  1  'x, y, z'
loop_
 _atom_type_symbol
 _atom_type_oxidation_number
  H+  1.0
  O2-  -2.0
loop_
 _atom_site_type_symbol
 _atom_site_label
 _atom_site_symmetry_multiplicity
 _atom_site_fract_x
 _atom_site_fract_y
 _atom_site_fract_z
 _atom_site_occupancy
  H+  H0  1  0.14956374  0.51390479  0.00528579  1
  H+  H1  1  0.83696860  0.69059563  0.76047826  1
  H+  H2  1  0.82955666  -0.02120083  0.51698910  1
  H+  H3  1  0.50338928  0.80744884  0.25654683  1
  H+  H4  1  0.35890359  0.16225521  0.74757007  1
  H+  H5  1  0.15380401  0.97589072  0.24551157  1
  H+  H6  1  0.49893625  1.00856527  0.75615829  1
  H+  H7  1  0.51000307  0.34260479  0.98205974  1
  H+  H8  1  0.49462942  0.13909328  0.75371402  1
  H+  H9  1  0.80951100  0.83724903  0.74255808  1
  H+  H10  1  0.63697745  0.81443682  0.75682917  1
  H+  H11  1  0.17470564  0.35888734  0.20008602  1
  H+  H12  1  0.87520538  0.77112529  0.84755791  1
  H+  H13  1  0.65702380  0.84003392  0.48631538  1
  H+  H14  1  0.19076564  0.81548191  0.71667001  1
  H+  H15  1  0.80364285  0.51528008  0.02666571  1
  H+  H16  1  0.29286289  0.47335610  0.75925761  1
  H+  H17  1  0.85089628  0.48595279  0.48941835  1
  H+  H18  1  0.39400232  0.57348571  0.52344492  1
  H+  H19  1  0.64237718  0.15143094  0.98339449  1
  H+  H20  1  0.55334840  0.42064471  0.54653829  1
  H+  H21  1  0.47887127  0.50784661  0.73968503  1
  H+  H22  1  0.37216412  0.84798672  0.51043412  1
  H+  H23  1  0.35977957  0.17253329  0.01059690  1
  H+  H24  1  0.46193685  0.62834360  0.23528195  1
  H+  H25  1  0.98881402  0.82381118  0.51063104  1
  H+  H26  1  0.96562367  0.48276987  0.50015777  1
  H+  H27  1  0.68097095  0.83782682  0.22553486  1
  H+  H28  1  0.16244662  0.13852630  0.98356824  1
  H+  H29  1  0.49530819  0.85531065  0.51038201  1
  H+  H30  1  0.84486215  0.52171033  0.25932713  1
  H+  H31  1  0.83644370  0.19345655  0.01635879  1
  H+  H32  1  0.16218534  0.95330266  0.52399431  1
  H+  H33  1  0.36344496  0.85085227  0.73294758  1
  H+  H34  1  0.80376309  0.35360933  -0.00290578  1
  H+  H35  1  0.52194193  1.02556127  0.49208841  1
  H+  H36  1  0.48464634  0.63083636  0.74836329  1
  H+  H37  1  0.32247299  0.49981975  0.20414381  1
  H+  H38  1  0.14790199  0.63008794  0.74890590  1
  H+  H39  1  0.64471500  0.81539024  0.98575353  1
  H+  H40  1  0.02643715  0.17578866  0.22937478  1
  H+  H41  1  0.18452492  0.81832198  0.25817944  1
  H+  H42  1  0.01287487  0.15355472  0.52690141  1
  H+  H43  1  0.84046599  0.14389717  0.25560904  1
  H+  H44  1  -0.00708879  0.82423878  0.27468702  1
  H+  H45  1  0.14066257  0.51894455  0.54043101  1
  H+  H46  1  0.51431380  0.02547232  0.25747491  1
  H+  H47  1  0.18461247  0.15217444  0.25072614  1
  H+  H48  1  0.93337810  0.12976666  0.91382740  1
  H+  H49  1  0.86055797  1.14578437  0.77926226  1
  H+  H50  1  0.17136896  0.48110554  0.20256974  1
  H+  H51  1  0.14705531  0.63199897  0.23216695  1
  H+  H52  1  0.84420238  0.70273435  1.00204014  1
  H+  H53  1  0.48910326  0.62527943  0.00278553  1
  H+  H54  1  0.16755187  0.02549509  0.99664514  1
  H+  H55  1  0.09567035  0.56059139  0.62040140  1
  H+  H56  1  0.49241858  0.29726212  0.23702973  1
  H+  H57  1  0.50581734  0.34752951  0.74676422  1
  H+  H58  1  0.22965090  0.42419107  0.47032225  1
  H+  H59  1  0.84634384  0.47913710  0.76537446  1
  H+  H60  1  0.51123268  0.13702541  0.48866270  1
  H+  H61  1  0.10418231  0.83105768  0.02948503  1
  H+  H62  1  0.85047619  0.36302454  0.77468059  1
  H+  H63  1  0.17264415  0.46987642  0.76142935  1
  H+  H64  1  0.16450935  0.11928400  0.48980096  1
  H+  H65  1  0.50819852  0.84932822  1.00732482  1
  H+  H66  1  0.52945144  0.51095415  0.50191812  1
  H+  H67  1  0.69394310  0.17581035  0.24420889  1
  H+  H68  1  0.69129635  0.18590649  0.52242712  1
  H+  H69  1  0.10528644  0.56239693  0.13740471  1
  H+  H70  1  0.28945575  0.41471807  0.55951889  1
  H+  H71  1  0.84095209  0.65055646  0.51502924  1
  H+  H72  1  0.49033400  0.50793847  0.00436844  1
  H+  H73  1  -0.00060428  0.84881775  0.01641565  1
  H+  H74  1  0.17386791  0.64119496  0.99854316  1
  H+  H75  1  0.13457377  0.26330008  0.53554832  1
  H+  H76  1  0.51720077  0.81254086  0.76029948  1
  H+  H77  1  0.30505975  0.15461787  0.25505156  1
  H+  H78  1  0.70710538  0.54141103  0.05972259  1
  H+  H79  1  0.02625280  0.51316737  0.76054490  1
  H+  H80  1  0.54424976  0.09971809  0.85100158  1
  H+  H81  1  0.69383257  0.50328476  0.73347968  1
  H+  H82  1  0.81527227  0.29402753  0.24562365  1
  H+  H83  1  0.84054069  0.43366718  0.90899983  1
  H+  H84  1  0.81593142  0.95907355  0.74863271  1
  H+  H85  1  0.71788435  0.53896676  0.50741254  1
  H+  H86  1  0.50749036  0.96931722  0.00465496  1
  H+  H87  1  0.83879892  0.16498535  0.51559688  1
  H+  H88  1  0.34283646  0.82175020  -0.02942408  1
  H+  H89  1  0.63547988  0.43199808  0.95350411  1
  H+  H90  1  0.52045831  0.14736286  0.98704268  1
  H+  H91  1  0.19178696  0.69894219  0.48989999  1
  H+  H92  1  0.65583383  0.47858351  0.26837178  1
  H+  H93  1  0.54240520  0.72321943  0.49558686  1
  H+  H94  1  -0.02385069  0.13984911  0.77316923  1
  H+  H95  1  0.36366272  0.84660626  0.23298064  1
  H+  H96  1  -0.02740427  0.47526109  0.25910072  1
  H+  H97  1  0.83878196  0.81965226  0.99181776  1
  H+  H98  1  0.14883156  0.28319184  0.74422174  1
  H+  H99  1  0.87265631  0.68843478  0.28026165  1
  H+  H100  1  0.80955931  0.30760497  0.52369062  1
  H+  H101  1  0.27896288  0.44854270  0.99081106  1
  H+  H102  1  0.19776208  0.14497573  0.76524991  1
  H+  H103  1  0.70391642  0.17447857  0.75427103  1
  H+  H104  1  0.24058617  0.84205773  0.97209359  1
  H+  H105  1  0.34175180  0.14787284  0.50600516  1
  H+  H106  1  0.79830942  0.95638123  0.22246744  1
  H+  H107  1  0.83388424  0.97830922  0.01090809  1
  H+  H108  1  0.21222757  0.09420049  0.39707170  1
  H+  H109  1  0.91509728  0.78146870  0.37367352  1
  H+  H110  1  0.44997325  0.88702112  0.14690480  1
  H+  H111  1  0.87349068  0.83378241  0.50106162  1
  H+  H112  1  0.91059423  0.17830862  0.42849658  1
  H+  H113  1  0.43444572  0.19063235  0.65159115  1
  H+  H114  1  0.23964119  0.11119367  0.85542543  1
  H+  H115  1  0.20858599  0.42127159  0.89869378  1
  H+  H116  1  0.56678099  0.43562831  0.34778312  1
  H+  H117  1  0.86594114  0.07058586  0.32951830  1
  H+  H118  1  0.54221637  0.42497507  0.83524248  1
  H+  H119  1  0.55430759  0.10329917  0.34777519  1
  H+  H120  1  0.45325834  0.89633663  0.64989915  1
  H+  H121  1  0.22559587  0.77586606  0.34425733  1
  H+  H122  1  0.78811318  0.89495239  0.60321558  1
  H+  H123  1  0.77765984  0.21295699  0.10300505  1
  H+  H124  1  0.10329889  0.18918374  0.66374177  1
  H+  H125  1  0.22525240  0.79462797  0.82045484  1
  H+  H126  1  0.45624669  0.26422872  0.49578547  1
  H+  H127  1  0.44599840  0.55543798  0.14023199  1
  H+  H128  1  0.09736283  0.27131859  -0.00930617  1
  H+  H129  1  0.56117079  0.77127881  0.89943175  1
  H+  H130  1  0.48185357  0.17454225  0.23758916  1
  H+  H131  1  0.78351514  0.55202832  0.65101448  1
  H+  H132  1  0.19695332  0.81682119  0.49318530  1
  H+  H133  1  0.18220509  0.41095150  0.36119593  1
  H+  H134  1  0.21022882  0.47559844  0.36475624  1
  H+  H135  1  0.78066016  0.22105598  0.66690590  1
  H+  H136  1  0.44405787  0.21453349  0.09651095  1
  H+  H137  1  0.55014817  0.77095637  0.34322963  1
  H+  H138  1  0.81113097  0.57551342  0.17408901  1
  H+  H139  1  0.77214433  0.88922265  0.09367090  1
  H+  H140  1  0.09673858  0.89221229  0.15931464  1
  H+  H141  1  0.45992137  0.57746990  0.61529341  1
  H+  H142  1  0.08466004  0.19429207  0.13348432  1
  H+  H143  1  0.89845542  0.43727215  0.35311091  1
  O2-  O144  1  0.10275705  0.21182374  0.19914903  1
  O2-  O145  1  0.11047386  0.19943675  0.73109514  1
  O2-  O146  1  0.10270651  0.55334326  0.20623607  1
  O2-  O147  1  0.10425626  0.54729139  0.73231577  1
  O2-  O148  1  0.10900904  0.89277054  0.22673973  1
  O2-  O149  1  0.14407873  0.87572909  0.64126068  1
  O2-  O150  1  0.44425573  0.21698036  0.21351817  1
  O2-  O151  1  0.44303658  0.19701190  0.71902601  1
  O2-  O152  1  0.42311646  0.54955742  0.20652313  1
  O2-  O153  1  0.44134150  0.55248582  0.72013569  1
  O2-  O154  1  0.44611321  0.88675611  0.21486649  1
  O2-  O155  1  0.44883716  0.89637917  0.71866974  1
  O2-  O156  1  0.77542302  0.21355630  0.22242271  1
  O2-  O157  1  0.78427841  0.21692228  0.73479081  1
  O2-  O158  1  0.81259530  0.57297396  0.24248990  1
  O2-  O159  1  0.77663535  0.54440509  0.71863167  1
  O2-  O160  1  0.75927307  0.87717439  0.19939859  1
  O2-  O161  1  0.77277520  0.88312628  0.71866159  1
  O2-  O162  1  0.22393397  0.11322894  0.27770768  1
  O2-  O163  1  0.24841413  0.11627159  0.78817604  1
  O2-  O164  1  0.21800151  0.44327202  0.18870750  1
  O2-  O165  1  0.21238615  0.42710758  0.77997470  1
  O2-  O166  1  0.22329515  0.77511594  0.27613185  1
  O2-  O167  1  0.22803965  0.78022104  0.75485245  1
  O2-  O168  1  0.55452111  0.10641733  0.27983156  1
  O2-  O169  1  0.53878594  0.09537815  0.78115908  1
  O2-  O170  1  0.57348553  0.43058933  0.28188507  1
  O2-  O171  1  0.54276957  0.42858202  0.76735020  1
  O2-  O172  1  0.53911712  0.76108027  0.27616053  1
  O2-  O173  1  0.55609091  0.77082524  0.78121980  1
  O2-  O174  1  0.88464935  0.10257572  0.26822878  1
  O2-  O175  1  0.89867153  0.10422587  0.80285417  1
  O2-  O176  1  0.89310477  0.43533162  0.28505976  1
  O2-  O177  1  0.88644162  0.44325435  0.79709191  1
  O2-  O178  1  0.91329062  0.77392671  0.30390634  1
  O2-  O179  1  0.86878681  0.77083944  0.78052845  1
  O2-  O180  1  0.21012281  0.08569293  0.46484849  1
  O2-  O181  1  0.21274769  0.10555584  0.97410318  1
  O2-  O182  1  0.22119504  0.41457822  0.53684868  1
  O2-  O183  1  0.20041572  0.41375430  0.96646541  1
  O2-  O184  1  0.23553840  0.77719102  0.46418998  1
  O2-  O185  1  0.26319909  0.79059335  0.94492161  1
  O2-  O186  1  0.56129518  0.10647454  0.46880008  1
  O2-  O187  1  0.56209789  0.11069212  0.95920593  1
  O2-  O188  1  0.56463262  0.46228754  0.48961330  1
  O2-  O189  1  0.55814957  0.42164697  0.95501139  1
  O2-  O190  1  0.57556591  0.79895188  0.46538016  1
  O2-  O191  1  0.56224269  0.76972586  0.96754184  1
  O2-  O192  1  0.88381376  0.13266833  0.48406463  1
  O2-  O193  1  0.93574232  0.13656019  0.98323671  1
  O2-  O194  1  0.88778209  0.44013622  0.47192367  1
  O2-  O195  1  0.79956421  0.41816639  0.96860495  1
  O2-  O196  1  0.91207450  0.79086217  0.47977211  1
  O2-  O197  1  0.88164650  0.77952710  0.97255022  1
  O2-  O198  1  0.05804396  0.18792880  0.00990453  1
  O2-  O199  1  0.09320625  0.17937931  0.54553149  1
  O2-  O200  1  0.12293912  0.56625563  0.02662866  1
  O2-  O201  1  0.10007577  0.56078968  0.55149690  1
  O2-  O202  1  0.08112187  0.88707561  0.04399912  1
  O2-  O203  1  0.12528099  0.87124797  0.54359297  1
  O2-  O204  1  0.44210828  0.21109295  0.02795547  1
  O2-  O205  1  0.42386786  0.19140168  0.52822592  1
  O2-  O206  1  0.44845430  0.54531670  0.02727927  1
  O2-  O207  1  0.46789049  0.58675187  0.54567123  1
  O2-  O208  1  0.46601890  0.88940274  0.02804507  1
  O2-  O209  1  0.45180173  0.89110831  0.53606572  1
  O2-  O210  1  0.77957379  0.21536708  0.03492471  1
  O2-  O211  1  0.76992090  0.22824763  0.55011402  1
  O2-  O212  1  0.78996142  0.57375915  0.06155560  1
  O2-  O213  1  0.79599804  0.56757130  0.53166859  1
  O2-  O214  1  0.78245485  0.89636152  0.02438746  1
  O2-  O215  1  0.79391367  0.89761483  0.53452112  1
