# generated using pymatgen
data_H2O
_symmetry_space_group_name_H-M   'P 1'
_cell_length_a   13.52474228
_cell_length_b   13.52780377
_cell_length_c   14.70824886
_cell_angle_alpha   90.02306100
_cell_angle_beta   89.98093221
_cell_angle_gamma   120.07925444
_symmetry_Int_Tables_number   1
_chemical_formula_structural   H2O
_chemical_formula_sum   'H144 O72'
_cell_volume   2328.62986595
_cell_formula_units_Z   72
loop_
 _symmetry_equiv_pos_site_id
 _symmetry_equiv_pos_as_xyz
  1  'x, y, z'
loop_
 _atom_type_symbol
 _atom_type_oxidation_number
  H+  1.0
  O2-  -2.0
loop_
 _atom_site_type_symbol
 _atom_site_label
 _atom_site_symmetry_multiplicity
 _atom_site_fract_x
 _atom_site_fract_y
 _atom_site_fract_z
 _atom_site_occupancy
  H+  H0  1  0.82273424  0.85975696  0.00100890  1
  H+  H1  1  0.69860400  0.12739503  0.19302199  1
  H+  H2  1  0.82039521  0.16954102  0.23424440  1
  H+  H3  1  0.48943025  0.03757824  0.50491934  1
  H+  H4  1  0.59911338  0.03421920  0.94701960  1
  H+  H5  1  0.14890878  0.96927243  0.73937267  1
  H+  H6  1  0.68074328  0.17427474  0.52114183  1
  H+  H7  1  0.15502429  0.55512673  0.51522539  1
  H+  H8  1  0.38065396  0.53522230  0.01038054  1
  H+  H9  1  -0.00229576  0.51139421  0.75022905  1
  H+  H10  1  -0.03474852  0.81452959  0.75811055  1
  H+  H11  1  0.12738891  0.92898571  0.01748825  1
  H+  H12  1  0.41581239  0.15211760  0.50778500  1
  H+  H13  1  0.16370921  0.78709738  -0.00647126  1
  H+  H14  1  0.18010059  0.48869638  0.75986047  1
  H+  H15  1  0.24810172  0.08360514  0.95450231  1
  H+  H16  1  0.86512913  0.04779850  0.99198350  1
  H+  H17  1  0.22037354  0.77779667  0.84629369  1
  H+  H18  1  0.15856978  0.67209229  0.51699765  1
  H+  H19  1  0.69269090  0.52373547  0.01062118  1
  H+  H20  1  0.14619241  0.06258614  0.89789487  1
  H+  H21  1  0.47188498  0.31580889  0.24834597  1
  H+  H22  1  0.51478793  0.48442349  0.75997565  1
  H+  H23  1  0.40055058  0.21150724  0.01743915  1
  H+  H24  1  0.56960486  0.78505134  0.40421610  1
  H+  H25  1  0.70648297  0.86627755  -0.00028412  1
  H+  H26  1  0.17175077  0.67421341  0.98304439  1
  H+  H27  1  0.20280416  0.49279142  0.99169887  1
  H+  H28  1  0.96017435  0.80635639  0.99422466  1
  H+  H29  1  0.48601594  0.65091769  0.24556791  1
  H+  H30  1  0.83431104  0.49817187  -0.02123148  1
  H+  H31  1  0.79461277  0.16521988  0.51063095  1
  H+  H32  1  0.80768913  0.52670386  0.73552963  1
  H+  H33  1  0.52652352  0.69884740  0.49089139  1
  H+  H34  1  0.83387754  0.20381126  0.73749470  1
  H+  H35  1  0.47158059  0.19758557  0.24907433  1
  H+  H36  1  0.51499430  0.82813198  0.99022914  1
  H+  H37  1  -0.03216370  0.50905588  0.48717309  1
  H+  H38  1  0.16762757  0.16297355  0.49503123  1
  H+  H39  1  0.18381619  0.43075629  0.49721709  1
  H+  H40  1  0.51713974  0.83350572  0.26859550  1
  H+  H41  1  0.75159321  0.04259322  0.80961218  1
  H+  H42  1  0.23305835  0.78499503  0.40566895  1
  H+  H43  1  0.83781854  0.47594093  0.25416891  1
  H+  H44  1  0.50113714  0.04005808  0.27127595  1
  H+  H45  1  0.62834174  0.49053089  0.26527858  1
  H+  H46  1  0.88835700  0.10940060  0.39461978  1
  H+  H47  1  0.52606045  0.50644501  -0.00377871  1
  H+  H48  1  0.18605136  0.82478310  0.75749504  1
  H+  H49  1  0.81241493  0.64092383  1.01024980  1
  H+  H50  1  0.14930451  0.65159607  0.74529331  1
  H+  H51  1  0.20427185  0.37595187  0.99002719  1
  H+  H52  1  0.82165122  0.32064081  -0.00024454  1
  H+  H53  1  0.95507282  0.50436919  0.98119128  1
  H+  H54  1  0.29173235  0.13521061  0.25443736  1
  H+  H55  1  0.30536072  0.49962577  0.25735278  1
  H+  H56  1  0.86884790  0.16850171  -0.01198667  1
  H+  H57  1  0.85168786  1.02899178  0.48150514  1
  H+  H58  1  0.31375240  0.83063679  0.49492542  1
  H+  H59  1  1.02396968  0.51068459  0.24306428  1
  H+  H60  1  0.97487142  0.16214261  0.25428994  1
  H+  H61  1  0.81371834  0.95367052  0.73160673  1
  H+  H62  1  0.69475827  0.83109802  0.50645185  1
  H+  H63  1  0.04792599  0.19940137  0.00747814  1
  H+  H64  1  0.70145261  0.53024802  0.50051148  1
  H+  H65  1  0.20056746  0.33018933  0.47513887  1
  H+  H66  1  0.35721646  0.14123806  0.70638628  1
  H+  H67  1  0.64720147  0.15470284  0.98678571  1
  H+  H68  1  0.49723282  0.97586130  0.73844315  1
  H+  H69  1  0.52211984  0.82227827  0.75695884  1
  H+  H70  1  0.61362092  0.16167133  0.28755739  1
  H+  H71  1  0.15143785  0.30212202  0.72046567  1
  H+  H72  1  0.81878791  0.63227478  0.24310579  1
  H+  H73  1  0.27061394  0.17399336  0.80292019  1
  H+  H74  1  0.41400676  0.27332630  0.48645219  1
  H+  H75  1  0.19282367  0.80961804  0.26574829  1
  H+  H76  1  0.91524792  0.85463488  0.27603600  1
  H+  H77  1  0.68888737  0.52418610  0.75165649  1
  H+  H78  1  0.34454734  0.83434032  0.01605287  1
  H+  H79  1  0.12068919  0.22077504  0.63279751  1
  H+  H80  1  0.85329208  0.70300842  0.49194114  1
  H+  H81  1  0.36699804  0.85211248  0.25385621  1
  H+  H82  1  0.18905617  0.69023886  0.26831927  1
  H+  H83  1  0.65494758  0.16777264  0.75070839  1
  H+  H84  1  0.04525969  0.44070801  0.03815335  1
  H+  H85  1  0.49631819  0.86070708  0.51185593  1
  H+  H86  1  0.48098083  0.63766586  0.73869607  1
  H+  H87  1  0.47741135  0.15285869  0.71867235  1
  H+  H88  1  0.77450440  0.81659502  0.21457217  1
  H+  H89  1  0.86649022  0.37434496  0.74853393  1
  H+  H90  1  0.84213372  0.69604372  0.76335899  1
  H+  H91  1  0.86015101  1.03625408  0.25140493  1
  H+  H92  1  0.63402522  0.83259013  0.25721905  1
  H+  H93  1  0.15718218  0.18733499  0.01598425  1
  H+  H94  1  0.16008166  0.15478459  0.74937094  1
  H+  H95  1  0.82063751  0.53094073  0.49068513  1
  H+  H96  1  0.82998826  0.83518131  0.50814860  1
  H+  H97  1  0.37510734  0.85909538  0.74202452  1
  H+  H98  1  0.49647574  0.65653643  1.01156451  1
  H+  H99  1  0.49019124  0.45547851  0.49402767  1
  H+  H100  1  0.82091561  0.83762467  0.73441225  1
  H+  H101  1  0.17139607  0.98601718  0.51206832  1
  H+  H102  1  0.51404631  0.49899300  0.26401036  1
  H+  H103  1  0.77345333  0.55809680  0.15211588  1
  H+  H104  1  0.37581043  0.51458300  0.50634958  1
  H+  H105  1  0.83665856  0.35750363  0.25783766  1
  H+  H106  1  0.05170921  0.83196011  0.25031752  1
  H+  H107  1  0.36185284  0.52019705  0.73493704  1
  H+  H108  1  0.52684732  0.38754550  1.00030649  1
  H+  H109  1  0.45421477  0.95928283  0.01854549  1
  H+  H110  1  0.89557496  0.46012467  0.84166699  1
  H+  H111  1  0.22930066  0.44804101  0.34672919  1
  H+  H112  1  0.14508718  0.31589525  0.24340693  1
  H+  H113  1  0.09795962  0.53970779  0.11061093  1
  H+  H114  1  0.16836363  0.95398427  0.24632087  1
  H+  H115  1  0.79364253  0.24147492  0.08946621  1
  H+  H116  1  0.52209955  0.41748070  0.40147402  1
  H+  H117  1  0.43898780  0.89563369  0.16240416  1
  H+  H118  1  0.11710360  0.89467921  0.64911184  1
  H+  H119  1  0.57617557  0.12206016  0.83967761  1
  H+  H120  1  0.63554928  0.81163995  0.75541196  1
  H+  H121  1  0.88863985  0.78111809  0.90051531  1
  H+  H122  1  0.87314593  0.09925844  0.85106268  1
  H+  H123  1  0.77896414  0.87441004  0.60284290  1
  H+  H124  1  0.55633649  0.45562064  0.85175149  1
  H+  H125  1  0.90577919  0.78195747  0.36153014  1
  H+  H126  1  0.23947824  0.09001082  0.35157919  1
  H+  H127  1  0.78934383  0.23600587  0.64652134  1
  H+  H128  1  0.97671012  0.83005136  0.50033793  1
  H+  H129  1  0.10796026  0.57517377  0.65275692  1
  H+  H130  1  0.14562087  0.51395200  0.24466288  1
  H+  H131  1  0.16003678  0.86324504  0.51011053  1
  H+  H132  1  0.55789774  0.79178651  0.89955697  1
  H+  H133  1  0.11190133  0.23632553  0.15612954  1
  H+  H134  1  1.04561854  0.16419596  0.49056850  1
  H+  H135  1  0.51939478  0.11635583  0.41814293  1
  H+  H136  1  0.77402101  0.89323955  0.13440423  1
  H+  H137  1  0.88973247  0.45410267  0.40005294  1
  H+  H138  1  0.45163629  0.57519058  0.15479515  1
  H+  H139  1  0.22486956  0.44761029  0.84394513  1
  H+  H140  1  0.44985205  0.56016163  0.59739349  1
  H+  H141  1  0.45317070  0.89252980  0.60253802  1
  H+  H142  1  0.10574471  0.85662463  0.10883769  1
  H+  H143  1  0.45953168  0.25274484  0.11256241  1
  O2-  O144  1  0.09948367  0.23544346  0.22237103  1
  O2-  O145  1  0.11294920  0.22164782  0.70013923  1
  O2-  O146  1  0.10428853  0.55266718  0.21942476  1
  O2-  O147  1  0.10464470  0.56924977  0.72153802  1
  O2-  O148  1  0.12831610  0.87099776  0.22162070  1
  O2-  O149  1  0.11437220  0.88956734  0.71748307  1
  O2-  O150  1  0.43392129  0.23717125  0.22146010  1
  O2-  O151  1  0.42933321  0.16587449  0.67575815  1
  O2-  O152  1  0.44655129  0.57065274  0.22281113  1
  O2-  O153  1  0.44174577  0.55981733  0.71151505  1
  O2-  O154  1  0.44693032  0.90235335  0.22988302  1
  O2-  O155  1  0.45477389  0.89367380  0.71898313  1
  O2-  O156  1  0.76914671  0.19801131  0.20730359  1
  O2-  O157  1  0.80354979  0.25258177  0.71527498  1
  O2-  O158  1  0.77266702  0.55337077  0.22024921  1
  O2-  O159  1  0.77120458  0.57291787  0.72992985  1
  O2-  O160  1  0.76951289  0.88519366  0.20324787  1
  O2-  O161  1  0.77887530  0.87524172  0.70554241  1
  O2-  O162  1  0.22249369  0.07507901  0.28532586  1
  O2-  O163  1  0.19369790  0.11328772  0.78705635  1
  O2-  O164  1  0.22467081  0.45837464  0.28020055  1
  O2-  O165  1  0.22012098  0.44709524  0.77629938  1
  O2-  O166  1  0.23310260  0.76987066  0.29219108  1
  O2-  O167  1  0.22468257  0.78153848  0.77850550  1
  O2-  O168  1  0.53113566  0.11846838  0.29801088  1
  O2-  O169  1  0.57580623  0.11590378  0.77250847  1
  O2-  O170  1  0.54804732  0.45308392  0.28732627  1
  O2-  O171  1  0.55970317  0.45135064  0.78463709  1
  O2-  O172  1  0.55854503  0.79282254  0.28826505  1
  O2-  O173  1  0.55835622  0.77951436  0.78304819  1
  O2-  O174  1  0.89089501  0.11419749  0.27583613  1
  O2-  O175  1  0.83151735  0.07679299  0.79141050  1
  O2-  O176  1  0.88102156  0.43815065  0.27582322  1
  O2-  O177  1  0.90599908  0.45846779  0.77306397  1
  O2-  O178  1  0.90963848  0.78230146  0.29311507  1
  O2-  O179  1  0.88682779  0.78093196  0.78349610  1
  O2-  O180  1  0.25483618  0.11799442  0.46595735  1
  O2-  O181  1  0.16777878  0.06075426  0.96271661  1
  O2-  O182  1  0.23589222  0.41574375  0.46203170  1
  O2-  O183  1  0.24318411  0.45590799  0.96501244  1
  O2-  O184  1  0.23230697  0.79334400  0.47370866  1
  O2-  O185  1  0.20988497  0.75509061  0.96531262  1
  O2-  O186  1  0.51495646  0.11725847  0.48553072  1
  O2-  O187  1  0.57644331  0.09101646  0.95898675  1
  O2-  O188  1  0.50616168  0.39715285  0.46727365  1
  O2-  O189  1  0.56579819  0.46631787  0.97267379  1
  O2-  O190  1  0.57425486  0.78156165  0.47228661  1
  O2-  O191  1  0.56332333  0.79710897  0.96769855  1
  O2-  O192  1  0.89192409  0.10948832  0.46258745  1
  O2-  O193  1  0.90823230  0.12726527  0.96653868  1
  O2-  O194  1  0.88818547  0.46624998  0.46615101  1
  O2-  O195  1  0.87900049  0.46199190  0.95240996  1
  O2-  O196  1  0.89618133  0.79076547  0.47604936  1
  O2-  O197  1  0.88251809  0.78033183  0.96870754  1
  O2-  O198  1  0.12790927  0.23896387  0.03158833  1
  O2-  O199  1  0.12519873  0.20442895  0.51397014  1
  O2-  O200  1  0.09013496  0.52403446  0.04185127  1
  O2-  O201  1  0.11418075  0.59016438  0.54186089  1
  O2-  O202  1  0.09558222  0.84981916  0.04063603  1
  O2-  O203  1  0.12038665  0.90392017  0.53276431  1
  O2-  O204  1  0.47479369  0.25949793  0.04497895  1
  O2-  O205  1  0.36604190  0.18976842  0.51320880  1
  O2-  O206  1  0.45857743  0.57795093  0.03776977  1
  O2-  O207  1  0.45547764  0.56100925  0.52892912  1
  O2-  O208  1  0.42352233  0.88078295  0.04167116  1
  O2-  O209  1  0.45080829  0.89443650  0.53443303  1
  O2-  O210  1  0.79232471  0.24103103  0.02181883  1
  O2-  O211  1  0.75580780  0.19632801  0.54782466  1
  O2-  O212  1  0.77525459  0.56031858  0.03280315  1
  O2-  O213  1  0.78418043  0.57874726  0.50645510  1
  O2-  O214  1  0.78674589  0.90503077  0.02328433  1
  O2-  O215  1  0.77883905  0.87232477  0.53169333  1
