# generated using pymatgen
data_H2O
_symmetry_space_group_name_H-M   'P 1'
_cell_length_a   13.49681205
_cell_length_b   13.49981961
_cell_length_c   14.67370956
_cell_angle_alpha   90.03689597
_cell_angle_beta   89.92722626
_cell_angle_gamma   119.99461005
_symmetry_Int_Tables_number   1
_chemical_formula_structural   H2O
_chemical_formula_sum   'H144 O72'
_cell_volume   2315.54353481
_cell_formula_units_Z   72
loop_
 _symmetry_equiv_pos_site_id
 _symmetry_equiv_pos_as_xyz
  1  'x, y, z'
loop_
 _atom_type_symbol
 _atom_type_oxidation_number
  H+  1.0
  O2-  -2.0
loop_
 _atom_site_type_symbol
 _atom_site_label
 _atom_site_symmetry_multiplicity
 _atom_site_fract_x
 _atom_site_fract_y
 _atom_site_fract_z
 _atom_site_occupancy
  H+  H0  1  0.19749583  0.04146693  0.26859993  1
  H+  H1  1  0.47908704  0.50138702  0.23648524  1
  H+  H2  1  0.13877331  0.63237697  0.50280898  1
  H+  H3  1  0.17768751  0.47813700  0.26030198  1
  H+  H4  1  0.43012817  0.87483829  0.60005189  1
  H+  H5  1  0.83404936  0.80366340  0.75706574  1
  H+  H6  1  0.50303077  0.69905315  0.74371040  1
  H+  H7  1  0.79733396  0.14552526  0.01437887  1
  H+  H8  1  0.68782160  0.84303422  0.73355765  1
  H+  H9  1  0.67415206  0.49360757  0.22571778  1
  H+  H10  1  0.38313943  0.19035813  0.50535363  1
  H+  H11  1  0.31186296  0.16597564  0.25370842  1
  H+  H12  1  0.36354205  0.53123494  0.01988678  1
  H+  H13  1  0.21600569  0.43491502  0.34794454  1
  H+  H14  1  0.15319862  0.18024851  0.23924324  1
  H+  H15  1  0.50484393  0.36924715  0.75758360  1
  H+  H16  1  0.88502906  0.77924127  0.40702533  1
  H+  H17  1  0.80609630  0.30672207  0.24183127  1
  H+  H18  1  0.80153818  0.79404952  0.26437599  1
  H+  H19  1  0.16219011  0.18393874  0.50749134  1
  H+  H20  1  0.14106503  0.84749377  0.01927162  1
  H+  H21  1  0.20587522  0.66121404  0.02262496  1
  H+  H22  1  0.20166592  0.58535267  0.68112927  1
  H+  H23  1  0.80805521  0.36116662  0.96817875  1
  H+  H24  1  0.17850044  1.03039601  0.76565556  1
  H+  H25  1  0.49413026  0.34286913  0.23911185  1
  H+  H26  1  0.17288488  0.47320312  0.48612419  1
  H+  H27  1  0.85369360  0.82493795  0.49561638  1
  H+  H28  1  0.79844419  0.56980139  0.61961095  1
  H+  H29  1  0.68813076  0.84309300  0.23107004  1
  H+  H30  1  0.16892844  0.85460902  0.26112955  1
  H+  H31  1  0.82977930  0.65408367  0.50963862  1
  H+  H32  1  0.03695992  0.86317703  0.51770167  1
  H+  H33  1  0.46608572  0.31428888  1.00040192  1
  H+  H34  1  0.83607011  0.51850884  0.71972909  1
  H+  H35  1  0.95924251  0.48806610  0.24605830  1
  H+  H36  1  0.15675465  0.64994360  0.74191700  1
  H+  H37  1  0.82861300  0.85840872  0.00350013  1
  H+  H38  1  0.17332287  0.14518270  0.99028101  1
  H+  H39  1  -0.02377361  0.47392577  0.03617396  1
  H+  H40  1  0.52394075  0.36831068  0.48900489  1
  H+  H41  1  -0.01888442  0.17675226  0.27926614  1
  H+  H42  1  0.29878035  0.81350508  0.50549131  1
  H+  H43  1  0.17381773  0.34645842  0.75639193  1
  H+  H44  1  0.17742215  0.35616661  0.49081738  1
  H+  H45  1  0.15298336  0.29782697  0.23532735  1
  H+  H46  1  0.95389646  0.48994501  0.47335242  1
  H+  H47  1  0.19826842  0.47973729  0.99012418  1
  H+  H48  1  0.86075919  0.14458123  0.52449999  1
  H+  H49  1  0.50524500  0.17133960  0.97911737  1
  H+  H50  1  0.82204982  0.17210559  0.71931399  1
  H+  H51  1  0.84168442  0.70122412  0.98671603  1
  H+  H52  1  0.83792875  0.48613793  0.24061182  1
  H+  H53  1  0.22080263  0.11268880  0.85237614  1
  H+  H54  1  0.47137465  0.19451742  0.21061187  1
  H+  H55  1  0.28831812  0.61831091  0.06326813  1
  H+  H56  1  0.64491942  0.14004479  0.28732714  1
  H+  H57  1  0.32742667  0.81744465  0.25802236  1
  H+  H58  1  0.51910455  0.68558152  -0.01318812  1
  H+  H59  1  0.61670500  0.15709332  0.98359730  1
  H+  H60  1  0.55034164  0.17253048  0.51768619  1
  H+  H61  1  0.62945521  0.81206217  0.48839546  1
  H+  H62  1  0.03782905  0.17495018  0.51455315  1
  H+  H63  1  0.52508269  0.12037809  0.32304193  1
  H+  H64  1  0.50791388  0.68379758  0.25979135  1
  H+  H65  1  0.14944208  0.17486975  0.74163265  1
  H+  H66  1  0.30146181  0.83369718  0.99321600  1
  H+  H67  1  0.47434005  0.96877750  0.73800686  1
  H+  H68  1  0.16623773  0.46065595  0.76782902  1
  H+  H69  1  -0.02985026  0.47324140  0.74570643  1
  H+  H70  1  0.82996568  0.63963567  0.73108620  1
  H+  H71  1  0.11371909  0.88394282  0.17897936  1
  H+  H72  1  0.15306224  0.63090655  0.24568871  1
  H+  H73  1  0.35992412  0.50784588  0.49992828  1
  H+  H74  1  1.02064161  0.84632843  0.74931158  1
  H+  H75  1  0.20941775  0.80367789  0.42616872  1
  H+  H76  1  0.29269571  0.82049317  0.76262542  1
  H+  H77  1  0.78531932  0.61602728  0.23335441  1
  H+  H78  1  0.51229474  0.69131452  0.48709194  1
  H+  H79  1  0.96615267  0.14220837  0.74993935  1
  H+  H80  1  0.47357331  0.84986038  0.74284898  1
  H+  H81  1  0.29575668  0.15286195  0.98968369  1
  H+  H82  1  0.71702432  0.18700463  0.57067286  1
  H+  H83  1  0.46694814  0.82998520  0.51131376  1
  H+  H84  1  0.63701037  0.49047801  0.48491571  1
  H+  H85  1  0.54575609  0.42815550  0.33248867  1
  H+  H86  1  0.86567932  0.18315773  0.28457406  1
  H+  H87  1  0.49718853  -0.04019262  0.24992849  1
  H+  H88  1  0.73124992  0.69278518  0.33253199  1
  H+  H89  1  0.63203423  0.14971113  0.74624087  1
  H+  H90  1  0.82591265  0.52949893  0.49852504  1
  H+  H91  1  0.14402537  0.29213020  0.00840397  1
  H+  H92  1  0.97849431  0.53037423  1.03020365  1
  H+  H93  1  0.36089294  0.50498261  0.24557397  1
  H+  H94  1  0.84915241  0.03009556  0.97860364  1
  H+  H95  1  0.60505636  0.49307972  0.98572135  1
  H+  H96  1  0.77141475  0.50841251  -0.01168247  1
  H+  H97  1  0.35329927  0.51271247  0.73050127  1
  H+  H98  1  0.81600731  0.96384016  0.50974572  1
  H+  H99  1  0.55381980  0.76518336  0.83600617  1
  H+  H100  1  0.14154459  0.96515529  0.01819826  1
  H+  H101  1  0.50335464  0.48577863  0.75333945  1
  H+  H102  1  0.96570438  0.81694935  0.99037686  1
  H+  H103  1  0.48985921  0.83994830  0.23325751  1
  H+  H104  1  0.17115541  0.81689720  0.76484172  1
  H+  H105  1  0.46961620  -0.01352928  1.00337747  1
  H+  H106  1  0.48204081  0.18652928  0.73491526  1
  H+  H107  1  0.19770587  0.04394785  0.49104408  1
  H+  H108  1  0.36150947  0.18249111  0.73823978  1
  H+  H109  1  0.87404843  0.45963781  0.38589533  1
  H+  H110  1  0.27089992  0.74499776  0.34623682  1
  H+  H111  1  0.15133196  0.85780597  0.53141389  1
  H+  H112  1  0.42967562  0.58067086  0.11408788  1
  H+  H113  1  0.59618330  0.10882162  0.45406299  1
  H+  H114  1  0.96373236  0.15168070  0.98371598  1
  H+  H115  1  0.44440423  0.90698206  0.09158967  1
  H+  H116  1  0.43209879  0.23617788  0.09172535  1
  H+  H117  1  0.82391070  0.41710342  0.87195604  1
  H+  H118  1  0.10343380  0.89334981  0.66224863  1
  H+  H119  1  0.55632501  0.12256453  0.83772484  1
  H+  H120  1  0.43187621  0.55346337  0.63975236  1
  H+  H121  1  0.13557512  0.56282767  0.15504174  1
  H+  H122  1  0.23840249  0.12165077  0.39940465  1
  H+  H123  1  0.80988836  0.95853751  0.73508047  1
  H+  H124  1  0.85199859  0.35780103  0.72926883  1
  H+  H125  1  0.08515517  0.54565939  0.58390930  1
  H+  H126  1  0.45221447  0.23215156  0.59855820  1
  H+  H127  1  0.11486198  0.21531910  0.64911753  1
  H+  H128  1  0.77333638  0.88115356  0.14624787  1
  H+  H129  1  0.48065747  0.50977781  0.50114612  1
  H+  H130  1  0.21483335  0.77799465  0.90915029  1
  H+  H131  1  0.60406360  0.66578260  0.92933622  1
  H+  H132  1  0.53004909  0.45013060  0.89584787  1
  H+  H133  1  0.87697220  0.76756221  0.84742473  1
  H+  H134  1  0.10005683  0.21193436  0.09727081  1
  H+  H135  1  0.77108540  0.87976559  0.59541311  1
  H+  H136  1  0.88458518  0.10929285  0.83743148  1
  H+  H137  1  0.75639128  0.55411539  0.08606090  1
  H+  H138  1  0.70657300  0.84281744  -0.00355587  1
  H+  H139  1  0.68416277  0.06884338  0.06718442  1
  H+  H140  1  0.89780764  0.12805077  0.42279735  1
  H+  H141  1  0.22406499  0.42943276  0.89980321  1
  H+  H142  1  0.76300481  0.20765833  0.16512354  1
  H+  H143  1  0.54888755  0.76919330  0.34622544  1
  O2-  O144  1  0.11008969  0.21687053  0.21405128  1
  O2-  O145  1  0.10777839  0.21395294  0.71742186  1
  O2-  O146  1  0.10944482  0.55233966  0.22043935  1
  O2-  O147  1  0.13162257  0.57228737  0.71145102  1
  O2-  O148  1  0.12680079  0.89397751  0.24536972  1
  O2-  O149  1  0.10283103  0.88788263  0.73048405  1
  O2-  O150  1  0.42949391  0.23481216  0.20123111  1
  O2-  O151  1  0.44079001  0.22609397  0.71312136  1
  O2-  O152  1  0.44118181  0.54820879  0.22206484  1
  O2-  O153  1  0.43274037  0.56111064  0.70772341  1
  O2-  O154  1  0.45353758  0.88682761  0.21546463  1
  O2-  O155  1  0.42943570  0.88635811  0.72027993  1
  O2-  O156  1  0.76683183  0.22175854  0.23167396  1
  O2-  O157  1  0.78267078  0.21466542  0.69574451  1
  O2-  O158  1  0.75646361  0.54053825  0.20300006  1
  O2-  O159  1  0.80081136  0.56446856  0.69690029  1
  O2-  O160  1  0.76978300  0.87613469  0.21369622  1
  O2-  O161  1  0.76969060  0.87742785  0.71366028  1
  O2-  O162  1  0.23360348  0.12373384  0.28635012  1
  O2-  O163  1  0.22114562  0.11275513  0.78362130  1
  O2-  O164  1  0.21959472  0.43817602  0.27986754  1
  O2-  O165  1  0.21473936  0.42732346  0.78146589  1
  O2-  O166  1  0.25080767  0.77150606  0.29115461  1
  O2-  O167  1  0.21144322  0.77499691  0.78495941  1
  O2-  O168  1  0.57153555  0.08385195  0.31928170  1
  O2-  O169  1  0.55296523  0.11406296  0.76970086  1
  O2-  O170  1  0.54472008  0.43076845  0.26521653  1
  O2-  O171  1  0.54135538  0.44783968  0.78289414  1
  O2-  O172  1  0.54723759  0.76673847  0.27801259  1
  O2-  O173  1  0.54682694  0.77830824  0.77003448  1
  O2-  O174  1  0.91707213  0.16510009  0.31955615  1
  O2-  O175  1  0.88379317  0.10461262  0.76925753  1
  O2-  O176  1  0.87851572  0.44790066  0.26799303  1
  O2-  O177  1  0.88724516  0.43668872  0.75574163  1
  O2-  O178  1  0.80644161  0.73316349  0.30374374  1
  O2-  O179  1  0.87589682  0.76413036  0.77874031  1
  O2-  O180  1  0.24044793  0.12398359  0.46848383  1
  O2-  O181  1  0.21430240  0.10541979  0.96766964  1
  O2-  O182  1  0.21692128  0.43635414  0.46580419  1
  O2-  O183  1  0.22557834  0.42786701  0.96768215  1
  O2-  O184  1  0.21188888  0.77860765  0.48812373  1
  O2-  O185  1  0.21790166  0.78155520  0.97676262  1
  O2-  O186  1  0.60136342  0.13895028  0.51581346  1
  O2-  O187  1  0.54151756  0.12697548  0.95405022  1
  O2-  O188  1  0.55745529  0.44752055  0.46248975  1
  O2-  O189  1  0.52492591  0.45564358  0.96397921  1
  O2-  O190  1  0.54917471  0.77224602  0.46501203  1
  O2-  O191  1  0.58542957  0.72568091  0.94270207  1
  O2-  O192  1  0.89499443  0.10631843  0.48986663  1
  O2-  O193  1  0.88407697  0.11163470  0.95736818  1
  O2-  O194  1  0.87432262  0.46401365  0.45382863  1
  O2-  O195  1  0.77979884  0.40004205  0.92923009  1
  O2-  O196  1  0.89867356  0.78768949  0.47420417  1
  O2-  O197  1  0.88735837  0.78153540  0.96240846  1
  O2-  O198  1  0.09709656  0.21061735  0.02876761  1
  O2-  O199  1  0.12017297  0.22146432  0.53355176  1
  O2-  O200  1  0.20632795  0.59551843  0.05473750  1
  O2-  O201  1  0.09597332  0.54861185  0.51738350  1
  O2-  O202  1  0.09898310  0.88552226  0.04284830  1
  O2-  O203  1  0.11443619  0.90389227  0.54656632  1
  O2-  O204  1  0.43381428  0.23309175  0.02179124  1
  O2-  O205  1  0.46247949  0.23343981  0.53055899  1
  O2-  O206  1  0.41187617  0.60350201  0.05369759  1
  O2-  O207  1  0.44008944  0.55045896  0.52349358  1
  O2-  O208  1  0.43462715  0.90605789  0.02478589  1
  O2-  O209  1  0.41963600  0.86296279  0.53296807  1
  O2-  O210  1  0.73470937  0.14866646  0.05031363  1
  O2-  O211  1  0.79769551  0.21480809  0.59628803  1
  O2-  O212  1  0.75490283  0.56473714  0.01862695  1
  O2-  O213  1  0.78878399  0.57185214  0.53184264  1
  O2-  O214  1  0.78332315  0.89561122  0.02274320  1
  O2-  O215  1  0.77295592  0.88054841  0.52716686  1
