# generated using pymatgen
data_H2O
_symmetry_space_group_name_H-M   'P 1'
_cell_length_a   13.51506431
_cell_length_b   13.51034608
_cell_length_c   14.69334514
_cell_angle_alpha   89.99829636
_cell_angle_beta   89.95808707
_cell_angle_gamma   119.99427418
_symmetry_Int_Tables_number   1
_chemical_formula_structural   H2O
_chemical_formula_sum   'H144 O72'
_cell_volume   2323.59693886
_cell_formula_units_Z   72
loop_
 _symmetry_equiv_pos_site_id
 _symmetry_equiv_pos_as_xyz
  1  'x, y, z'
loop_
 _atom_type_symbol
 _atom_type_oxidation_number
  H+  1.0
  O2-  -2.0
loop_
 _atom_site_type_symbol
 _atom_site_label
 _atom_site_symmetry_multiplicity
 _atom_site_fract_x
 _atom_site_fract_y
 _atom_site_fract_z
 _atom_site_occupancy
  H+  H0  1  0.36346764  0.83975253  0.51390407  1
  H+  H1  1  0.15920369  0.63465683  0.28515540  1
  H+  H2  1  0.52549099  0.37423212  0.48310259  1
  H+  H3  1  0.19860151  0.16146552  0.26245642  1
  H+  H4  1  0.47015896  0.52908768  0.74770431  1
  H+  H5  1  0.10985335  0.33001435  0.96200904  1
  H+  H6  1  0.63247624  0.81746211  0.26673792  1
  H+  H7  1  0.85299823  0.82529544  0.76186293  1
  H+  H8  1  0.19928981  0.17604981  0.76161575  1
  H+  H9  1  0.83471249  0.86062913  0.01241214  1
  H+  H10  1  0.82035751  0.85590165  0.49650314  1
  H+  H11  1  0.52354961  0.04147308  0.98669247  1
  H+  H12  1  0.80890012  0.19113571  -0.02431588  1
  H+  H13  1  0.13645722  0.82676607  0.73790067  1
  H+  H14  1  0.54455867  0.83599672  0.99185423  1
  H+  H15  1  0.52870153  1.03299425  0.24821238  1
  H+  H16  1  0.38822708  0.20322239  0.48048596  1
  H+  H17  1  -0.01728389  0.47591599  0.76329906  1
  H+  H18  1  0.82289301  0.30153308  0.24632127  1
  H+  H19  1  0.54242731  0.13541924  0.73612913  1
  H+  H20  1  0.83329945  0.64821920  -0.00391042  1
  H+  H21  1  0.95565390  0.79391266  0.49749249  1
  H+  H22  1  0.31203730  0.92785452  0.34416077  1
  H+  H23  1  0.79334436  0.26044481  -0.10613015  1
  H+  H24  1  0.71791970  0.52605312  0.99561771  1
  H+  H25  1  0.08220492  0.12141203  0.04173292  1
  H+  H26  1  0.21750025  0.09617722  0.52695276  1
  H+  H27  1  0.85665293  0.38347596  0.98651110  1
  H+  H28  1  0.70579711  0.52474280  0.25520887  1
  H+  H29  1  -0.03154363  0.48359531  0.27029123  1
  H+  H30  1  0.81987675  -0.02433692  0.74508905  1
  H+  H31  1  0.18671842  0.18514889  0.48697443  1
  H+  H32  1  0.56208981  0.10241100  0.39126850  1
  H+  H33  1  0.69983250  0.51051311  0.51059348  1
  H+  H34  1  0.09445230  0.84967749  0.61110404  1
  H+  H35  1  0.81794044  0.29271934  0.50448949  1
  H+  H36  1  0.85060725  0.48428392  0.49808681  1
  H+  H37  1  0.17788558  0.71285052  0.98609502  1
  H+  H38  1  0.70314701  0.17332605  0.49897544  1
  H+  H39  1  0.68529516  0.53183339  0.74185013  1
  H+  H40  1  0.30802323  0.43411010  -0.03612732  1
  H+  H41  1  0.02864268  0.52836680  0.00793176  1
  H+  H42  1  0.54629614  0.50125731  0.00442074  1
  H+  H43  1  0.16847235  0.76428455  0.50913569  1
  H+  H44  1  0.21963106  0.49851935  0.25390614  1
  H+  H45  1  0.84907394  0.81430850  0.26483926  1
  H+  H46  1  0.95806889  0.04675524  0.29873658  1
  H+  H47  1  0.51601052  0.02728507  0.48343241  1
  H+  H48  1  0.14738597  -0.03297648  0.25056198  1
  H+  H49  1  0.85064478  0.15641326  0.48094296  1
  H+  H50  1  0.33139307  0.17512951  -0.00824915  1
  H+  H51  1  0.05804980  0.20282266  0.24859601  1
  H+  H52  1  0.17974750  0.32079894  0.24378171  1
  H+  H53  1  0.02645695  0.19385975  0.49129166  1
  H+  H54  1  0.42350645  0.55276570  0.02869379  1
  H+  H55  1  0.50320144  0.64193106  0.25596806  1
  H+  H56  1  0.51992025  0.49147827  0.49328519  1
  H+  H57  1  0.97252678  0.83613470  0.98247272  1
  H+  H58  1  0.50271988  0.38465864  0.76276887  1
  H+  H59  1  0.47265686  0.95670551  0.73615305  1
  H+  H60  1  0.33754153  0.49820332  0.26196546  1
  H+  H61  1  0.40887431  0.17991409  0.75579866  1
  H+  H62  1  0.53477315  0.26207368  0.78908107  1
  H+  H63  1  0.29204989  0.83308418  -0.01547499  1
  H+  H64  1  0.50079211  0.19141079  0.48200076  1
  H+  H65  1  0.12214615  0.61988802  0.74518741  1
  H+  H66  1  0.22993257  0.00834831  0.76364124  1
  H+  H67  1  0.23492138  0.19476448  0.71939436  1
  H+  H68  1  0.53026028  0.37501316  0.99803890  1
  H+  H69  1  0.70557912  0.86240979  0.49361308  1
  H+  H70  1  0.37608282  0.86139190  0.24977188  1
  H+  H71  1  0.11205342  0.44789767  -0.04210174  1
  H+  H72  1  0.49539343  0.19139313  0.01291484  1
  H+  H73  1  0.95734504  0.15874082  0.99886672  1
  H+  H74  1  0.15665099  -0.00739099  0.99181699  1
  H+  H75  1  0.63773195  0.16103810  0.96570267  1
  H+  H76  1  0.84763726  1.03503421  -0.00241698  1
  H+  H77  1  0.49498738  0.18462391  0.24275200  1
  H+  H78  1  0.36446795  0.53314476  0.51809109  1
  H+  H79  1  0.55522134  0.72407046  0.99670826  1
  H+  H80  1  0.85881622  0.50806559  0.99010224  1
  H+  H81  1  0.16661373  0.37773297  0.73056391  1
  H+  H82  1  0.77538361  0.88633764  0.15271158  1
  H+  H83  1  0.64686638  0.15321206  0.25280488  1
  H+  H84  1  0.80791823  0.96222811  0.24216362  1
  H+  H85  1  0.01430458  0.20525335  0.72613464  1
  H+  H86  1  0.51539757  0.82316730  0.49432612  1
  H+  H87  1  0.51707273  0.70498635  0.49667355  1
  H+  H88  1  0.82487782  0.18590742  0.23987117  1
  H+  H89  1  0.51203124  0.70643867  0.75841163  1
  H+  H90  1  0.82219481  0.52236115  0.25640923  1
  H+  H91  1  0.86105675  0.18478945  0.77437984  1
  H+  H92  1  0.35178371  0.53000495  0.73865428  1
  H+  H93  1  0.48568785  0.84242735  0.24680728  1
  H+  H94  1  0.30955842  0.49046986  0.95656203  1
  H+  H95  1  0.28985786  0.80259546  0.75000700  1
  H+  H96  1  0.71921811  0.86536484  0.01086268  1
  H+  H97  1  0.38323145  0.76653105  0.03813132  1
  H+  H98  1  0.13682141  0.90872333  0.51314228  1
  H+  H99  1  0.85200694  0.69668116  0.26918928  1
  H+  H100  1  0.47251397  0.84003681  0.73536028  1
  H+  H101  1  0.70500913  0.85696264  0.74363159  1
  H+  H102  1  0.52244829  0.36776592  0.26558930  1
  H+  H103  1  0.84404105  0.70132884  0.76047557  1
  H+  H104  1  0.13360847  0.50642721  0.73670053  1
  H+  H105  1  0.19860587  0.85925432  0.28496118  1
  H+  H106  1  0.18618658  0.59929569  0.47446281  1
  H+  H107  1  0.81569330  0.62801328  0.51127865  1
  H+  H108  1  0.90153489  0.45068760  0.86634644  1
  H+  H109  1  0.54890102  0.09573043  0.83569992  1
  H+  H110  1  0.88679040  0.44000634  0.35698565  1
  H+  H111  1  1.02382883  0.84015761  0.74102593  1
  H+  H112  1  0.56245942  0.79017386  0.84434962  1
  H+  H113  1  0.13983805  0.32020855  0.49561555  1
  H+  H114  1  0.76735992  0.55768131  0.65678913  1
  H+  H115  1  0.03339266  0.84473691  0.25903452  1
  H+  H116  1  0.44336107  0.88973350  0.60042581  1
  H+  H117  1  0.50594414  0.52074706  0.25147390  1
  H+  H118  1  0.89030928  0.12242146  0.85029154  1
  H+  H119  1  0.22579258  0.18986867  0.96290613  1
  H+  H120  1  0.85572781  0.03642311  0.48029869  1
  H+  H121  1  0.23569611  0.46810831  0.39673930  1
  H+  H122  1  0.96572185  0.47512332  0.49214673  1
  H+  H123  1  0.43626488  0.86612405  0.10960529  1
  H+  H124  1  0.08557990  0.24136750  0.63085615  1
  H+  H125  1  0.91089842  0.11100910  0.35895814  1
  H+  H126  1  0.56021060  0.44999810  0.35476719  1
  H+  H127  1  0.49421509  0.58686768  0.12017582  1
  H+  H128  1  0.11757197  0.22360169  0.10894348  1
  H+  H129  1  0.88729484  0.78736984  0.89720674  1
  H+  H130  1  0.55404870  0.77959837  0.35832694  1
  H+  H131  1  0.12573190  0.54575056  0.08090578  1
  H+  H132  1  0.21535430  0.77392297  0.84119138  1
  H+  H133  1  0.44266999  0.56637565  0.60632874  1
  H+  H134  1  0.22953620  0.77525965  0.41539445  1
  H+  H135  1  0.14536652  0.87104930  -0.00389914  1
  H+  H136  1  0.45815178  0.22943363  0.10573833  1
  H+  H137  1  0.11333624  0.63738159  0.19078896  1
  H+  H138  1  0.27411788  0.08544293  0.85235832  1
  H+  H139  1  0.18520189  0.43436952  0.82684744  1
  H+  H140  1  0.22944446  0.11901791  0.35325646  1
  H+  H141  1  0.88438287  0.76989395  0.40502835  1
  H+  H142  1  0.54370086  0.45766222  0.85491701  1
  H+  H143  1  0.37549083  0.18368342  0.24638244  1
  O2-  O144  1  0.13631817  0.24014627  0.22119760  1
  O2-  O145  1  0.08861298  0.25794920  0.69654123  1
  O2-  O146  1  0.12433286  0.58670340  0.23170396  1
  O2-  O147  1  0.07939405  0.53794650  0.72536314  1
  O2-  O148  1  0.11608141  0.88399232  0.24111211  1
  O2-  O149  1  0.10282474  0.87270593  0.71312751  1
  O2-  O150  1  0.45522254  0.22677314  0.22253908  1
  O2-  O151  1  0.48452819  0.24813332  0.73731063  1
  O2-  O152  1  0.46655429  0.56354092  0.22736534  1
  O2-  O153  1  0.43428242  0.57148416  0.71955413  1
  O2-  O154  1  0.44957771  0.88446630  0.21755764  1
  O2-  O155  1  0.42757793  0.87554068  0.71189986  1
  O2-  O156  1  0.78148663  0.22219387  0.22120100  1
  O2-  O157  1  0.83726215  0.30478566  0.79545920  1
  O2-  O158  1  0.78803000  0.56962855  0.23923492  1
  O2-  O159  1  0.76630164  0.56823764  0.72350229  1
  O2-  O160  1  0.76679924  0.88205283  0.22109973  1
  O2-  O161  1  0.78777096  0.89400321  0.73069033  1
  O2-  O162  1  0.23216545  0.11528506  0.28587337  1
  O2-  O163  1  0.29947727  0.06227658  0.79715791  1
  O2-  O164  1  0.25426023  0.45817224  0.28331388  1
  O2-  O165  1  0.21119850  0.45618742  0.76244574  1
  O2-  O166  1  0.26551456  0.85253742  0.31658533  1
  O2-  O167  1  0.20926029  0.76175303  0.77411737  1
  O2-  O168  1  0.56412127  0.11169101  0.27323041  1
  O2-  O169  1  0.55932371  0.08352794  0.77071973  1
  O2-  O170  1  0.56051527  0.44905105  0.28593454  1
  O2-  O171  1  0.53636473  0.46348997  0.78766663  1
  O2-  O172  1  0.55152159  0.77563858  0.28915076  1
  O2-  O173  1  0.55478304  0.78888143  0.77725235  1
  O2-  O174  1  0.92745155  0.09817767  0.29141589  1
  O2-  O175  1  0.88610294  0.12790790  0.78309018  1
  O2-  O176  1  0.88771234  0.43949554  0.28844408  1
  O2-  O177  1  0.89350421  0.43055457  0.79804475  1
  O2-  O178  1  0.89350169  0.78056811  0.29017703  1
  O2-  O179  1  0.89252424  0.78250315  0.78318456  1
  O2-  O180  1  0.22911470  0.14217723  0.47278641  1
  O2-  O181  1  0.25579464  0.13755032  0.95852936  1
  O2-  O182  1  0.22019342  0.47197260  0.46339378  1
  O2-  O183  1  0.10071493  0.38191901  0.92120365  1
  O2-  O184  1  0.22067626  0.74271883  0.47794440  1
  O2-  O185  1  0.21378430  0.79146557  0.96001316  1
  O2-  O186  1  0.56016161  0.10673422  0.45900224  1
  O2-  O187  1  0.55043648  0.11658151  0.95971167  1
  O2-  O188  1  0.56436841  0.45860331  0.46619665  1
  O2-  O189  1  0.56970536  0.45299532  0.97015413  1
  O2-  O190  1  0.55488695  0.78303310  0.46885673  1
  O2-  O191  1  0.58688638  0.80022374  0.96619464  1
  O2-  O192  1  0.89773585  0.11997009  0.45861301  1
  O2-  O193  1  0.88014876  0.11459076  0.97251250  1
  O2-  O194  1  0.88693207  0.44104456  0.47076702  1
  O2-  O195  1  0.90516812  0.46662257  0.97210662  1
  O2-  O196  1  0.87738988  0.76477740  0.47318569  1
  O2-  O197  1  0.88904684  0.78965508  0.96583281  1
  O2-  O198  1  0.10146348  0.20139340  0.04275739  1
  O2-  O199  1  0.10912964  0.23922861  0.51280035  1
  O2-  O200  1  0.11527358  0.56892352  0.02058965  1
  O2-  O201  1  0.13965730  0.51574593  0.45998637  1
  O2-  O202  1  0.10683288  0.91388133  0.01414964  1
  O2-  O203  1  0.09250634  0.83405183  0.54158326  1
  O2-  O204  1  0.45908375  0.23480316  0.03760926  1
  O2-  O205  1  0.46887577  0.24151969  0.49844498  1
  O2-  O206  1  0.50220766  0.59486627  0.05119907  1
  O2-  O207  1  0.44459030  0.56551902  0.53763649  1
  O2-  O208  1  0.42684608  0.84981292  0.04142233  1
  O2-  O209  1  0.44464925  0.89043323  0.53147170  1
  O2-  O210  1  0.77230370  0.23775966  -0.03824975  1
  O2-  O211  1  0.78392954  0.21069820  0.51954799  1
  O2-  O212  1  0.79896020  0.56655780  0.01515504  1
  O2-  O213  1  0.77983868  0.54743867  0.53435662  1
  O2-  O214  1  0.79649209  0.90237160  0.03988221  1
  O2-  O215  1  0.78919654  0.90821303  0.50262259  1
