# generated using pymatgen
data_H2O
_symmetry_space_group_name_H-M   'P 1'
_cell_length_a   13.52700093
_cell_length_b   13.52283663
_cell_length_c   14.69781597
_cell_angle_alpha   90.05120521
_cell_angle_beta   89.98014902
_cell_angle_gamma   119.98748528
_symmetry_Int_Tables_number   1
_chemical_formula_structural   H2O
_chemical_formula_sum   'H144 O72'
_cell_volume   2328.66671318
_cell_formula_units_Z   72
loop_
 _symmetry_equiv_pos_site_id
 _symmetry_equiv_pos_as_xyz
  1  'x, y, z'
loop_
 _atom_type_symbol
 _atom_type_oxidation_number
  H+  1.0
  O2-  -2.0
loop_
 _atom_site_type_symbol
 _atom_site_label
 _atom_site_symmetry_multiplicity
 _atom_site_fract_x
 _atom_site_fract_y
 _atom_site_fract_z
 _atom_site_occupancy
  H+  H0  1  0.91347017  0.45538519  0.34550582  1
  H+  H1  1  0.16692170  0.50532031  0.49417823  1
  H+  H2  1  0.84769473  0.86580828  0.49819007  1
  H+  H3  1  0.45331420  0.88043078  0.66389962  1
  H+  H4  1  0.16386766  0.60529554  0.22354454  1
  H+  H5  1  0.82617205  0.30040293  0.48753763  1
  H+  H6  1  0.12554803  0.95489440  0.18886348  1
  H+  H7  1  0.50194457  0.94830956  0.51682431  1
  H+  H8  1  0.87416421  0.03313485  0.99746951  1
  H+  H9  1  0.84289381  0.19312559  0.47960770  1
  H+  H10  1  0.13600443  0.16382986  0.73724017  1
  H+  H11  1  0.81691738  0.30085439  0.75569654  1
  H+  H12  1  0.80314144  0.30915598  0.00406131  1
  H+  H13  1  0.14880497  0.20807230  0.50584173  1
  H+  H14  1  0.49526195  -0.03788557  0.75175217  1
  H+  H15  1  0.59249852  0.76850608  0.48524956  1
  H+  H16  1  0.85128171  0.36291067  0.98403177  1
  H+  H17  1  0.90766234  0.11393849  0.90911471  1
  H+  H18  1  0.53999650  0.68686741  0.75166322  1
  H+  H19  1  0.84820345  0.03485828  0.75613505  1
  H+  H20  1  0.83271457  0.30439811  0.25012783  1
  H+  H21  1  0.83011372  0.54797827  1.00605542  1
  H+  H22  1  0.83817879  0.68870542  0.25574396  1
  H+  H23  1  0.43804196  0.22735761  0.75443906  1
  H+  H24  1  0.49199876  0.18625566  0.23864987  1
  H+  H25  1  0.88654906  0.04901059  0.46993564  1
  H+  H26  1  0.31051168  0.13774046  0.97208927  1
  H+  H27  1  0.28557805  0.77509147  0.24974707  1
  H+  H28  1  0.85754433  0.49697543  0.47663757  1
  H+  H29  1  0.10110945  0.21590046  0.65084432  1
  H+  H30  1  0.72149337  0.53406264  0.73423592  1
  H+  H31  1  0.15216911  0.65437460  0.52700465  1
  H+  H32  1  0.25997132  0.45362409  0.75675659  1
  H+  H33  1  0.69629852  0.50450386  1.02100006  1
  H+  H34  1  0.15480943  0.44567475  0.25083444  1
  H+  H35  1  0.20062398  0.78881243  0.44457959  1
  H+  H36  1  0.87508858  0.84072663  0.74061602  1
  H+  H37  1  0.82315273  0.17343243  0.75797510  1
  H+  H38  1  0.57665677  0.49471096  0.24082569  1
  H+  H39  1  0.91316998  0.82175400  0.24089790  1
  H+  H40  1  0.55429013  0.44297230  0.39903880  1
  H+  H41  1  0.89508777  0.09009987  0.32235097  1
  H+  H42  1  0.18857529  0.70289889  0.78977979  1
  H+  H43  1  0.13857735  0.00481634  0.75209798  1
  H+  H44  1  0.41965894  0.49395451  0.23112979  1
  H+  H45  1  0.19441797  0.05612357  0.29494616  1
  H+  H46  1  0.75000217  0.90169043  0.49044930  1
  H+  H47  1  0.60599295  0.82907870  0.24482251  1
  H+  H48  1  0.47488721  0.14647122  0.49119968  1
  H+  H49  1  0.50311455  0.35877072  0.25356347  1
  H+  H50  1  0.87650902  0.48986419  0.25225691  1
  H+  H51  1  0.48344658  0.30589423  0.00680170  1
  H+  H52  1  0.46396578  0.56156907  0.61843359  1
  H+  H53  1  -0.02430551  0.49903710  0.48564699  1
  H+  H54  1  0.76893307  0.11797032  0.04421960  1
  H+  H55  1  0.46417156  0.32532942  0.52939113  1
  H+  H56  1  0.14901954  0.33321943  0.76028018  1
  H+  H57  1  0.82023210  0.17914839  0.24826110  1
  H+  H58  1  0.37517846  0.18987755  0.23316846  1
  H+  H59  1  0.98504022  0.81857428  0.97013095  1
  H+  H60  1  0.46018971  0.81762524  0.52357240  1
  H+  H61  1  1.00375335  0.55599721  0.96180237  1
  H+  H62  1  0.14284155  0.32232066  0.51850006  1
  H+  H63  1  0.13106060  0.50460515  0.74112665  1
  H+  H64  1  0.30648059  0.83094125  0.51620932  1
  H+  H65  1  0.52910338  0.18851372  0.51503315  1
  H+  H66  1  0.04487904  0.76118267  0.35251441  1
  H+  H67  1  0.03314956  0.50298632  0.23023882  1
  H+  H68  1  0.31112985  0.82069911  0.28658754  1
  H+  H69  1  0.53124272  0.40612919  0.75158236  1
  H+  H70  1  0.28980362  0.19926502  0.49219624  1
  H+  H71  1  0.36786395  0.46847451  0.55529762  1
  H+  H72  1  0.84382002  0.47645593  0.74324674  1
  H+  H73  1  0.69270861  0.17296454  0.75628958  1
  H+  H74  1  0.11028211  0.83386534  0.17747054  1
  H+  H75  1  0.50881378  0.12413429  0.75531087  1
  H+  H76  1  0.21763665  0.00709146  0.96041301  1
  H+  H77  1  0.51526849  0.64148130  1.00525864  1
  H+  H78  1  0.13232777  0.28078581  0.24288802  1
  H+  H79  1  0.61115769  0.12935485  1.00240719  1
  H+  H80  1  0.52548150  0.48858104  0.99474480  1
  H+  H81  1  0.16585049  0.64776422  0.01401667  1
  H+  H82  1  0.47700640  0.65708534  0.48736696  1
  H+  H83  1  0.14336303  0.75678034  0.29979052  1
  H+  H84  1  0.44974245  0.85348621  0.21156640  1
  H+  H85  1  0.53427987  0.04634768  0.24615792  1
  H+  H86  1  0.18201555  0.15866497  0.24785114  1
  H+  H87  1  0.73055373  0.49832559  0.24745982  1
  H+  H88  1  0.15519419  0.31172104  0.01192004  1
  H+  H89  1  0.54456162  0.83072120  0.99722409  1
  H+  H90  1  0.30944736  0.80844375  0.78517673  1
  H+  H91  1  0.03712145  0.17759487  0.01210071  1
  H+  H92  1  0.71954432  0.86510366  0.73230732  1
  H+  H93  1  0.43031904  0.56848643  0.77046521  1
  H+  H94  1  0.38184728  0.85472523  -0.05875598  1
  H+  H95  1  1.01858981  0.51132091  0.73389679  1
  H+  H96  1  0.50911931  0.16035027  0.98775602  1
  H+  H97  1  0.56138850  0.53130013  0.76903207  1
  H+  H98  1  0.99121175  0.17270936  0.46648786  1
  H+  H99  1  0.28181055  0.51628952  0.45341202  1
  H+  H100  1  0.85648802  0.71653120  0.48244398  1
  H+  H101  1  0.17178132  0.46987819  0.99117815  1
  H+  H102  1  0.54003134  0.83689331  0.76751657  1
  H+  H103  1  0.66585015  0.11322587  0.47849663  1
  H+  H104  1  0.53069019  0.49070536  0.49034766  1
  H+  H105  1  0.84558433  0.86954238  0.02438194  1
  H+  H106  1  0.71015574  0.52646996  0.49873444  1
  H+  H107  1  0.17963856  -0.09163827  0.54816847  1
  H+  H108  1  0.20844213  0.08611052  0.83530237  1
  H+  H109  1  0.44806201  0.55401016  0.08523210  1
  H+  H110  1  0.81603642  0.92888980  0.11168396  1
  H+  H111  1  0.79219017  0.56771526  0.58560841  1
  H+  H112  1  0.89494404  0.46510629  0.83615168  1
  H+  H113  1  0.73297736  0.16812870  0.12656866  1
  H+  H114  1  0.66638926  0.83889773  1.00340586  1
  H+  H115  1  0.90442187  0.80938704  0.89151338  1
  H+  H116  1  0.17078433  0.41096860  0.35130138  1
  H+  H117  1  0.57172845  0.06582716  0.40027828  1
  H+  H118  1  0.63945507  0.16475608  0.26982116  1
  H+  H119  1  0.57044827  0.44746806  0.90931223  1
  H+  H120  1  0.79907382  0.90838443  0.64102630  1
  H+  H121  1  0.46883318  0.62603483  0.22169013  1
  H+  H122  1  0.40367224  0.22895263  0.60659777  1
  H+  H123  1  0.10505445  0.55909620  0.60475057  1
  H+  H124  1  0.17316311  0.01681849  0.52017294  1
  H+  H125  1  0.55010085  0.75980445  0.33493564  1
  H+  H126  1  0.55668174  0.11214174  0.85308996  1
  H+  H127  1  0.11669279  0.22168911  0.10735034  1
  H+  H128  1  0.10562151  0.54792640  0.08396831  1
  H+  H129  1  0.32537716  0.11851377  0.72962758  1
  H+  H130  1  0.27442152  0.85121659  0.04050125  1
  H+  H131  1  0.84322098  0.64656017  0.72759215  1
  H+  H132  1  0.23478744  0.16633513  0.39134329  1
  H+  H133  1  0.87758895  0.78556907  0.39006459  1
  H+  H134  1  0.96488514  0.15275176  0.75641545  1
  H+  H135  1  0.19651563  0.41573761  0.90468501  1
  H+  H136  1  0.49104012  0.92152485  0.12176457  1
  H+  H137  1  0.02139188  0.15515229  0.22351799  1
  H+  H138  1  0.44390761  0.22311057  0.09365774  1
  H+  H139  1  0.78957087  0.54617793  0.14883110  1
  H+  H140  1  0.97714040  0.63573081  0.90122827  1
  H+  H141  1  0.10826317  0.88370624  0.05915962  1
  H+  H142  1  0.45781147  -0.02013176  0.98293648  1
  H+  H143  1  0.59419434  0.80681814  0.85620523  1
  O2-  O144  1  0.10590623  0.20385213  0.21003372  1
  O2-  O145  1  0.09758698  0.20867604  0.71902497  1
  O2-  O146  1  0.10961624  0.53192589  0.19677605  1
  O2-  O147  1  0.10090354  0.55266648  0.71696706  1
  O2-  O148  1  0.06911318  0.87625486  0.17431738  1
  O2-  O149  1  0.02486754  0.85498916  0.75474549  1
  O2-  O150  1  0.45569238  0.22955567  0.21198650  1
  O2-  O151  1  0.41066597  0.16049573  0.71555147  1
  O2-  O152  1  0.41391195  0.55097335  0.19416090  1
  O2-  O153  1  0.49775230  0.60125053  0.73163678  1
  O2-  O154  1  0.51236506  0.92287495  0.18565403  1
  O2-  O155  1  0.45881575  0.88078592  0.73226474  1
  O2-  O156  1  0.78017956  0.22218072  0.23522697  1
  O2-  O157  1  0.77770129  0.21570944  0.73872103  1
  O2-  O158  1  0.80314310  0.55186928  0.21936683  1
  O2-  O159  1  0.79849724  0.56591785  0.70631958  1
  O2-  O160  1  0.82425658  0.97815377  0.22235888  1
  O2-  O161  1  0.79975271  0.90706363  0.70924187  1
  O2-  O162  1  0.23747165  0.13495591  0.27445018  1
  O2-  O163  1  0.19621324  0.08527345  0.76719257  1
  O2-  O164  1  0.17574383  0.39629531  0.28611686  1
  O2-  O165  1  0.18455705  0.41495894  0.78422700  1
  O2-  O166  1  0.09106452  0.72411758  0.35078747  1
  O2-  O167  1  0.24405731  0.76788557  0.82654793  1
  O2-  O168  1  0.55568119  0.11717306  0.28150078  1
  O2-  O169  1  0.56356089  0.10466675  0.78492954  1
  O2-  O170  1  0.52547555  0.43514174  0.28260442  1
  O2-  O171  1  0.58651236  0.47459161  0.78383096  1
  O2-  O172  1  0.56752112  0.75252615  0.27117236  1
  O2-  O173  1  0.59156726  0.80561606  0.78785924  1
  O2-  O174  1  0.88930333  0.09435119  0.25384359  1
  O2-  O175  1  0.88477562  0.11493890  0.78188408  1
  O2-  O176  1  0.91488282  0.44816723  0.27680812  1
  O2-  O177  1  0.87734964  0.43277401  0.77286295  1
  O2-  O178  1  0.85527865  0.76394337  0.28046340  1
  O2-  O179  1  0.90554167  0.79300888  0.76832515  1
  O2-  O180  1  0.21643250  0.15523541  0.45691675  1
  O2-  O181  1  0.23613031  0.08461650  0.94308532  1
  O2-  O182  1  0.20321186  0.46003083  0.46796145  1
  O2-  O183  1  0.20129225  0.41912822  0.97201849  1
  O2-  O184  1  0.22174365  0.79512010  0.50924075  1
  O2-  O185  1  0.19260345  0.80611336  1.06090448  1
  O2-  O186  1  0.59560071  0.04315118  0.45609411  1
  O2-  O187  1  0.54346374  0.11408707  0.96316258  1
  O2-  O188  1  0.56754283  0.44898453  0.46608016  1
  O2-  O189  1  0.56172745  0.43992556  0.97588455  1
  O2-  O190  1  0.51497272  0.73578356  0.46199486  1
  O2-  O191  1  0.58967437  0.79852865  0.97258777  1
  O2-  O192  1  0.91718892  0.12141275  0.43481351  1
  O2-  O193  1  0.91369564  0.11535548  0.97620879  1
  O2-  O194  1  0.89936623  0.45744533  0.45565817  1
  O2-  O195  1  0.94138078  0.55866837  0.92634102  1
  O2-  O196  1  0.89261672  0.79514271  0.45738107  1
  O2-  O197  1  0.90975551  0.80975338  0.95868032  1
  O2-  O198  1  0.11919412  0.22564120  0.03729528  1
  O2-  O199  1  0.10489955  0.24123440  0.53739243  1
  O2-  O200  1  0.11643314  0.56434094  0.01691445  1
  O2-  O201  1  0.10985410  0.56892647  0.53656660  1
  O2-  O202  1  0.13912933  0.86006210  0.00731032  1
  O2-  O203  1  0.16883835  0.96998726  0.57255219  1
  O2-  O204  1  0.44141257  0.22307508  0.02579511  1
  O2-  O205  1  0.39202502  0.27742464  0.56266539  1
  O2-  O206  1  0.47054124  0.55950897  0.01943309  1
  O2-  O207  1  0.44239423  0.53805506  0.55360347  1
  O2-  O208  1  0.41201844  0.89534504  -0.00101576  1
  O2-  O209  1  0.44346019  0.87512352  0.54951342  1
  O2-  O210  1  0.70548006  0.12520039  0.06835710  1
  O2-  O211  1  0.79525606  0.22096587  0.50860878  1
  O2-  O212  1  0.77344966  0.54535648  0.04977501  1
  O2-  O213  1  0.79177343  0.56984652  0.51792928  1
  O2-  O214  1  0.80285491  0.90813012  0.04511003  1
  O2-  O215  1  0.81729687  0.91774245  0.52556436  1
