# generated using pymatgen
data_H2O
_symmetry_space_group_name_H-M   'P 1'
_cell_length_a   13.51261080
_cell_length_b   13.50715364
_cell_length_c   14.68172997
_cell_angle_alpha   90.05646909
_cell_angle_beta   89.92249757
_cell_angle_gamma   120.01157533
_symmetry_Int_Tables_number   1
_chemical_formula_structural   H2O
_chemical_formula_sum   'H144 O72'
_cell_volume   2320.38408794
_cell_formula_units_Z   72
loop_
 _symmetry_equiv_pos_site_id
 _symmetry_equiv_pos_as_xyz
  1  'x, y, z'
loop_
 _atom_type_symbol
 _atom_type_oxidation_number
  H+  1.0
  O2-  -2.0
loop_
 _atom_site_type_symbol
 _atom_site_label
 _atom_site_symmetry_multiplicity
 _atom_site_fract_x
 _atom_site_fract_y
 _atom_site_fract_z
 _atom_site_occupancy
  H+  H0  1  0.94394116  0.82208676  0.74256749  1
  H+  H1  1  0.18127249  0.35570168  0.49709040  1
  H+  H2  1  0.83940426  0.79085237  0.25971062  1
  H+  H3  1  0.86420724  0.03432430  0.98556864  1
  H+  H4  1  0.77007916  0.89909783  0.58104387  1
  H+  H5  1  0.11551979  0.84342142  0.71941443  1
  H+  H6  1  0.64062313  0.13877957  0.50270717  1
  H+  H7  1  0.82190585  0.30382833  0.74375529  1
  H+  H8  1  0.04536610  0.84792995  -0.00603683  1
  H+  H9  1  0.49748349  0.20969366  0.19463103  1
  H+  H10  1  0.88355355  0.02773885  0.20701103  1
  H+  H11  1  0.84697568  0.03921286  0.47742103  1
  H+  H12  1  0.36863435  0.53097780  0.73810844  1
  H+  H13  1  0.75693236  0.18241579  1.08335607  1
  H+  H14  1  0.89790863  0.36327502  0.29738039  1
  H+  H15  1  0.21743767  0.78056889  0.35309175  1
  H+  H16  1  0.68192157  0.17923980  0.23576145  1
  H+  H17  1  0.69997235  0.52052857  -0.01253822  1
  H+  H18  1  0.77251275  0.29486522  0.18534209  1
  H+  H19  1  0.97134527  0.15011845  0.75213406  1
  H+  H20  1  0.68637508  0.85824349  0.49758254  1
  H+  H21  1  0.19508082  0.37978093  0.98219294  1
  H+  H22  1  0.84631741  0.49543722  0.76104596  1
  H+  H23  1  0.15892170  0.51580493  0.24720251  1
  H+  H24  1  0.54120027  0.21619589  0.79967263  1
  H+  H25  1  0.03038565  0.16932095  0.51056104  1
  H+  H26  1  0.51330126  0.48751165  0.98571419  1
  H+  H27  1  0.15390706  0.19334448  0.00172955  1
  H+  H28  1  0.48087285  0.85775844  0.01408381  1
  H+  H29  1  0.14962747  0.18933573  0.74285716  1
  H+  H30  1  0.49966626  0.11922649  0.29658817  1
  H+  H31  1  0.83169125  0.18979112  0.74125910  1
  H+  H32  1  0.46992577  0.83540698  0.51765741  1
  H+  H33  1  0.50019767  1.02779626  0.00071974  1
  H+  H34  1  0.51729370  0.19493105  0.75301034  1
  H+  H35  1  0.20062571  0.81950410  0.94114818  1
  H+  H36  1  0.83932789  0.34531015  1.02185620  1
  H+  H37  1  0.82374358  0.63099635  0.51905213  1
  H+  H38  1  0.51100139  0.69007996  0.74767909  1
  H+  H39  1  0.63097488  0.47417241  0.49240018  1
  H+  H40  1  0.47797571  0.30551352  0.98641773  1
  H+  H41  1  0.19212594  0.84455331  0.48975218  1
  H+  H42  1  0.12307527  0.56069523  0.15846738  1
  H+  H43  1  0.70790731  0.85695565  -0.00112045  1
  H+  H44  1  0.52369470  0.70716451  0.99353166  1
  H+  H45  1  0.43624468  0.23566970  0.11708244  1
  H+  H46  1  0.18749728  0.49764438  0.75513806  1
  H+  H47  1  0.11072576  0.23511774  0.13957313  1
  H+  H48  1  0.80249702  -0.03032447  0.73695007  1
  H+  H49  1  1.03634532  0.53318811  0.74539240  1
  H+  H50  1  0.18201599  0.36213302  0.26115517  1
  H+  H51  1  0.50110274  0.81273508  0.75103295  1
  H+  H52  1  0.35375224  0.83969599  0.24818293  1
  H+  H53  1  0.86331841  0.82293945  0.98049971  1
  H+  H54  1  0.49378887  0.38263486  0.74184860  1
  H+  H55  1  0.18052400  0.70067319  0.79218625  1
  H+  H56  1  0.50571809  0.69001621  0.49097820  1
  H+  H57  1  0.81396208  0.50347221  0.25843585  1
  H+  H58  1  0.99120496  0.22548390  0.26639188  1
  H+  H59  1  0.98493642  0.48927495  0.27195498  1
  H+  H60  1  0.51924402  0.01835316  0.50460910  1
  H+  H61  1  0.35642311  0.83487269  0.75776312  1
  H+  H62  1  0.29835796  0.47418672  0.49573935  1
  H+  H63  1  0.17845616  0.71732187  0.49642437  1
  H+  H64  1  0.80585788  0.63686280  0.74090824  1
  H+  H65  1  0.66005212  0.78901859  0.22836232  1
  H+  H66  1  0.22901820  0.11165416  0.32845857  1
  H+  H67  1  0.81551169  0.50934602  0.52130558  1
  H+  H68  1  0.48448224  0.51386388  0.24398123  1
  H+  H69  1  0.48300953  0.50650715  0.50814717  1
  H+  H70  1  0.36052540  0.50494816  0.24499694  1
  H+  H71  1  0.79707800  0.84788079  0.73677495  1
  H+  H72  1  0.68147097  0.15949620  0.99592313  1
  H+  H73  1  0.84689202  1.00430647  0.24876236  1
  H+  H74  1  -0.03308570  0.81161508  0.25879008  1
  H+  H75  1  0.88119751  0.78516497  0.83921318  1
  H+  H76  1  0.63816157  0.82703446  0.74699731  1
  H+  H77  1  0.14916438  0.96048215  0.22795142  1
  H+  H78  1  0.46978890  0.27867269  0.49575666  1
  H+  H79  1  0.20754870  0.10412757  0.84784094  1
  H+  H80  1  0.51952146  0.37553038  0.25050006  1
  H+  H81  1  0.18093043  0.69499965  0.26669597  1
  H+  H82  1  0.10477219  0.90995916  0.63337191  1
  H+  H83  1  1.03899128  0.19817537  0.99826964  1
  H+  H84  1  0.15276579  0.63487229  0.00212255  1
  H+  H85  1  0.14629337  0.18769004  0.22622720  1
  H+  H86  1  0.86472772  0.20400479  0.26162560  1
  H+  H87  1  0.30267610  0.15689647  0.23742411  1
  H+  H88  1  0.37448754  0.52961304  0.00856218  1
  H+  H89  1  0.49476187  0.68177710  0.26453313  1
  H+  H90  1  0.65694443  0.11814527  0.77612856  1
  H+  H91  1  0.50048853  0.80376575  0.26098865  1
  H+  H92  1  0.88829332  0.45861801  0.84900361  1
  H+  H93  1  0.64274312  0.48761861  0.26385083  1
  H+  H94  1  0.16477392  0.02799987  0.75593477  1
  H+  H95  1  0.18760036  0.37822667  0.75178778  1
  H+  H96  1  0.17874953  0.02999228  0.98703850  1
  H+  H97  1  0.33190200  0.20976230  0.72247605  1
  H+  H98  1  0.14862706  0.84280029  0.23670907  1
  H+  H99  1  0.98767493  0.82350849  0.49775197  1
  H+  H100  1  0.53874602  -0.00072088  0.77417576  1
  H+  H101  1  0.23596339  0.46197429  0.89509516  1
  H+  H102  1  0.85934646  0.70267181  0.97232195  1
  H+  H103  1  0.89942937  0.77279034  0.41688874  1
  H+  H104  1  0.21948523  0.43455080  0.35539450  1
  H+  H105  1  0.27065341  0.08267622  0.50815396  1
  H+  H106  1  0.77262270  0.55411805  0.65399952  1
  H+  H107  1  0.03530686  0.52192622  0.52174856  1
  H+  H108  1  0.44682215  0.55320215  0.59533309  1
  H+  H109  1  0.54442898  0.44962360  0.89108267  1
  H+  H110  1  0.84823872  0.14282134  0.97869690  1
  H+  H111  1  0.43678860  0.88729313  0.10414502  1
  H+  H112  1  0.55457277  0.78220399  0.90342915  1
  H+  H113  1  0.82158444  0.62460192  0.25837129  1
  H+  H114  1  0.95504951  0.46467482  1.03631976  1
  H+  H115  1  0.42182808  0.86614750  0.65747323  1
  H+  H116  1  0.44770114  0.56014488  0.10053537  1
  H+  H117  1  0.90391686  0.14720048  0.40446387  1
  H+  H118  1  0.55392092  0.09054833  0.90739281  1
  H+  H119  1  0.48925477  0.53027972  0.74082740  1
  H+  H120  1  0.81107399  0.51527763  0.01701644  1
  H+  H121  1  0.78143772  0.21949011  0.60372905  1
  H+  H122  1  0.47611385  0.18327965  -0.00837679  1
  H+  H123  1  0.16554680  0.52596807  0.01083657  1
  H+  H124  1  0.47760162  0.95242839  0.25171623  1
  H+  H125  1  0.85308351  0.36179293  0.50376114  1
  H+  H126  1  0.82337906  0.18204003  0.51371359  1
  H+  H127  1  0.53688125  0.76869082  0.40255356  1
  H+  H128  1  0.12342080  0.88040558  0.08190986  1
  H+  H129  1  0.11316322  0.22427723  0.65110305  1
  H+  H130  1  0.89807221  0.44715285  0.41859517  1
  H+  H131  1  0.29379497  0.15170764  0.98099771  1
  H+  H132  1  0.15482632  0.52617014  0.51898652  1
  H+  H133  1  0.56635056  0.09362803  0.36954991  1
  H+  H134  1  0.11991915  0.57948977  0.65935086  1
  H+  H135  1  0.62549309  0.48874295  0.75257968  1
  H+  H136  1  0.77561619  0.87116454  0.08863018  1
  H+  H137  1  0.89427988  0.10865141  0.84227449  1
  H+  H138  1  0.55610445  0.44030998  0.40127378  1
  H+  H139  1  0.40941195  0.24104981  0.63342954  1
  H+  H140  1  0.13637641  0.14852881  0.51986937  1
  H+  H141  1  0.35741064  0.84818116  0.51603461  1
  H+  H142  1  0.47961138  0.16668291  0.50761446  1
  H+  H143  1  0.68726396  0.70890182  0.16926979  1
  O2-  O144  1  0.11052428  0.23327145  0.20793278  1
  O2-  O145  1  0.11259997  0.23259091  0.71888915  1
  O2-  O146  1  0.11920574  0.55764373  0.22639672  1
  O2-  O147  1  0.11860678  0.57628797  0.72770989  1
  O2-  O148  1  0.10817349  0.87976811  0.20769277  1
  O2-  O149  1  0.08455253  0.89207334  0.70128106  1
  O2-  O150  1  0.44243121  0.23563076  0.18694036  1
  O2-  O151  1  0.39396312  0.27395766  0.68805563  1
  O2-  O152  1  0.44011953  0.54962555  0.21974767  1
  O2-  O153  1  0.45078820  0.57420422  0.71702396  1
  O2-  O154  1  0.43470855  0.87492103  0.22505857  1
  O2-  O155  1  0.43076813  0.86279035  0.72558231  1
  O2-  O156  1  0.75388472  0.21650877  0.19935481  1
  O2-  O157  1  0.78581213  0.22496008  0.71954855  1
  O2-  O158  1  0.77382148  0.54345254  0.23835615  1
  O2-  O159  1  0.77022311  0.55455195  0.72280416  1
  O2-  O160  1  0.72259997  0.78703024  0.19218313  1
  O2-  O161  1  0.75481380  0.88804135  0.71610092  1
  O2-  O162  1  0.22333895  0.11503694  0.26210332  1
  O2-  O163  1  0.20619348  0.10759482  0.77976396  1
  O2-  O164  1  0.22426848  0.44128542  0.28736679  1
  O2-  O165  1  0.23124686  0.45935194  0.77381255  1
  O2-  O166  1  0.21855389  0.77749632  0.28490509  1
  O2-  O167  1  0.22281716  0.78132882  0.81640601  1
  O2-  O168  1  0.55765327  0.09667205  0.30025137  1
  O2-  O169  1  0.59897677  0.05548962  0.81424683  1
  O2-  O170  1  0.55823103  0.45040420  0.28159730  1
  O2-  O171  1  0.54499934  0.45815324  0.77386092  1
  O2-  O172  1  0.54022167  0.76336457  0.28556811  1
  O2-  O173  1  0.55166979  0.77711905  0.77088318  1
  O2-  O174  1  0.93074809  0.22888475  0.30278842  1
  O2-  O175  1  0.88991403  0.10801805  0.77398858  1
  O2-  O176  1  0.90699379  0.44020637  0.29928505  1
  O2-  O177  1  0.89121781  0.45816243  0.78246829  1
  O2-  O178  1  0.89109651  0.76848366  0.28930583  1
  O2-  O179  1  0.86666873  0.78115351  0.77149249  1
  O2-  O180  1  0.18905559  0.04423100  0.48940229  1
  O2-  O181  1  0.21076937  0.11054684  0.96465110  1
  O2-  O182  1  0.21696426  0.43589289  0.47509268  1
  O2-  O183  1  0.23782399  0.46197391  0.96307913  1
  O2-  O184  1  0.22499659  0.79471920  0.46943449  1
  O2-  O185  1  0.22361791  0.76530353  0.91600436  1
  O2-  O186  1  0.56076729  0.09670364  0.47708897  1
  O2-  O187  1  0.54202051  0.10695063  0.97229317  1
  O2-  O188  1  0.55079295  0.43327708  0.46906634  1
  O2-  O189  1  0.54721079  0.44324870  0.95882033  1
  O2-  O190  1  0.53765148  0.77099574  0.47078848  1
  O2-  O191  1  0.56318769  0.78772066  0.96999850  1
  O2-  O192  1  0.89772158  0.12468418  0.46968428  1
  O2-  O193  1  0.89991341  0.11299679  0.95935755  1
  O2-  O194  1  0.89470646  0.44483979  0.48652902  1
  O2-  O195  1  0.87126621  0.42606108  1.04154545  1
  O2-  O196  1  0.90750209  0.76583438  0.48300433  1
  O2-  O197  1  0.90379637  0.78568859  0.95290375  1
  O2-  O198  1  0.11917496  0.24015461  0.02209786  1
  O2-  O199  1  0.11070306  0.20372845  0.53437601  1
  O2-  O200  1  0.12414306  0.56351204  0.03713258  1
  O2-  O201  1  0.11731233  0.56887574  0.54110346  1
  O2-  O202  1  0.12694861  0.88721771  0.01432930  1
  O2-  O203  1  0.13879966  0.92547032  0.52728973  1
  O2-  O204  1  0.43495926  0.22494716  0.01087795  1
  O2-  O205  1  0.42875726  0.19879802  0.51903269  1
  O2-  O206  1  0.45451365  0.56757844  0.03272167  1
  O2-  O207  1  0.44241721  0.54811802  0.52785389  1
  O2-  O208  1  0.44047379  0.89663362  0.03705552  1
  O2-  O209  1  0.43490144  0.87934053  0.54480122  1
  O2-  O210  1  0.76331258  0.19186056  0.01627958  1
  O2-  O211  1  0.77847595  0.21891736  0.53540859  1
  O2-  O212  1  0.78305731  0.56739234  -0.00161419  1
  O2-  O213  1  0.77372608  0.54954603  0.54019564  1
  O2-  O214  1  0.78766952  0.89215505  0.02307793  1
  O2-  O215  1  0.76781866  0.90705940  0.51472366  1
