# generated using pymatgen
data_H2O
_symmetry_space_group_name_H-M   'P 1'
_cell_length_a   13.49480833
_cell_length_b   13.50312643
_cell_length_c   14.70540486
_cell_angle_alpha   89.94988178
_cell_angle_beta   89.99850913
_cell_angle_gamma   119.97861592
_symmetry_Int_Tables_number   1
_chemical_formula_structural   H2O
_chemical_formula_sum   'H144 O72'
_cell_volume   2321.14347086
_cell_formula_units_Z   72
loop_
 _symmetry_equiv_pos_site_id
 _symmetry_equiv_pos_as_xyz
  1  'x, y, z'
loop_
 _atom_type_symbol
 _atom_type_oxidation_number
  H+  1.0
  O2-  -2.0
loop_
 _atom_site_type_symbol
 _atom_site_label
 _atom_site_symmetry_multiplicity
 _atom_site_fract_x
 _atom_site_fract_y
 _atom_site_fract_z
 _atom_site_occupancy
  H+  H0  1  0.36788877  0.18441318  0.72284896  1
  H+  H1  1  0.60562652  0.62519047  0.21096577  1
  H+  H2  1  0.48549286  0.18377289  0.73207048  1
  H+  H3  1  0.50107786  0.33746282  1.00361122  1
  H+  H4  1  0.83092523  0.48700154  0.27038012  1
  H+  H5  1  0.48733034  0.51329615  0.48826865  1
  H+  H6  1  0.84033541  0.48097690  0.74540255  1
  H+  H7  1  0.00728753  0.16885750  0.73917658  1
  H+  H8  1  0.84659903  0.37863225  0.26637892  1
  H+  H9  1  0.81442038  0.21633470  0.03198932  1
  H+  H10  1  0.20112699  0.52479369  0.49245734  1
  H+  H11  1  0.56770978  0.77832747  0.88902824  1
  H+  H12  1  0.21127354  0.17453601  0.04313908  1
  H+  H13  1  0.51546552  0.14422402  0.26262598  1
  H+  H14  1  0.79897986  0.31843920  0.00571597  1
  H+  H15  1  0.17783006  0.02573150  0.71125611  1
  H+  H16  1  0.48867788  0.84875128  0.50914701  1
  H+  H17  1  0.27420531  0.46034379  0.79467593  1
  H+  H18  1  0.52309375  0.49217907  0.72713922  1
  H+  H19  1  0.14110073  0.51499978  0.74621722  1
  H+  H20  1  0.14579550  0.24709038  0.49601949  1
  H+  H21  1  0.79967045  0.71173009  0.47986339  1
  H+  H22  1  0.08973335  0.14055335  0.61329356  1
  H+  H23  1  0.18326565  0.70520819  0.25487693  1
  H+  H24  1  0.51972946  0.37162398  0.73386107  1
  H+  H25  1  0.21211628  0.43909062  0.93429036  1
  H+  H26  1  0.15523901  0.84534481  0.70693121  1
  H+  H27  1  0.30889403  0.83147675  0.24100420  1
  H+  H28  1  0.37173237  0.51505416  0.02263229  1
  H+  H29  1  0.69692447  0.18706644  0.25431495  1
  H+  H30  1  1.03459811  0.83911533  0.68377327  1
  H+  H31  1  0.76359039  0.06009034  0.93734294  1
  H+  H32  1  0.86696799  0.79303632  0.33189817  1
  H+  H33  1  0.03072230  0.17706938  -0.00794364  1
  H+  H34  1  0.18726736  0.72155467  0.49480166  1
  H+  H35  1  0.82501245  0.00879754  0.48699329  1
  H+  H36  1  0.37986986  0.53731323  0.49725313  1
  H+  H37  1  0.62647378  0.15391468  -0.01525518  1
  H+  H38  1  0.36154007  0.17698465  0.01195037  1
  H+  H39  1  0.74263648  0.81779730  0.72557026  1
  H+  H40  1  0.80804762  0.49497392  0.01464833  1
  H+  H41  1  0.51694778  0.81431114  0.97645606  1
  H+  H42  1  0.13684806  0.90964577  0.56451170  1
  H+  H43  1  0.30465536  0.82118273  0.75212527  1
  H+  H44  1  0.83797857  0.55661487  0.50936008  1
  H+  H45  1  0.50828331  0.47202286  1.00288109  1
  H+  H46  1  0.20031839  0.87363642  0.48110902  1
  H+  H47  1  0.48078460  0.17539332  0.00071300  1
  H+  H48  1  0.51937076  1.02908074  0.25581203  1
  H+  H49  1  0.51130950  0.13822914  0.48989784  1
  H+  H50  1  0.78268016  0.89714302  0.17698887  1
  H+  H51  1  0.69916210  0.18138344  0.50287746  1
  H+  H52  1  0.02558446  0.51715908  0.73414451  1
  H+  H53  1  0.13552991  0.96897355  0.02942715  1
  H+  H54  1  0.10950277  0.06944361  0.53693970  1
  H+  H55  1  0.80687578  0.60959476  0.03399730  1
  H+  H56  1  0.39636534  0.56223869  0.69400858  1
  H+  H57  1  0.79068757  0.57817995  0.81853527  1
  H+  H58  1  0.68777712  0.87507153  0.25262711  1
  H+  H59  1  0.18555914  0.49224454  0.26044957  1
  H+  H60  1  0.76816558  0.22691473  0.63468281  1
  H+  H61  1  0.12732138  0.17392256  0.75358871  1
  H+  H62  1  0.54622848  0.47510929  0.26028748  1
  H+  H63  1  0.49111739  0.62699558  0.00130141  1
  H+  H64  1  0.83822284  0.03753398  0.26111201  1
  H+  H65  1  0.68786252  0.51973096  0.74915299  1
  H+  H66  1  0.19384376  0.50013128  1.01930699  1
  H+  H67  1  0.78034821  0.82161608  0.56022351  1
  H+  H68  1  0.51769277  0.70002338  0.47289713  1
  H+  H69  1  0.21197693  0.33162295  0.06740698  1
  H+  H70  1  0.79920437  0.81027643  0.01737706  1
  H+  H71  1  0.30001500  0.48572605  0.25994222  1
  H+  H72  1  0.79163449  0.92792193  -0.00699851  1
  H+  H73  1  0.02801869  0.84088159  0.25100618  1
  H+  H74  1  0.18410813  0.70450620  0.75273853  1
  H+  H75  1  1.00388704  0.14666396  1.03657062  1
  H+  H76  1  0.15336340  0.35009815  0.78817549  1
  H+  H77  1  0.85135887  0.17190098  0.26001930  1
  H+  H78  1  0.83796455  0.35899782  0.73874853  1
  H+  H79  1  0.03137287  0.53073036  0.50817731  1
  H+  H80  1  0.28837957  0.13210946  0.28642942  1
  H+  H81  1  0.45237673  0.89053248  0.64867824  1
  H+  H82  1  0.31739481  0.82982439  0.49687885  1
  H+  H83  1  0.37106022  0.85118027  -0.00386338  1
  H+  H84  1  0.81655102  0.17887603  0.51213714  1
  H+  H85  1  0.47609933  0.85051151  0.23390888  1
  H+  H86  1  0.49038137  -0.03374592  0.99616242  1
  H+  H87  1  0.66697001  0.80972217  0.99892357  1
  H+  H88  1  0.80223504  0.17995898  0.72121460  1
  H+  H89  1  0.11139912  0.56885001  0.59597899  1
  H+  H90  1  -0.03528290  0.81043045  0.02557080  1
  H+  H91  1  0.16729806  0.66677515  0.01299341  1
  H+  H92  1  0.18542928  0.83376347  0.98634208  1
  H+  H93  1  0.34620032  0.13300698  0.50966607  1
  H+  H94  1  0.48515817  0.33811715  0.47866618  1
  H+  H95  1  0.04775151  0.55511345  0.02053781  1
  H+  H96  1  0.63189056  0.15389702  0.74954154  1
  H+  H97  1  0.16928277  0.30782907  0.48023069  1
  H+  H98  1  0.84329717  0.69360221  0.26650694  1
  H+  H99  1  0.17855787  0.83109572  0.25263289  1
  H+  H100  1  0.03357080  0.53354092  0.24892839  1
  H+  H101  1  0.95242788  0.41820372  0.94502281  1
  H+  H102  1  0.83689904  0.71203931  0.72739854  1
  H+  H103  1  0.63032754  0.46538454  1.00519421  1
  H+  H104  1  0.52649737  0.71813889  0.25704073  1
  H+  H105  1  0.79784591  0.00822011  0.71515833  1
  H+  H106  1  0.49113480  0.96875176  0.51144099  1
  H+  H107  1  0.49748123  0.85641737  0.73644911  1
  H+  H108  1  0.90562340  0.83328332  0.77557032  1
  H+  H109  1  0.55986626  0.42375261  0.40052182  1
  H+  H110  1  0.17297463  0.24888374  0.15486856  1
  H+  H111  1  0.89438247  0.10015902  0.95523527  1
  H+  H112  1  0.21573207  0.06721374  0.80904425  1
  H+  H113  1  0.43740481  0.20407621  0.58838469  1
  H+  H114  1  0.63557709  0.81425447  0.47227073  1
  H+  H115  1  0.23791128  0.47962973  0.40597113  1
  H+  H116  1  0.10674390  0.88655814  0.11506599  1
  H+  H117  1  0.88623775  0.45523338  0.40738260  1
  H+  H118  1  0.47990654  0.58361617  0.61350772  1
  H+  H119  1  0.84326794  0.06413441  0.80872054  1
  H+  H120  1  0.54836049  0.71511006  0.73517791  1
  H+  H121  1  0.14663845  0.96367484  0.25804205  1
  H+  H122  1  0.49641240  0.57659897  0.14887647  1
  H+  H123  1  0.44403075  0.89005169  0.13992231  1
  H+  H124  1  0.84719506  0.37302244  0.49334765  1
  H+  H125  1  0.87951558  0.43713449  0.87210223  1
  H+  H126  1  0.14939304  0.29508535  0.28291120  1
  H+  H127  1  0.48979178  0.28729433  0.23988016  1
  H+  H128  1  0.11482378  0.57416541  0.16086701  1
  H+  H129  1  0.14251379  0.17085864  0.28797682  1
  H+  H130  1  0.22068359  0.79414234  0.89350296  1
  H+  H131  1  0.97312071  0.16119008  0.27370050  1
  H+  H132  1  0.75872309  0.56965207  0.57954259  1
  H+  H133  1  0.55597726  0.10113768  0.40270429  1
  H+  H134  1  0.55367804  0.11167762  0.89093916  1
  H+  H135  1  0.20847539  0.07009093  0.37552415  1
  H+  H136  1  0.88962733  0.75308037  0.93871081  1
  H+  H137  1  0.43634879  0.20501591  0.15615296  1
  H+  H138  1  0.94318342  0.09914909  0.52188877  1
  H+  H139  1  0.70544724  0.50015311  0.17299532  1
  H+  H140  1  0.77194412  0.24050228  0.16538405  1
  H+  H141  1  0.19236650  0.12698279  0.94218214  1
  H+  H142  1  0.51615942  0.03205744  0.75421210  1
  H+  H143  1  0.54798101  0.79155077  0.34813921  1
  O2-  O144  1  0.10627638  0.21422713  0.26210142  1
  O2-  O145  1  0.09137814  0.22038318  0.73921548  1
  O2-  O146  1  0.11531619  0.57223258  0.22875070  1
  O2-  O147  1  0.10878772  0.55957136  0.71873410  1
  O2-  O148  1  0.11054776  0.88439009  0.22950050  1
  O2-  O149  1  0.11802644  0.88372105  0.67403125  1
  O2-  O150  1  0.43907232  0.20609410  0.22338491  1
  O2-  O151  1  0.44946474  0.22586079  0.70451875  1
  O2-  O152  1  0.52231015  0.58985565  0.21358581  1
  O2-  O153  1  0.47702918  0.58843439  0.68402957  1
  O2-  O154  1  0.43624728  0.89061853  0.20733897  1
  O2-  O155  1  0.45089947  0.89077502  0.71750680  1
  O2-  O156  1  0.77882357  0.23478187  0.23188763  1
  O2-  O157  1  0.76661170  0.22665990  0.70422971  1
  O2-  O158  1  0.70847137  0.52005837  0.23815583  1
  O2-  O159  1  0.77734632  0.56854681  0.75318961  1
  O2-  O160  1  0.77200187  0.91973946  0.23751830  1
  O2-  O161  1  0.69523587  0.85381126  0.71203423  1
  O2-  O162  1  0.20801339  0.08926635  0.30718464  1
  O2-  O163  1  0.21433805  0.09701191  0.74898615  1
  O2-  O164  1  0.22201595  0.44867513  0.28351198  1
  O2-  O165  1  0.19506535  0.43027986  0.81395969  1
  O2-  O166  1  0.22717176  0.79127564  0.26714989  1
  O2-  O167  1  0.22273515  0.78678895  0.77119930  1
  O2-  O168  1  0.56037091  0.10721845  0.28263340  1
  O2-  O169  1  0.55347958  0.11250195  0.77764909  1
  O2-  O170  1  0.59061166  0.43560087  0.27226635  1
  O2-  O171  1  0.55950974  0.45214002  0.75603692  1
  O2-  O172  1  0.55019396  0.79639700  0.27863163  1
  O2-  O173  1  0.59011615  0.79119972  0.76876886  1
  O2-  O174  1  0.88611056  0.12445279  0.28194103  1
  O2-  O175  1  0.85055374  0.08305434  0.74360933  1
  O2-  O176  1  0.88611157  0.46105801  0.28383621  1
  O2-  O177  1  0.88056563  0.43946344  0.76503297  1
  O2-  O178  1  0.89108841  0.77639500  0.27292486  1
  O2-  O179  1  0.87036659  0.79660875  0.71813742  1
  O2-  O180  1  0.20688982  0.04253123  0.47966686  1
  O2-  O181  1  0.21608953  0.11457166  1.00176191  1
  O2-  O182  1  0.25164803  0.49537648  0.47150262  1
  O2-  O183  1  0.22946649  0.45459994  1.00039184  1
  O2-  O184  1  0.23830522  0.80088355  0.47105870  1
  O2-  O185  1  0.22623071  0.79531886  0.96158022  1
  O2-  O186  1  0.55760515  0.10186140  0.47039477  1
  O2-  O187  1  0.54809462  0.10752870  0.95982852  1
  O2-  O188  1  0.52714704  0.41990025  0.46089516  1
  O2-  O189  1  0.54693736  0.42594153  0.98503667  1
  O2-  O190  1  0.55368871  0.78334093  0.45549302  1
  O2-  O191  1  0.55853181  0.77222344  0.95667211  1
  O2-  O192  1  0.87286676  0.09180427  0.49352645  1
  O2-  O193  1  0.82148923  0.03704967  0.93130456  1
  O2-  O194  1  0.88740695  0.45526451  0.47483031  1
  O2-  O195  1  0.89080487  0.43638813  0.94163751  1
  O2-  O196  1  0.78822776  0.76541503  0.43870602  1
  O2-  O197  1  0.88123079  0.75928747  1.00419632  1
  O2-  O198  1  0.22280600  0.27356311  0.09988702  1
  O2-  O199  1  0.04935606  0.07372058  0.57411686  1
  O2-  O200  1  0.12637817  0.58875510  0.04262794  1
  O2-  O201  1  0.11272897  0.57810862  0.52890377  1
  O2-  O202  1  0.09886616  0.88639712  0.04685257  1
  O2-  O203  1  0.14830939  0.91670297  0.49617845  1
  O2-  O204  1  0.44486968  0.21829321  0.02871480  1
  O2-  O205  1  0.42869944  0.19158466  0.52121689  1
  O2-  O206  1  0.45685766  0.55210927  0.03319676  1
  O2-  O207  1  0.46452815  0.56948500  0.51143005  1
  O2-  O208  1  0.45205486  0.88457861  0.01703785  1
  O2-  O209  1  0.44930982  0.88812267  0.53597844  1
  O2-  O210  1  0.76085556  0.24438857  0.04011702  1
  O2-  O211  1  0.77958543  0.22607466  0.52601539  1
  O2-  O212  1  0.76167455  0.52513552  0.04186056  1
  O2-  O213  1  0.81981919  0.61319875  0.53616623  1
  O2-  O214  1  0.75256770  0.85131749  0.02665016  1
  O2-  O215  1  0.77267160  0.84440313  0.49830248  1
