# generated using pymatgen
data_H2O
_symmetry_space_group_name_H-M   'P 1'
_cell_length_a   13.49231853
_cell_length_b   13.48292390
_cell_length_c   14.69369541
_cell_angle_alpha   90.05983016
_cell_angle_beta   89.99551165
_cell_angle_gamma   120.01963519
_symmetry_Int_Tables_number   1
_chemical_formula_structural   H2O
_chemical_formula_sum   'H144 O72'
_cell_volume   2314.44080279
_cell_formula_units_Z   72
loop_
 _symmetry_equiv_pos_site_id
 _symmetry_equiv_pos_as_xyz
  1  'x, y, z'
loop_
 _atom_type_symbol
 _atom_type_oxidation_number
  H+  1.0
  O2-  -2.0
loop_
 _atom_site_type_symbol
 _atom_site_label
 _atom_site_symmetry_multiplicity
 _atom_site_fract_x
 _atom_site_fract_y
 _atom_site_fract_z
 _atom_site_occupancy
  H+  H0  1  0.10285728  0.88831796  0.57924166  1
  H+  H1  1  0.17444144  0.44435133  0.36008628  1
  H+  H2  1  0.41720763  0.32637179  0.06259323  1
  H+  H3  1  0.19314871  0.37118162  0.74550348  1
  H+  H4  1  0.81684324  0.51823588  0.24132827  1
  H+  H5  1  0.89689357  0.80905188  0.84742213  1
  H+  H6  1  0.18528411  0.46782269  0.98124429  1
  H+  H7  1  0.46796842  1.00532153  0.48846716  1
  H+  H8  1  0.51049109  0.79928181  -0.00711396  1
  H+  H9  1  0.48212720  0.09282023  0.98334842  1
  H+  H10  1  0.81938944  -0.02623341  0.23813007  1
  H+  H11  1  0.36632962  0.84174777  0.23743697  1
  H+  H12  1  0.14389565  0.19109917  0.49915367  1
  H+  H13  1  0.06979062  0.60118752  0.53915980  1
  H+  H14  1  0.15309614  0.19100210  0.25578959  1
  H+  H15  1  0.50260442  0.51647257  0.98014961  1
  H+  H16  1  0.66058842  0.49368298  0.49327305  1
  H+  H17  1  0.81778452  0.16995535  0.50337960  1
  H+  H18  1  0.98394279  0.47396971  0.98412668  1
  H+  H19  1  0.96169159  0.81888104  0.98518172  1
  H+  H20  1  0.36160613  0.17875932  0.25407161  1
  H+  H21  1  0.78290117  0.22599432  0.64705557  1
  H+  H22  1  0.13462259  0.49137741  0.50717482  1
  H+  H23  1  0.18457413  0.69414867  0.24867534  1
  H+  H24  1  0.50069864  0.53386968  0.73292996  1
  H+  H25  1  0.19835109  1.04331387  0.26036326  1
  H+  H26  1  0.15608080  0.30641334  -0.01875023  1
  H+  H27  1  0.15174469  -0.02740603  0.99337289  1
  H+  H28  1  0.64826999  0.16762421  0.75623448  1
  H+  H29  1  0.16929260  0.03281624  0.48924116  1
  H+  H30  1  0.80337278  -0.16391099  0.72207384  1
  H+  H31  1  0.84914078  0.36725592  0.25457031  1
  H+  H32  1  0.37974483  0.50584621  -0.01269211  1
  H+  H33  1  0.70064122  0.17338036  0.50590824  1
  H+  H34  1  0.14272263  0.30407969  0.25940185  1
  H+  H35  1  0.84019138  0.69846869  0.25727189  1
  H+  H36  1  0.46653816  0.50469910  0.27051829  1
  H+  H37  1  0.15417998  0.85002694  0.73447789  1
  H+  H38  1  0.50693031  0.21562213  0.00101093  1
  H+  H39  1  0.29541265  0.16095861  0.98563290  1
  H+  H40  1  0.90014402  0.44948250  0.84359075  1
  H+  H41  1  0.97319911  0.84026527  0.75591842  1
  H+  H42  1  0.16526025  0.62001478  1.00261191  1
  H+  H43  1  0.47362760  0.92771860  0.00994232  1
  H+  H44  1  0.83802170  0.64613528  0.50261726  1
  H+  H45  1  0.84522029  0.02566882  0.48634752  1
  H+  H46  1  0.31528049  0.16527658  0.75257342  1
  H+  H47  1  0.82829060  0.31112949  0.73317877  1
  H+  H48  1  0.48329374  -0.02256553  0.74663038  1
  H+  H49  1  0.11336314  0.35997581  0.49355784  1
  H+  H50  1  0.36379357  0.85929428  0.75317753  1
  H+  H51  1  0.19852959  0.76992455  1.05162622  1
  H+  H52  1  0.98393937  0.49607838  0.75633194  1
  H+  H53  1  0.67470034  0.20595753  1.01555263  1
  H+  H54  1  0.83838172  0.51233308  0.73383628  1
  H+  H55  1  0.54254052  0.38665659  0.74180414  1
  H+  H56  1  0.51360449  1.01954207  0.24851831  1
  H+  H57  1  0.22593234  0.11651144  0.35455914  1
  H+  H58  1  0.15242239  0.85569902  -0.00957248  1
  H+  H59  1  1.02952211  0.17178241  0.98430578  1
  H+  H60  1  0.83990419  0.80726025  0.48526133  1
  H+  H61  1  0.50006553  0.20398865  0.73597328  1
  H+  H62  1  0.46587210  0.18313490  0.50693792  1
  H+  H63  1  0.52545546  0.82779610  0.49580120  1
  H+  H64  1  0.55227342  0.77745919  0.84984597  1
  H+  H65  1  0.71231895  0.51707533  0.72482700  1
  H+  H66  1  1.05154841  0.19754553  0.72726821  1
  H+  H67  1  0.69577832  0.51334974  0.24263318  1
  H+  H68  1  1.02209502  0.85447815  0.49247094  1
  H+  H69  1  0.86261118  0.35802885  -0.01780928  1
  H+  H70  1  0.70458995  0.85544848  0.49109159  1
  H+  H71  1  0.18766144  0.70412712  0.77723191  1
  H+  H72  1  0.69753868  0.85711600  0.00571894  1
  H+  H73  1  0.47917756  0.17235327  0.23971050  1
  H+  H74  1  0.52447846  0.70781671  0.49096598  1
  H+  H75  1  0.31007079  0.49143518  0.75367301  1
  H+  H76  1  0.21312682  0.67556333  0.50136940  1
  H+  H77  1  0.37886115  0.83163589  0.50806886  1
  H+  H78  1  0.97620470  0.15340180  0.26484846  1
  H+  H79  1  0.86812595  0.14405502  0.95375069  1
  H+  H80  1  0.52753865  0.69093220  0.98269902  1
  H+  H81  1  0.65193893  0.47167970  0.98073628  1
  H+  H82  1  0.17809001  0.86597455  0.23426272  1
  H+  H83  1  0.15918089  0.52615753  0.74468128  1
  H+  H84  1  0.54468316  0.50004493  0.49600415  1
  H+  H85  1  0.85137404  0.01943045  0.98116662  1
  H+  H86  1  0.84914764  0.52969027  0.50129465  1
  H+  H87  1  0.80942377  0.48123560  1.01826724  1
  H+  H88  1  0.85216585  0.35440974  0.48136389  1
  H+  H89  1  0.84235776  0.81755244  0.25940272  1
  H+  H90  1  0.52908062  0.37415938  0.94826828  1
  H+  H91  1  0.47201893  0.62523861  0.26679150  1
  H+  H92  1  0.67818560  0.82431028  0.71997732  1
  H+  H93  1  0.73249713  0.13249492  0.02912682  1
  H+  H94  1  0.38767190  0.52003024  0.50829724  1
  H+  H95  1  0.28320562  0.48450723  0.29031712  1
  H+  H96  1  0.15637913  0.17722408  0.98258079  1
  H+  H97  1  0.03048111  0.51699232  0.22590594  1
  H+  H98  1  0.49263437  0.31395544  0.50976749  1
  H+  H99  1  0.13172140  0.58630788  0.66083996  1
  H+  H100  1  0.28855341  0.15485863  0.49876217  1
  H+  H101  1  0.15891107  0.96874338  0.72500275  1
  H+  H102  1  0.87096721  0.16474684  0.74461477  1
  H+  H103  1  0.69582051  0.17897882  0.24680739  1
  H+  H104  1  0.01986308  0.17831835  0.50578958  1
  H+  H105  1  0.33345628  0.80947077  0.01175416  1
  H+  H106  1  0.87438287  0.76649548  0.39258073  1
  H+  H107  1  0.84743188  0.82322609  -0.01335569  1
  H+  H108  1  0.53573567  0.09173811  0.33953246  1
  H+  H109  1  0.44385489  0.89166484  0.60486234  1
  H+  H110  1  0.45737358  0.56570506  0.60124617  1
  H+  H111  1  0.80477007  0.55658853  0.63259019  1
  H+  H112  1  0.12690986  0.23524738  0.63793681  1
  H+  H113  1  0.77129051  0.22416534  0.15792120  1
  H+  H114  1  0.75719276  0.51333571  0.10538984  1
  H+  H115  1  0.69933428  0.85476812  0.23606177  1
  H+  H116  1  0.59442098  0.47035169  0.82777120  1
  H+  H117  1  0.22344294  0.78262995  0.86575497  1
  H+  H118  1  0.90827306  0.10381665  0.81846973  1
  H+  H119  1  0.42394505  0.23367009  0.12430207  1
  H+  H120  1  0.13739767  0.90585576  0.14620454  1
  H+  H121  1  0.48734196  0.64571630  0.73887987  1
  H+  H122  1  0.88558542  0.10860841  0.39785436  1
  H+  H123  1  0.51643470  0.35974856  0.26731835  1
  H+  H124  1  0.50805881  0.81982178  0.76390591  1
  H+  H125  1  0.89729236  0.44679597  0.34136265  1
  H+  H126  1  0.22159512  0.43235784  0.88603353  1
  H+  H127  1  0.45477579  0.24091414  0.64838061  1
  H+  H128  1  0.11819632  0.53877270  0.08929168  1
  H+  H129  1  0.56887172  0.14739192  0.84339468  1
  H+  H130  1  0.56528797  0.44271986  0.35394640  1
  H+  H131  1  0.98172450  0.43359197  0.46153414  1
  H+  H132  1  0.23232632  0.12183174  0.88514374  1
  H+  H133  1  0.14630236  0.51368262  0.23589444  1
  H+  H134  1  0.85558252  0.15241506  0.26052872  1
  H+  H135  1  0.23906061  0.76118498  0.34186920  1
  H+  H136  1  0.51795105  0.81489996  0.25635989  1
  H+  H137  1  0.56191847  0.78436552  0.34715394  1
  H+  H138  1  0.19541842  0.16181315  0.74699257  1
  H+  H139  1  0.77793917  0.90306677  0.09605546  1
  H+  H140  1  0.31697839  0.69542165  0.42405186  1
  H+  H141  1  0.77188626  0.87823601  0.58423374  1
  H+  H142  1  0.44308997  0.87250519  0.14708165  1
  H+  H143  1  0.38863580  0.03157901  0.42751967  1
  O2-  O144  1  0.10512700  0.22386329  0.23642368  1
  O2-  O145  1  0.13443916  0.23794663  0.70616137  1
  O2-  O146  1  0.11087547  0.55443399  0.20288917  1
  O2-  O147  1  0.11972827  0.56988955  0.72951772  1
  O2-  O148  1  0.15702269  0.92175560  0.21121109  1
  O2-  O149  1  0.11753202  0.88856178  0.70327106  1
  O2-  O150  1  0.44159618  0.21811412  0.22491220  1
  O2-  O151  1  0.46036192  0.24642048  0.71676591  1
  O2-  O152  1  0.41890329  0.54135860  0.26731969  1
  O2-  O153  1  0.45182405  0.56533085  0.71246824  1
  O2-  O154  1  0.44798433  0.88372104  0.21553650  1
  O2-  O155  1  0.44206043  0.89691917  0.72523364  1
  O2-  O156  1  0.77693187  0.22342257  0.22490664  1
  O2-  O157  1  0.78335100  0.22887555  0.71496618  1
  O2-  O158  1  0.77439243  0.55485273  0.21577974  1
  O2-  O159  1  0.79690241  0.55088156  0.70317422  1
  O2-  O160  1  0.77842861  0.89566199  0.20978545  1
  O2-  O161  1  0.74327504  0.83616691  0.68182558  1
  O2-  O162  1  0.23510586  0.12345377  0.28676931  1
  O2-  O163  1  0.23429945  0.12140245  0.77389866  1
  O2-  O164  1  0.19726583  0.44662781  0.29501916  1
  O2-  O165  1  0.22895046  0.44946927  0.77499554  1
  O2-  O166  1  0.22975055  0.77257589  0.27563761  1
  O2-  O167  1  0.22640841  0.78584914  0.79856616  1
  O2-  O168  1  0.55179892  0.10070448  0.27320155  1
  O2-  O169  1  0.56651444  0.13219814  0.77780492  1
  O2-  O170  1  0.55812627  0.44158057  0.28646642  1
  O2-  O171  1  0.59157940  0.46995136  0.75899436  1
  O2-  O172  1  0.56172420  0.77823464  0.27947231  1
  O2-  O173  1  0.54463930  0.77436614  0.78170415  1
  O2-  O174  1  0.89152911  0.10897980  0.28404971  1
  O2-  O175  1  0.91940941  0.12985986  0.75498300  1
  O2-  O176  1  0.89215914  0.44938595  0.27369361  1
  O2-  O177  1  0.90004167  0.45330404  0.77521665  1
  O2-  O178  1  0.87634374  0.77453166  0.28741428  1
  O2-  O179  1  0.90087465  0.82879645  0.78143763  1
  O2-  O180  1  0.21253750  0.11706480  0.46920805  1
  O2-  O181  1  0.22071558  0.11719285  0.95393764  1
  O2-  O182  1  0.10980820  0.42452842  0.46385895  1
  O2-  O183  1  0.21944173  0.42222391  0.95452642  1
  O2-  O184  1  0.28174567  0.73817166  0.44757560  1
  O2-  O185  1  0.23023274  0.76520451  0.99285335  1
  O2-  O186  1  0.46730097  0.06850723  0.45002010  1
  O2-  O187  1  0.54085943  0.17223265  0.97223773  1
  O2-  O188  1  0.57878348  0.45383417  0.47379888  1
  O2-  O189  1  0.58291456  0.45526387  0.93863026  1
  O2-  O190  1  0.55987712  0.78607938  0.46469264  1
  O2-  O191  1  0.56257157  0.77388993  0.96505318  1
  O2-  O192  1  0.88261777  0.10912877  0.46651514  1
  O2-  O193  1  0.90421045  0.09730774  0.94845079  1
  O2-  O194  1  0.90715773  0.43264345  0.45862226  1
  O2-  O195  1  0.90350177  0.43720279  0.95944161  1
  O2-  O196  1  0.87766171  0.76398565  0.46256175  1
  O2-  O197  1  0.88310786  0.78113245  0.96035847  1
  O2-  O198  1  0.11345887  0.21875077  0.00423823  1
  O2-  O199  1  0.10171792  0.22836331  0.52483813  1
  O2-  O200  1  0.12175160  0.53636980  0.02073432  1
  O2-  O201  1  0.14157141  0.60478773  0.55544357  1
  O2-  O202  1  0.11390433  0.89376503  0.01863115  1
  O2-  O203  1  0.10337312  0.90053836  0.51277003  1
  O2-  O204  1  0.41607364  0.25343365  0.05718052  1
  O2-  O205  1  0.44276557  0.23548974  0.53546271  1
  O2-  O206  1  0.45902231  0.54886224  0.00986084  1
  O2-  O207  1  0.46507128  0.56521495  0.53242739  1
  O2-  O208  1  0.43192231  0.85163665  0.03646095  1
  O2-  O209  1  0.45359011  0.89423096  0.53742803  1
  O2-  O210  1  0.74858671  0.21139128  0.03374241  1
  O2-  O211  1  0.77940280  0.21435788  0.52774428  1
  O2-  O212  1  0.73890511  0.47392232  0.04465530  1
  O2-  O213  1  0.80680388  0.56415125  0.52949747  1
  O2-  O214  1  0.77888067  0.90531289  0.02732645  1
  O2-  O215  1  0.78424156  0.89293601  0.51521351  1
