# generated using pymatgen
data_H2O
_symmetry_space_group_name_H-M   'P 1'
_cell_length_a   13.51948122
_cell_length_b   13.51797762
_cell_length_c   14.70118269
_cell_angle_alpha   90.02754353
_cell_angle_beta   89.99716436
_cell_angle_gamma   119.93287839
_symmetry_Int_Tables_number   1
_chemical_formula_structural   H2O
_chemical_formula_sum   'H144 O72'
_cell_volume   2328.34825355
_cell_formula_units_Z   72
loop_
 _symmetry_equiv_pos_site_id
 _symmetry_equiv_pos_as_xyz
  1  'x, y, z'
loop_
 _atom_type_symbol
 _atom_type_oxidation_number
  H+  1.0
  O2-  -2.0
loop_
 _atom_site_type_symbol
 _atom_site_label
 _atom_site_symmetry_multiplicity
 _atom_site_fract_x
 _atom_site_fract_y
 _atom_site_fract_z
 _atom_site_occupancy
  H+  H0  1  0.52150981  0.48504648  -0.05855176  1
  H+  H1  1  0.52343553  1.03867990  0.21867238  1
  H+  H2  1  0.47229554  0.69241015  0.59335746  1
  H+  H3  1  0.44466043  0.46839116  0.58844483  1
  H+  H4  1  0.01012482  0.84875844  0.23166215  1
  H+  H5  1  0.14894037  0.96353377  0.74850246  1
  H+  H6  1  0.80728690  0.62222376  0.51952120  1
  H+  H7  1  0.55238594  0.77445802  0.84831984  1
  H+  H8  1  0.83084111  0.32093230  0.00970436  1
  H+  H9  1  0.16390769  0.47975986  0.75600160  1
  H+  H10  1  0.30107242  0.15019604  0.77346497  1
  H+  H11  1  0.87264661  0.73908011  0.99637933  1
  H+  H12  1  0.28884587  0.49644574  0.44046887  1
  H+  H13  1  0.21821682  0.59162312  0.52174427  1
  H+  H14  1  0.51065054  0.13808816  0.49200101  1
  H+  H15  1  0.49943245  0.21593567  0.77236897  1
  H+  H16  1  0.16335831  0.19114525  1.00466116  1
  H+  H17  1  0.29558282  0.13751870  1.00597197  1
  H+  H18  1  0.83768466  0.15518184  0.28491896  1
  H+  H19  1  0.45728413  0.43423521  0.55478391  1
  H+  H20  1  0.36297203  0.14441946  0.49373530  1
  H+  H21  1  0.20117367  0.34486597  0.47179676  1
  H+  H22  1  0.47244861  0.17407572  0.23070443  1
  H+  H23  1  0.12961730  0.65183886  0.22900155  1
  H+  H24  1  0.12205463  0.94689455  -0.00438988  1
  H+  H25  1  0.85868380  0.16585693  0.00392608  1
  H+  H26  1  0.57608316  0.13302993  0.14170806  1
  H+  H27  1  0.88879340  0.74734566  0.85954833  1
  H+  H28  1  0.50943497  0.45212101  0.27382588  1
  H+  H29  1  0.83588321  0.85590019  -0.00534285  1
  H+  H30  1  0.37478709  0.56659500  0.59388786  1
  H+  H31  1  0.81962247  0.68996959  0.24354879  1
  H+  H32  1  0.29469796  0.84793114  0.49161916  1
  H+  H33  1  0.17713782  1.10650577  0.48753045  1
  H+  H34  1  0.45577124  0.28400296  0.03567514  1
  H+  H35  1  0.71602376  0.20923423  0.03241558  1
  H+  H36  1  0.27090802  0.79486162  0.77598927  1
  H+  H37  1  0.82802350  0.03278940  0.26914016  1
  H+  H38  1  0.64766016  0.81986815  0.99023187  1
  H+  H39  1  0.46313157  0.84726146  0.50875530  1
  H+  H40  1  0.85669262  0.50788737  -0.01618851  1
  H+  H41  1  0.69180001  0.16127213  0.52377132  1
  H+  H42  1  0.57718435  0.15030065  0.94477398  1
  H+  H43  1  0.01222888  0.46029772  0.53736599  1
  H+  H44  1  0.27234342  0.46190895  0.23528540  1
  H+  H45  1  0.51703588  0.88806209  0.24722379  1
  H+  H46  1  0.00675500  0.83041848  0.51034553  1
  H+  H47  1  0.12940846  0.53091938  0.23143173  1
  H+  H48  1  0.42078407  0.20914828  0.14820720  1
  H+  H49  1  0.94978143  0.14814996  0.77315420  1
  H+  H50  1  1.00552201  0.51266707  0.53853321  1
  H+  H51  1  0.01102363  0.15567825  0.26292504  1
  H+  H52  1  0.56401387  0.07834184  0.81209934  1
  H+  H53  1  0.82868577  0.80404747  0.49314992  1
  H+  H54  1  0.43093643  0.94172487  0.74113318  1
  H+  H55  1  0.52495178  0.70451839  -0.01348518  1
  H+  H56  1  0.58330765  0.78193894  0.25173068  1
  H+  H57  1  0.29165204  0.13553220  0.25853244  1
  H+  H58  1  0.80731070  0.52482847  0.22267108  1
  H+  H59  1  0.64148012  0.82557172  0.49410104  1
  H+  H60  1  0.85500462  0.04410740  0.99882175  1
  H+  H61  1  0.84023314  0.39292729  0.74666671  1
  H+  H62  1  0.67680263  0.85012340  0.73297937  1
  H+  H63  1  0.17789529  0.14046432  0.77540827  1
  H+  H64  1  0.63055237  0.44862094  0.49376028  1
  H+  H65  1  0.15041528  0.34952232  0.48919448  1
  H+  H66  1  0.47875686  0.31729801  0.74008982  1
  H+  H67  1  0.71339940  0.53224907  0.98704541  1
  H+  H68  1  0.01152591  0.12172166  0.52614790  1
  H+  H69  1  0.35362894  0.50051179  -0.02267361  1
  H+  H70  1  0.90574606  0.44458056  0.45825376  1
  H+  H71  1  0.85144509  0.14036660  0.50413240  1
  H+  H72  1  0.04590800  0.19366878  0.00617091  1
  H+  H73  1  0.50541625  0.86750678  0.01393913  1
  H+  H74  1  0.13207708  -0.03776659  0.23066013  1
  H+  H75  1  0.75869592  0.88319967  0.60122954  1
  H+  H76  1  0.48217686  0.58740525  0.73625058  1
  H+  H77  1  0.75826460  0.83229710  0.26533444  1
  H+  H78  1  0.13252429  0.48272554  1.01063832  1
  H+  H79  1  0.14038567  0.63898402  0.75320977  1
  H+  H80  1  0.48178938  0.97250671  0.51352695  1
  H+  H81  1  0.54330080  0.38294566  0.91646033  1
  H+  H82  1  0.00424232  0.48836776  0.00328146  1
  H+  H83  1  0.78926357  0.97319730  0.73541674  1
  H+  H84  1  -0.03307146  0.78062483  0.77007196  1
  H+  H85  1  0.66748615  0.19672342  0.78516933  1
  H+  H86  1  0.17908705  0.35691391  0.98565008  1
  H+  H87  1  0.79763101  0.28082980  0.50993237  1
  H+  H88  1  0.13033978  0.28324828  0.74509146  1
  H+  H89  1  0.15780244  0.80206082  0.77599763  1
  H+  H90  1  0.14900717  0.81436733  0.24578566  1
  H+  H91  1  0.49281690  0.79177721  0.76199462  1
  H+  H92  1  0.16083948  0.82296071  0.49978716  1
  H+  H93  1  0.79963835  0.45740730  0.47540974  1
  H+  H94  1  0.50458345  0.16735786  0.02614858  1
  H+  H95  1  0.43531559  0.57122420  0.30919690  1
  H+  H96  1  0.50829366  0.33600467  0.25351462  1
  H+  H97  1  0.49968524  0.98391415  0.02459725  1
  H+  H98  1  0.85632694  0.61154510  0.76404239  1
  H+  H99  1  0.95168478  0.49768753  0.24440992  1
  H+  H100  1  0.20027868  0.70955598  0.52556510  1
  H+  H101  1  0.48084255  0.26624191  0.49817015  1
  H+  H102  1  0.16943867  0.13177515  0.26735439  1
  H+  H103  1  0.16549658  0.40632160  0.17114142  1
  H+  H104  1  0.80680513  0.95701376  0.50953153  1
  H+  H105  1  0.79096040  0.54212058  0.60643694  1
  H+  H106  1  0.79084258  0.88616917  0.09062729  1
  H+  H107  1  0.88544495  0.10124190  0.41170807  1
  H+  H108  1  0.43684423  0.50557962  0.05338357  1
  H+  H109  1  0.07552500  0.86648209  0.07846957  1
  H+  H110  1  0.21396450  0.07842829  0.39011215  1
  H+  H111  1  0.69940646  0.18382654  0.24902434  1
  H+  H112  1  0.20703331  0.50982440  0.37630980  1
  H+  H113  1  0.86353856  0.76454512  0.40231667  1
  H+  H114  1  0.41315238  0.87253357  0.65159076  1
  H+  H115  1  0.45319269  0.89093730  0.15769443  1
  H+  H116  1  0.56794447  0.40915191  0.39703614  1
  H+  H117  1  0.87438545  0.11985688  0.86192021  1
  H+  H118  1  0.68414692  0.51083183  0.22746383  1
  H+  H119  1  0.85633250  0.44607851  0.32497026  1
  H+  H120  1  0.21700876  0.74865360  0.94167774  1
  H+  H121  1  0.82527871  0.20674465  0.75405419  1
  H+  H122  1  0.02423609  0.52760151  0.72321859  1
  H+  H123  1  0.22457719  0.10484212  0.91198282  1
  H+  H124  1  0.08869274  0.18124798  0.67165282  1
  H+  H125  1  0.53898398  0.70747581  0.45672077  1
  H+  H126  1  0.13626376  0.22315579  0.53493754  1
  H+  H127  1  0.16037318  0.60404248  0.62364489  1
  H+  H128  1  0.12998878  0.94634595  0.50547970  1
  H+  H129  1  0.19272344  0.77813930  0.33434221  1
  H+  H130  1  0.31529506  0.79595411  0.01218338  1
  H+  H131  1  0.20260176  0.44092404  0.89851886  1
  H+  H132  1  0.12865456  0.27037422  0.25446769  1
  H+  H133  1  0.10314609  0.88245476  0.66004032  1
  H+  H134  1  0.60392340  0.82820857  0.35309052  1
  H+  H135  1  0.89595633  0.47328396  0.89066828  1
  H+  H136  1  0.57094043  0.10200143  0.41045290  1
  H+  H137  1  0.27592484  0.46836401  0.76117353  1
  H+  H138  1  0.77972980  0.23269887  0.66122078  1
  H+  H139  1  0.57669146  0.49272162  0.80149327  1
  H+  H140  1  0.08625635  0.53483686  0.10195424  1
  H+  H141  1  0.77096005  0.55807781  0.08604832  1
  H+  H142  1  0.81568125  0.30162381  0.25781156  1
  H+  H143  1  0.46248611  0.57676230  0.20553859  1
  O2-  O144  1  0.09231106  0.18808420  0.24448876  1
  O2-  O145  1  0.09114546  0.19903889  0.73742421  1
  O2-  O146  1  0.08918489  0.56779917  0.20486896  1
  O2-  O147  1  0.10880641  0.56363414  0.71611694  1
  O2-  O148  1  0.08748973  0.88265183  0.20591151  1
  O2-  O149  1  0.10814997  0.88219120  0.72714400  1
  O2-  O150  1  0.42602104  0.21198450  0.22156985  1
  O2-  O151  1  0.44157284  0.23458393  0.75122891  1
  O2-  O152  1  0.42056671  0.52421780  0.25495070  1
  O2-  O153  1  0.45113929  0.50883872  0.76029653  1
  O2-  O154  1  0.45859910  0.90452848  0.22519581  1
  O2-  O155  1  0.40733766  0.86514671  0.71946345  1
  O2-  O156  1  0.77657042  0.22130046  0.27843613  1
  O2-  O157  1  0.78770898  0.24943784  0.72790893  1
  O2-  O158  1  0.76286074  0.56344564  0.20358145  1
  O2-  O159  1  0.82023805  0.52775173  0.72941948  1
  O2-  O160  1  0.82050362  0.83738972  0.22661409  1
  O2-  O161  1  0.75246117  0.89919033  0.70333282  1
  O2-  O162  1  0.21163377  0.08978751  0.28316277  1
  O2-  O163  1  0.21950065  0.09980940  0.79183013  1
  O2-  O164  1  0.18861205  0.43093623  0.23393041  1
  O2-  O165  1  0.19579595  0.43199475  0.78005287  1
  O2-  O166  1  0.18455820  0.76860956  0.26832285  1
  O2-  O167  1  0.19139684  0.75494791  0.79865301  1
  O2-  O168  1  0.56743541  0.12497458  0.20809131  1
  O2-  O169  1  0.59214900  0.15962104  0.81895742  1
  O2-  O170  1  0.55866743  0.41826233  0.27745957  1
  O2-  O171  1  0.54268462  0.48267211  0.73957500  1
  O2-  O172  1  0.63247060  0.84819081  0.28888852  1
  O2-  O173  1  0.54452676  0.76417280  0.78112613  1
  O2-  O174  1  0.87551236  0.10603126  0.29860586  1
  O2-  O175  1  0.87004971  0.12147675  0.79343727  1
  O2-  O176  1  0.86799250  0.45389506  0.25791117  1
  O2-  O177  1  0.88667650  0.47594648  0.76435743  1
  O2-  O178  1  0.86050121  0.76852871  0.27531147  1
  O2-  O179  1  0.89287246  0.72088078  0.79471511  1
  O2-  O180  1  0.21768529  0.07047186  0.45913200  1
  O2-  O181  1  0.21641914  0.10523087  0.97923193  1
  O2-  O182  1  0.26756893  0.55234617  0.42076081  1
  O2-  O183  1  0.21318961  0.44316459  0.96584103  1
  O2-  O184  1  0.21296879  0.79314915  0.47538347  1
  O2-  O185  1  0.24389045  0.72630852  0.99545842  1
  O2-  O186  1  0.56170228  0.09914755  0.47628714  1
  O2-  O187  1  0.56187309  0.13586719  1.01057741  1
  O2-  O188  1  0.55654149  0.39983682  0.46376304  1
  O2-  O189  1  0.57987782  0.46597609  0.91865827  1
  O2-  O190  1  0.56092472  0.78764808  0.46330658  1
  O2-  O191  1  0.56583930  0.78551380  0.96881783  1
  O2-  O192  1  0.88649830  0.09578986  0.48008986  1
  O2-  O193  1  0.89593660  0.12476657  0.97635421  1
  O2-  O194  1  0.82555687  0.40995531  0.44052133  1
  O2-  O195  1  0.89833532  0.46820279  0.95770051  1
  O2-  O196  1  0.86773234  0.76272566  0.46943572  1
  O2-  O197  1  0.89257538  0.80484528  0.95691426  1
  O2-  O198  1  0.12872552  0.24003990  0.02036317  1
  O2-  O199  1  0.08792585  0.14384032  0.55415796  1
  O2-  O200  1  0.06725385  0.48667640  0.04372014  1
  O2-  O201  1  0.20785128  0.64185010  0.56521187  1
  O2-  O202  1  0.08353953  0.86488680  0.01180559  1
  O2-  O203  1  0.08601052  0.86925462  0.53579175  1
  O2-  O204  1  0.42547690  0.20443612  0.05177790  1
  O2-  O205  1  0.44220634  0.18398424  0.51790720  1
  O2-  O206  1  0.43759419  0.53287886  -0.00790792  1
  O2-  O207  1  0.40989820  0.63579232  0.63032172  1
  O2-  O208  1  0.46354993  0.90228661  0.04310739  1
  O2-  O209  1  0.42911645  0.89084604  0.53425186  1
  O2-  O210  1  0.79972570  0.24658241  0.04055005  1
  O2-  O211  1  0.77371714  0.20876926  0.54339949  1
  O2-  O212  1  0.78686948  0.56345987  0.01954921  1
  O2-  O213  1  0.77345338  0.54201114  0.54092106  1
  O2-  O214  1  0.78643892  0.89438820  0.02502299  1
  O2-  O215  1  0.76114736  0.87593931  0.53116280  1
