# generated using pymatgen
data_H2O
_symmetry_space_group_name_H-M   'P 1'
_cell_length_a   13.49438474
_cell_length_b   13.49463076
_cell_length_c   14.70420118
_cell_angle_alpha   89.92414835
_cell_angle_beta   90.04437832
_cell_angle_gamma   120.01667728
_symmetry_Int_Tables_number   1
_chemical_formula_structural   H2O
_chemical_formula_sum   'H144 O72'
_cell_volume   2318.53026461
_cell_formula_units_Z   72
loop_
 _symmetry_equiv_pos_site_id
 _symmetry_equiv_pos_as_xyz
  1  'x, y, z'
loop_
 _atom_type_symbol
 _atom_type_oxidation_number
  H+  1.0
  O2-  -2.0
loop_
 _atom_site_type_symbol
 _atom_site_label
 _atom_site_symmetry_multiplicity
 _atom_site_fract_x
 _atom_site_fract_y
 _atom_site_fract_z
 _atom_site_occupancy
  H+  H0  1  0.79491526  0.51756876  0.01448407  1
  H+  H1  1  0.64203999  0.47755951  0.76555592  1
  H+  H2  1  0.37470490  0.53075903  0.23860417  1
  H+  H3  1  0.89196864  0.77669986  0.83913420  1
  H+  H4  1  0.46580629  0.29711415  -0.02061123  1
  H+  H5  1  0.04099064  0.85120222  0.74678570  1
  H+  H6  1  0.98675068  0.48153401  0.75544553  1
  H+  H7  1  0.55619032  0.78489857  -0.10395730  1
  H+  H8  1  0.46027652  0.22882115  0.63234424  1
  H+  H9  1  0.35890671  0.51362230  0.00759378  1
  H+  H10  1  0.79204698  0.92552894  -0.10716880  1
  H+  H11  1  0.13322965  0.94553179  0.01334758  1
  H+  H12  1  0.10938630  0.55383741  0.16336920  1
  H+  H13  1  0.22539256  0.77436948  0.40456528  1
  H+  H14  1  0.15126814  0.63682656  0.01681605  1
  H+  H15  1  0.84878127  0.81948624  -0.02797631  1
  H+  H16  1  0.85773711  0.14283456  0.48746538  1
  H+  H17  1  0.84253860  0.34748550  0.49523222  1
  H+  H18  1  0.48781252  -0.03113448  1.00131354  1
  H+  H19  1  0.48625094  0.85297071  0.24114210  1
  H+  H20  1  0.18261016  0.14460313  0.26507517  1
  H+  H21  1  0.81457771  0.20243232  0.01837597  1
  H+  H22  1  0.81956054  0.63886319  0.51940358  1
  H+  H23  1  0.72338199  0.63214539  0.57694252  1
  H+  H24  1  0.53181950  0.84222789  0.75972718  1
  H+  H25  1  0.18421249  0.02485337  0.26003352  1
  H+  H26  1  0.66740448  0.51419997  0.99762005  1
  H+  H27  1  0.77499062  0.15781330  0.23512938  1
  H+  H28  1  0.52258852  0.71093815  0.26288248  1
  H+  H29  1  0.83974828  0.36092175  0.26665059  1
  H+  H30  1  0.83137049  -0.00719724  0.26001814  1
  H+  H31  1  0.95826634  0.80264931  0.99434523  1
  H+  H32  1  0.79835607  0.64392345  0.00103752  1
  H+  H33  1  0.82497876  0.50117356  0.74725413  1
  H+  H34  1  0.18763863  0.81309871  0.49531820  1
  H+  H35  1  0.17639318  0.47846689  0.99422547  1
  H+  H36  1  0.15355440  0.18025674  0.50651979  1
  H+  H37  1  0.14822650  0.29976094  0.01561587  1
  H+  H38  1  0.43546427  0.54120719  0.65511446  1
  H+  H39  1  0.35318745  0.18332199  0.26576643  1
  H+  H40  1  0.48482537  0.84858169  1.00324502  1
  H+  H41  1  0.30219373  0.81458952  0.26119212  1
  H+  H42  1  0.96536287  0.16682268  1.01051131  1
  H+  H43  1  0.04903683  0.18652648  0.25466613  1
  H+  H44  1  0.63615286  0.15745978  0.98169738  1
  H+  H45  1  0.49803940  0.02487327  0.25605231  1
  H+  H46  1  0.44416721  0.55905881  0.09351638  1
  H+  H47  1  0.62689618  0.48595098  0.49399051  1
  H+  H48  1  0.15163042  0.29726068  0.50328784  1
  H+  H49  1  0.51758174  0.14448906  0.48939469  1
  H+  H50  1  0.03033663  0.51123268  0.51314971  1
  H+  H51  1  0.27056447  0.12868757  0.97585519  1
  H+  H52  1  0.83991246  0.46438623  0.50086132  1
  H+  H53  1  0.56641162  0.47180960  0.35241328  1
  H+  H54  1  0.48267263  0.95979739  0.51352522  1
  H+  H55  1  0.15459693  0.84594348  0.24316349  1
  H+  H56  1  0.31778341  0.83554098  0.76100434  1
  H+  H57  1  0.37069989  0.18002514  0.50290094  1
  H+  H58  1  0.18741650  0.83351881  0.76876732  1
  H+  H59  1  0.18371810  0.69532684  0.26598924  1
  H+  H60  1  0.66761921  0.17414762  0.24332937  1
  H+  H61  1  0.36480554  0.83986035  0.51232388  1
  H+  H62  1  0.18389303  0.48261171  0.49146291  1
  H+  H63  1  0.63908810  0.83081485  0.27225157  1
  H+  H64  1  0.04271771  0.84822505  0.51611120  1
  H+  H65  1  0.91679710  0.20725016  0.28819240  1
  H+  H66  1  0.49693987  0.14486996  0.26678712  1
  H+  H67  1  0.84942373  0.13227805  0.76442466  1
  H+  H68  1  0.18601584  0.81847273  -0.01053585  1
  H+  H69  1  1.03764341  0.85001260  0.24449807  1
  H+  H70  1  0.81695705  0.28518227  0.72144950  1
  H+  H71  1  0.52605418  0.38891264  0.27019658  1
  H+  H72  1  0.03473526  0.17509672  0.76741706  1
  H+  H73  1  0.02878180  0.52472484  0.02344893  1
  H+  H74  1  0.19751465  0.37091485  0.26286552  1
  H+  H75  1  0.50037294  0.48069845  0.98449807  1
  H+  H76  1  0.85723658  0.80419182  0.50318878  1
  H+  H77  1  0.13444653  0.17393235  0.01518150  1
  H+  H78  1  0.47882491  0.50698310  0.74324761  1
  H+  H79  1  0.31096717  0.82514358  0.98695550  1
  H+  H80  1  0.84589866  0.05143217  0.99311261  1
  H+  H81  1  0.69694857  0.16924065  0.49844441  1
  H+  H82  1  1.03103659  0.51025947  0.25258144  1
  H+  H83  1  0.51469765  0.14800228  0.96459266  1
  H+  H84  1  0.78314525  0.54975412  0.66430456  1
  H+  H85  1  0.23317124  0.79100002  0.86311574  1
  H+  H86  1  0.30549396  0.47996239  0.76362268  1
  H+  H87  1  0.80332754  0.80958160  0.70013578  1
  H+  H88  1  0.86377143  0.83141409  0.27353309  1
  H+  H89  1  0.18835403  0.48338783  0.76077809  1
  H+  H90  1  0.86442364  0.69049597  0.75828777  1
  H+  H91  1  0.47955362  0.62540880  0.51412832  1
  H+  H92  1  0.19193651  1.02862966  0.49782047  1
  H+  H93  1  0.69686615  0.16978176  0.72642229  1
  H+  H94  1  0.52139738  0.15201943  0.74445120  1
  H+  H95  1  0.51881866  0.81184800  0.50410174  1
  H+  H96  1  0.86118610  0.70989610  0.27001341  1
  H+  H97  1  0.63390807  0.81754346  0.74458042  1
  H+  H98  1  0.15597648  0.63883036  0.73692219  1
  H+  H99  1  0.83027379  0.53302011  0.25399389  1
  H+  H100  1  0.83250332  0.37551793  0.00795604  1
  H+  H101  1  0.15305769  0.29784765  0.76240240  1
  H+  H102  1  0.66958697  0.78144228  0.54982769  1
  H+  H103  1  0.36023975  0.50722583  0.51096486  1
  H+  H104  1  0.47438816  0.96962350  0.73663004  1
  H+  H105  1  0.49551532  0.53609369  0.23762242  1
  H+  H106  1  0.50583036  0.47931045  0.49054579  1
  H+  H107  1  0.51440736  0.69839885  0.98301998  1
  H+  H108  1  0.92343041  0.37948283  0.82361420  1
  H+  H109  1  0.12297489  0.88782510  0.60446118  1
  H+  H110  1  0.18831778  0.48522059  0.26293975  1
  H+  H111  1  0.29301695  0.17113194  0.82273670  1
  H+  H112  1  0.48833733  0.30183214  0.49760128  1
  H+  H113  1  0.18188340  0.16360522  0.76697228  1
  H+  H114  1  0.87560266  0.46099829  0.92268023  1
  H+  H115  1  0.44473964  0.88670812  0.14889887  1
  H+  H116  1  0.54713370  0.09684571  0.40117942  1
  H+  H117  1  0.17275908  0.07676558  0.90296873  1
  H+  H118  1  0.11977407  0.22250113  0.16115730  1
  H+  H119  1  0.52307609  0.36077990  0.75442324  1
  H+  H120  1  0.77546691  0.20448176  0.58755070  1
  H+  H121  1  0.56128793  0.11091517  0.83385852  1
  H+  H122  1  0.21714660  0.44135939  0.90386971  1
  H+  H123  1  0.22877103  0.44888900  0.40202833  1
  H+  H124  1  0.71624185  0.53925024  0.24981880  1
  H+  H125  1  -0.01739371  0.15044478  0.48956072  1
  H+  H126  1  0.79216191  0.91427098  0.17331487  1
  H+  H127  1  0.14954967  0.63170005  0.50842409  1
  H+  H128  1  0.88492897  0.43528610  0.35720550  1
  H+  H129  1  0.56229982  0.77770227  0.41527837  1
  H+  H130  1  0.22490798  0.10236316  0.40636337  1
  H+  H131  1  0.10423831  0.86824488  0.10233460  1
  H+  H132  1  0.90368901  0.78580588  0.40696312  1
  H+  H133  1  0.75814529  0.22997640  0.10282145  1
  H+  H134  1  0.43574960  0.25151227  0.18489451  1
  H+  H135  1  0.54636846  0.44320134  0.89412772  1
  H+  H136  1  0.89144987  0.12850641  0.86401039  1
  H+  H137  1  0.11744159  0.56086020  0.64616038  1
  H+  H138  1  0.90919385  0.12246823  0.37453931  1
  H+  H139  1  0.42443161  0.19852814  0.05253718  1
  H+  H140  1  0.37345858  0.18385769  0.71497016  1
  H+  H141  1  0.16035481  0.97318615  0.74840391  1
  H+  H142  1  0.42820899  0.88061906  0.65164897  1
  H+  H143  1  0.69988344  0.85590548  -0.03237253  1
  O2-  O144  1  0.12856617  0.22504394  0.22874547  1
  O2-  O145  1  0.11727274  0.21441944  0.74941799  1
  O2-  O146  1  0.11222518  0.55277248  0.23095617  1
  O2-  O147  1  0.11611617  0.55927536  0.71521120  1
  O2-  O148  1  0.11618936  0.88666323  0.21656268  1
  O2-  O149  1  0.12486557  0.89141756  0.72998673  1
  O2-  O150  1  0.43786449  0.23232017  0.24828661  1
  O2-  O151  1  0.45625850  0.22531305  0.70147388  1
  O2-  O152  1  0.45374895  0.57403456  0.21248637  1
  O2-  O153  1  0.43234019  0.54050498  0.72271319  1
  O2-  O154  1  0.44224908  0.88898838  0.21653178  1
  O2-  O155  1  0.42546058  0.88596631  0.72048903  1
  O2-  O156  1  0.74946423  0.21214107  0.21970789  1
  O2-  O157  1  0.77705000  0.20425618  0.70278365  1
  O2-  O158  1  0.79831172  0.58073614  0.23245262  1
  O2-  O159  1  0.78781518  0.54588882  0.73212485  1
  O2-  O160  1  0.78946749  0.91122153  0.23954265  1
  O2-  O161  1  0.75048825  0.82981446  0.66828706  1
  O2-  O162  1  0.22249426  0.10317508  0.28798271  1
  O2-  O163  1  0.23119591  0.12065068  0.78184035  1
  O2-  O164  1  0.23621353  0.45210370  0.28386265  1
  O2-  O165  1  0.22440073  0.44298960  0.78959158  1
  O2-  O166  1  0.22312418  0.77683261  0.28692637  1
  O2-  O167  1  0.23215065  0.79334341  0.79070929  1
  O2-  O168  1  0.53896466  0.10401136  0.28296377  1
  O2-  O169  1  0.55767233  0.10694912  0.76589291  1
  O2-  O170  1  0.56784659  0.47160219  0.28398167  1
  O2-  O171  1  0.56015508  0.43744399  0.78446705  1
  O2-  O172  1  0.55758159  0.78883207  0.29122505  1
  O2-  O173  1  0.59106612  0.83304061  0.79125660  1
  O2-  O174  1  0.91357631  0.13407325  0.29715831  1
  O2-  O175  1  0.89250038  0.10455923  0.80058234  1
  O2-  O176  1  0.88857233  0.43986353  0.28945073  1
  O2-  O177  1  0.90934251  0.43033406  0.78525334  1
  O2-  O178  1  0.90532441  0.79211231  0.29364803  1
  O2-  O179  1  0.89970394  0.77392739  0.77230023  1
  O2-  O180  1  0.23238857  0.10860626  0.47384833  1
  O2-  O181  1  0.18579584  0.08343478  0.96955650  1
  O2-  O182  1  0.22641752  0.44449037  0.46993008  1
  O2-  O183  1  0.21602504  0.43766669  0.97250343  1
  O2-  O184  1  0.22562026  0.77023261  0.47268062  1
  O2-  O185  1  0.22967839  0.78296632  0.96233201  1
  O2-  O186  1  0.55327631  0.09854472  0.46887726  1
  O2-  O187  1  0.55948782  0.10971798  0.95218513  1
  O2-  O188  1  0.55046337  0.44346494  0.46483883  1
  O2-  O189  1  0.54311189  0.44061838  0.96323598  1
  O2-  O190  1  0.55789455  0.76988202  0.48270017  1
  O2-  O191  1  0.55437814  0.78049791  0.96456421  1
  O2-  O192  1  0.90116011  0.10736790  0.46250604  1
  O2-  O193  1  0.88510785  0.13608739  0.98770578  1
  O2-  O194  1  0.88452976  0.43158827  0.47675318  1
  O2-  O195  1  0.87113341  0.45967587  0.98943398  1
  O2-  O196  1  0.90678432  0.77813835  0.47509975  1
  O2-  O197  1  0.87989075  0.76600608  0.96615478  1
  O2-  O198  1  0.10460138  0.22100169  0.04276517  1
  O2-  O199  1  0.10776085  0.21625796  0.52317689  1
  O2-  O200  1  0.11011612  0.55748163  0.04099137  1
  O2-  O201  1  0.11106010  0.55224477  0.53478234  1
  O2-  O202  1  0.09956899  0.86440225  0.03366272  1
  O2-  O203  1  0.12444216  0.88755683  0.53715531  1
  O2-  O204  1  0.42298750  0.21090965  -0.01260693  1
  O2-  O205  1  0.45378601  0.22190730  0.52191015  1
  O2-  O206  1  0.44172000  0.55365937  0.02538672  1
  O2-  O207  1  0.44122746  0.54382571  0.53402828  1
  O2-  O208  1  0.44380109  0.88918417  0.02531800  1
  O2-  O209  1  0.44342398  0.88059216  0.53984543  1
  O2-  O210  1  0.76799384  0.23932493  0.03527972  1
  O2-  O211  1  0.77852615  0.21157770  0.51957323  1
  O2-  O212  1  0.75020640  0.55971395  0.02340526  1
  O2-  O213  1  0.75391874  0.58183844  0.55729586  1
  O2-  O214  1  0.78517264  0.90329721  -0.04284392  1
  O2-  O215  1  0.73035841  0.77031199  0.58023901  1
