# generated using pymatgen
data_H2O
_symmetry_space_group_name_H-M   'P 1'
_cell_length_a   13.53054254
_cell_length_b   13.52516409
_cell_length_c   14.69014299
_cell_angle_alpha   89.97392368
_cell_angle_beta   90.02049742
_cell_angle_gamma   120.04861611
_symmetry_Int_Tables_number   1
_chemical_formula_structural   H2O
_chemical_formula_sum   'H144 O72'
_cell_volume   2327.02684994
_cell_formula_units_Z   72
loop_
 _symmetry_equiv_pos_site_id
 _symmetry_equiv_pos_as_xyz
  1  'x, y, z'
loop_
 _atom_type_symbol
 _atom_type_oxidation_number
  H+  1.0
  O2-  -2.0
loop_
 _atom_site_type_symbol
 _atom_site_label
 _atom_site_symmetry_multiplicity
 _atom_site_fract_x
 _atom_site_fract_y
 _atom_site_fract_z
 _atom_site_occupancy
  H+  H0  1  0.67912053  0.50407263  0.01605264  1
  H+  H1  1  0.97181966  0.82710524  0.76127633  1
  H+  H2  1  0.82369971  0.62540343  0.23967247  1
  H+  H3  1  0.20222591  1.00113092  0.50115362  1
  H+  H4  1  0.97735448  0.80315081  0.25774011  1
  H+  H5  1  0.64349769  0.81199173  0.97787617  1
  H+  H6  1  0.88382788  0.44637422  0.34997733  1
  H+  H7  1  0.30359409  0.48867210  1.00264572  1
  H+  H8  1  0.84956395  0.70636586  0.75440795  1
  H+  H9  1  0.39010372  0.84696046  0.00059880  1
  H+  H10  1  0.71707602  0.81514760  0.24498742  1
  H+  H11  1  0.15013662  0.95963944  0.24411264  1
  H+  H12  1  0.84305013  0.03001407  0.48867750  1
  H+  H13  1  0.17984350  0.48336288  0.48144080  1
  H+  H14  1  0.69648611  0.17138576  0.50831562  1
  H+  H15  1  0.17224717  0.39914416  0.24971576  1
  H+  H16  1  0.52624902  0.16456354  0.76735791  1
  H+  H17  1  0.79555274  0.62362829  1.01337702  1
  H+  H18  1  0.10262757  0.51203509  0.73736173  1
  H+  H19  1  0.50378057  0.00696918  0.50055276  1
  H+  H20  1  0.68867538  0.49908979  0.51213112  1
  H+  H21  1  0.18760707  0.06679902  0.98058836  1
  H+  H22  1  0.31257350  0.17509341  0.98196081  1
  H+  H23  1  0.77571506  0.55964887  0.64971771  1
  H+  H24  1  0.80126794  0.18067247  0.23788789  1
  H+  H25  1  0.19049446  0.12600596  0.28105621  1
  H+  H26  1  0.43648760  0.87548412  0.63471398  1
  H+  H27  1  0.84739700  0.36718838  0.98961564  1
  H+  H28  1  0.59863171  0.85218978  0.27833932  1
  H+  H29  1  0.15377281  0.19867837  0.00371866  1
  H+  H30  1  0.84659649  0.14594963  0.75013191  1
  H+  H31  1  0.80736183  0.87036351  0.73169863  1
  H+  H32  1  0.50595647  0.17466717  0.51891749  1
  H+  H33  1  0.61501611  0.45937436  0.27402651  1
  H+  H34  1  0.18310210  0.15714697  0.73922346  1
  H+  H35  1  0.99385517  0.52217254  0.73816073  1
  H+  H36  1  0.48758145  0.18318832  1.00501607  1
  H+  H37  1  0.17149333  0.69574243  0.26196503  1
  H+  H38  1  1.03004129  0.51740599  1.00685469  1
  H+  H39  1  0.35994673  0.84079176  0.72629839  1
  H+  H40  1  0.85958034  0.79864204  0.26986229  1
  H+  H41  1  0.47997984  0.62244405  0.50259790  1
  H+  H42  1  0.84771235  0.15974935  -0.01142546  1
  H+  H43  1  0.22535338  0.80977405  1.01095775  1
  H+  H44  1  0.02909756  0.19057968  0.00255273  1
  H+  H45  1  0.85305150  0.04337096  0.97876892  1
  H+  H46  1  0.51391970  0.35060307  0.49816556  1
  H+  H47  1  0.83771807  1.03759135  0.25443893  1
  H+  H48  1  0.37504567  0.19593754  0.73345786  1
  H+  H49  1  0.32178403  0.82379514  0.49967095  1
  H+  H50  1  0.50638087  0.52962908  0.73551961  1
  H+  H51  1  0.79980896  0.84261396  0.49707072  1
  H+  H52  1  0.33991388  0.84698791  0.23230238  1
  H+  H53  1  0.80024400  0.29762628  0.23754853  1
  H+  H54  1  0.52306754  0.37052056  0.75641497  1
  H+  H55  1  0.82843778  0.48603506  0.75821736  1
  H+  H56  1  0.17115588  0.22744457  0.60103273  1
  H+  H57  1  0.83327554  0.84705123  0.98243158  1
  H+  H58  1  0.52817530  0.04153235  0.98716106  1
  H+  H59  1  0.16356774  0.83566010  0.52482485  1
  H+  H60  1  0.83764960  0.49554025  0.25023669  1
  H+  H61  1  0.09808701  0.55816717  0.15528436  1
  H+  H62  1  0.50948111  0.85635238  1.01103976  1
  H+  H63  1  0.61831219  0.14282228  0.25769617  1
  H+  H64  1  0.01498793  0.88017953  0.00461958  1
  H+  H65  1  0.14667958  0.85883925  0.75333565  1
  H+  H66  1  0.80938040  0.29493988  0.73107659  1
  H+  H67  1  0.80896141  0.50263894  0.51001317  1
  H+  H68  1  0.47325451  0.81641712  0.25835649  1
  H+  H69  1  0.49796222  0.02587605  0.25745940  1
  H+  H70  1  0.50715858  0.46789120  0.49490618  1
  H+  H71  1  0.50425435  0.53167634  0.24135591  1
  H+  H72  1  0.69725453  0.18818022  0.00199654  1
  H+  H73  1  0.17114271  0.81275648  0.26072022  1
  H+  H74  1  0.18190944  0.37062882  -0.00125292  1
  H+  H75  1  0.31120469  0.13633325  0.25534915  1
  H+  H76  1  0.50112556  0.64891032  0.23722693  1
  H+  H77  1  0.48454364  0.63223619  0.00413090  1
  H+  H78  1  0.15516890  0.63856816  0.50437430  1
  H+  H79  1  0.69758574  0.52700921  0.73966533  1
  H+  H80  1  0.94429148  0.72486805  0.95746688  1
  H+  H81  1  0.46976310  0.28822010  0.24484047  1
  H+  H82  1  0.47656907  0.17237494  0.24059255  1
  H+  H83  1  0.19284253  0.68298256  0.99187258  1
  H+  H84  1  0.38523672  0.51513627  0.74447319  1
  H+  H85  1  0.51227632  0.36218073  0.99150887  1
  H+  H86  1  0.14363251  0.52466208  0.24765585  1
  H+  H87  1  0.14928363  0.24167929  0.23647504  1
  H+  H88  1  0.84703928  0.35524606  0.48176722  1
  H+  H89  1  0.96969581  0.49280518  0.25660276  1
  H+  H90  1  0.83067012  0.68553235  0.49749946  1
  H+  H91  1  0.77312865  0.21549290  0.64286275  1
  H+  H92  1  0.14826185  0.97886249  0.74346712  1
  H+  H93  1  0.75661724  0.88154213  0.58252842  1
  H+  H94  1  0.95220194  0.15911945  0.25084927  1
  H+  H95  1  0.67795010  0.84121821  0.73091431  1
  H+  H96  1  0.50249798  0.81617952  0.75569401  1
  H+  H97  1  0.81890038  0.17719741  0.50812005  1
  H+  H98  1  0.13266178  0.89037162  -0.00231582  1
  H+  H99  1  0.44221126  0.54684710  0.59180640  1
  H+  H100  1  0.14352813  0.29058025  0.74255855  1
  H+  H101  1  0.84254100  0.48236021  0.99407058  1
  H+  H102  1  0.62373485  0.80873849  0.48363965  1
  H+  H103  1  0.47427479  0.85061839  0.50974085  1
  H+  H104  1  0.22690114  0.48672888  0.77079375  1
  H+  H105  1  0.01954279  0.17598753  0.73727462  1
  H+  H106  1  0.77474959  0.54255754  0.14949136  1
  H+  H107  1  0.14733751  0.51252897  0.01269237  1
  H+  H108  1  0.16343044  0.70326690  0.75930537  1
  H+  H109  1  0.21802112  0.46645052  0.34420430  1
  H+  H110  1  0.09823414  0.23863258  0.13829526  1
  H+  H111  1  0.56466259  0.12375004  0.89742993  1
  H+  H112  1  0.09866807  0.55682414  0.58946101  1
  H+  H113  1  0.11746312  0.88171492  0.60619617  1
  H+  H114  1  0.87088968  0.44409811  0.84573905  1
  H+  H115  1  0.46330613  0.23100220  0.65140593  1
  H+  H116  1  0.38566759  0.16751113  0.51736006  1
  H+  H117  1  0.54840934  0.09597978  0.41229636  1
  H+  H118  1  0.56022001  0.44779166  0.84707757  1
  H+  H119  1  0.24093679  0.44116428  0.86557608  1
  H+  H120  1  0.24627771  0.07872530  0.40939269  1
  H+  H121  1  0.63806336  0.15322439  0.76287694  1
  H+  H122  1  0.88764397  0.11583881  0.40625991  1
  H+  H123  1  0.55393399  0.77916466  0.89557791  1
  H+  H124  1  0.43054394  0.88784211  0.14551017  1
  H+  H125  1  0.46222846  0.56453914  0.09726886  1
  H+  H126  1  0.44365796  0.21799732  0.09488086  1
  H+  H127  1  0.96480939  0.47785628  0.48189058  1
  H+  H128  1  0.82681825  0.90088115  0.07406170  1
  H+  H129  1  0.53648412  0.42227350  0.36207463  1
  H+  H130  1  0.51049422  0.48104656  0.99219775  1
  H+  H131  1  0.77193705  0.22477809  0.09324212  1
  H+  H132  1  0.89227175  0.76889569  0.87484328  1
  H+  H133  1  0.23047404  0.77891052  0.41227000  1
  H+  H134  1  0.09948091  0.89256018  0.15063454  1
  H+  H135  1  0.51455026  0.70389011  0.76231849  1
  H+  H136  1  0.22956874  0.13472235  0.83144958  1
  H+  H137  1  0.23111396  0.18550105  0.53192544  1
  H+  H138  1  0.28897854  0.46864855  0.47805187  1
  H+  H139  1  0.69798862  0.86551084  0.15776888  1
  H+  H140  1  0.53010210  0.76600030  0.40373749  1
  H+  H141  1  0.22230963  0.77695259  0.84822402  1
  H+  H142  1  0.89131197  0.12128477  0.84176740  1
  H+  H143  1  0.89097017  0.76406960  0.41315615  1
  O2-  O144  1  0.08788960  0.24615186  0.20605348  1
  O2-  O145  1  0.10192377  0.21423483  0.71518600  1
  O2-  O146  1  0.09162689  0.55740101  0.22286065  1
  O2-  O147  1  0.07677227  0.56348157  0.71664121  1
  O2-  O148  1  0.10149190  0.88082790  0.21691095  1
  O2-  O149  1  0.10246768  0.89476882  0.73017795  1
  O2-  O150  1  0.43374595  0.21046364  0.21580194  1
  O2-  O151  1  0.45838586  0.23699039  0.71965744  1
  O2-  O152  1  0.51526344  0.59540222  0.20153296  1
  O2-  O153  1  0.46021033  0.56471805  0.71542709  1
  O2-  O154  1  0.42293421  0.88971917  0.21308166  1
  O2-  O155  1  0.43647662  0.86278884  0.70396680  1
  O2-  O156  1  0.75984483  0.21929290  0.21309670  1
  O2-  O157  1  0.77273827  0.21440112  0.71141994  1
  O2-  O158  1  0.78205347  0.54275424  0.21851481  1
  O2-  O159  1  0.77917960  0.56827526  0.71788250  1
  O2-  O160  1  0.75553568  0.88140631  0.20455194  1
  O2-  O161  1  0.74532864  0.86050135  0.69203137  1
  O2-  O162  1  0.23191943  0.08476449  0.28363739  1
  O2-  O163  1  0.22792743  0.12190329  0.76507891  1
  O2-  O164  1  0.21415066  0.47671809  0.27486349  1
  O2-  O165  1  0.24816197  0.43446825  0.79767023  1
  O2-  O166  1  0.21610734  0.77735317  0.28159369  1
  O2-  O167  1  0.21057486  0.78258062  0.78253257  1
  O2-  O168  1  0.53905910  0.10557768  0.28190279  1
  O2-  O169  1  0.56460245  0.12601822  0.79579184  1
  O2-  O170  1  0.53458344  0.42161393  0.29258513  1
  O2-  O171  1  0.56473791  0.45207755  0.77959979  1
  O2-  O172  1  0.52263346  0.78528604  0.28292672  1
  O2-  O173  1  0.54659990  0.78207897  0.78826441  1
  O2-  O174  1  0.87301876  0.11697622  0.27567021  1
  O2-  O175  1  0.89209761  0.11289492  0.77516551  1
  O2-  O176  1  0.88483958  0.45209891  0.27931793  1
  O2-  O177  1  0.86867934  0.44379626  0.77804058  1
  O2-  O178  1  0.89596495  0.75315263  0.28002583  1
  O2-  O179  1  0.89002124  0.78310471  0.78518634  1
  O2-  O180  1  0.25423287  0.08190948  0.47586664  1
  O2-  O181  1  0.23308387  0.14564689  0.95775897  1
  O2-  O182  1  0.21535599  0.44592715  0.44757739  1
  O2-  O183  1  0.22387234  0.45189418  0.97692740  1
  O2-  O184  1  0.23270902  0.77104275  0.47873354  1
  O2-  O185  1  0.24309803  0.76471161  0.96965667  1
  O2-  O186  1  0.55621457  0.09519276  0.47891025  1
  O2-  O187  1  0.56360484  0.12277172  0.96858122  1
  O2-  O188  1  0.55061939  0.43016080  0.47194804  1
  O2-  O189  1  0.55462717  0.44389510  0.97079615  1
  O2-  O190  1  0.53970256  0.76056589  0.46973836  1
  O2-  O191  1  0.56116700  0.77593751  0.96513457  1
  O2-  O192  1  0.88601543  0.11317732  0.47302996  1
  O2-  O193  1  0.89458946  0.12607842  0.96576159  1
  O2-  O194  1  0.88467532  0.43593056  0.45679020  1
  O2-  O195  1  0.88746069  0.44909237  0.96850881  1
  O2-  O196  1  0.86157523  0.76421150  0.47389259  1
  O2-  O197  1  0.89781961  0.76120997  0.95096885  1
  O2-  O198  1  0.10822438  0.23206905  0.02973778  1
  O2-  O199  1  0.23982854  0.25381783  0.56357491  1
  O2-  O200  1  0.10929779  0.55669901  0.03250441  1
  O2-  O201  1  0.10353940  0.55494010  0.52261943  1
  O2-  O202  1  0.09388920  0.92375081  0.03061971  1
  O2-  O203  1  0.12543158  0.88072043  0.53953577  1
  O2-  O204  1  0.44583114  0.22311701  0.02712380  1
  O2-  O205  1  0.46637919  0.21784876  0.53887594  1
  O2-  O206  1  0.44346914  0.55338897  0.03014066  1
  O2-  O207  1  0.44171776  0.54118433  0.52443162  1
  O2-  O208  1  0.46501565  0.89402555  0.03073869  1
  O2-  O209  1  0.43511401  0.89173758  0.52969156  1
  O2-  O210  1  0.77883658  0.22859594  0.02560410  1
  O2-  O211  1  0.77857172  0.22050483  0.52734005  1
  O2-  O212  1  0.76115005  0.54620947  0.03984462  1
  O2-  O213  1  0.76918963  0.54118066  0.53574284  1
  O2-  O214  1  0.80240966  0.89218691  0.01045932  1
  O2-  O215  1  0.76089788  0.88648280  0.51402885  1
