# generated using pymatgen
data_H2O
_symmetry_space_group_name_H-M   'P 1'
_cell_length_a   13.51162332
_cell_length_b   13.51924226
_cell_length_c   14.70576890
_cell_angle_alpha   90.01567987
_cell_angle_beta   89.95521518
_cell_angle_gamma   119.84523734
_symmetry_Int_Tables_number   1
_chemical_formula_structural   H2O
_chemical_formula_sum   'H144 O72'
_cell_volume   2329.98583013
_cell_formula_units_Z   72
loop_
 _symmetry_equiv_pos_site_id
 _symmetry_equiv_pos_as_xyz
  1  'x, y, z'
loop_
 _atom_type_symbol
 _atom_type_oxidation_number
  H+  1.0
  O2-  -2.0
loop_
 _atom_site_type_symbol
 _atom_site_label
 _atom_site_symmetry_multiplicity
 _atom_site_fract_x
 _atom_site_fract_y
 _atom_site_fract_z
 _atom_site_occupancy
  H+  H0  1  0.14517986  0.93357699  0.00145301  1
  H+  H1  1  0.76338856  0.71612699  0.43881522  1
  H+  H2  1  0.45590974  0.28411806  0.74369056  1
  H+  H3  1  0.62456840  0.82107293  0.99031174  1
  H+  H4  1  0.30488186  0.13796271  0.48185347  1
  H+  H5  1  0.81482221  -0.01220930  0.50996697  1
  H+  H6  1  1.07750631  0.89187348  0.73004510  1
  H+  H7  1  0.31076514  0.48135834  1.02036368  1
  H+  H8  1  0.83562954  0.34543580  0.26036917  1
  H+  H9  1  0.18412017  0.69805327  0.26433137  1
  H+  H10  1  0.14976499  0.96262635  0.23029582  1
  H+  H11  1  0.81733246  0.98152516  0.23409367  1
  H+  H12  1  0.50814910  0.65483460  0.23644184  1
  H+  H13  1  0.76228517  0.88561853  0.10105896  1
  H+  H14  1  0.50880249  0.70187887  0.98818317  1
  H+  H15  1  0.18569124  0.81749934  0.48188254  1
  H+  H16  1  0.50958497  0.14196393  0.23949615  1
  H+  H17  1  0.38004140  0.53240764  0.50835851  1
  H+  H18  1  0.44680959  0.23609457  0.14701591  1
  H+  H19  1  0.13010353  0.88662093  0.63504403  1
  H+  H20  1  0.79793987  0.18757784  1.01618667  1
  H+  H21  1  0.91744848  0.18154605  0.44835536  1
  H+  H22  1  0.20414927  0.36988555  0.05603731  1
  H+  H23  1  0.79338464  -0.03314767  1.01408056  1
  H+  H24  1  0.97360362  0.47281054  0.47571631  1
  H+  H25  1  0.81110640  0.17454535  0.23202361  1
  H+  H26  1  0.50387762  0.48947789  0.48894318  1
  H+  H27  1  0.86951172  0.55180283  0.77422884  1
  H+  H28  1  0.15328746  -0.03095322  0.49252286  1
  H+  H29  1  0.46519739  0.29494342  0.50950710  1
  H+  H30  1  0.19683978  0.82730065  0.74931571  1
  H+  H31  1  0.87595073  0.11117811  0.91445174  1
  H+  H32  1  0.51976044  0.48055638  0.75771671  1
  H+  H33  1  0.85179591  0.83996802  0.99133127  1
  H+  H34  1  0.81717129  0.85649884  0.23323290  1
  H+  H35  1  0.81612401  0.31208693  1.01731016  1
  H+  H36  1  0.64513760  0.83348548  0.25786406  1
  H+  H37  1  0.80541829  0.15088733  0.50120566  1
  H+  H38  1  0.21879823  0.11510836  0.98993708  1
  H+  H39  1  0.97219089  0.81409421  0.25030096  1
  H+  H40  1  0.61460268  0.15010795  0.77125389  1
  H+  H41  1  0.47045911  0.14950394  0.98274524  1
  H+  H42  1  0.31162368  0.49171442  0.74184449  1
  H+  H43  1  0.63980368  0.83168668  0.48788258  1
  H+  H44  1  0.77267149  0.22818034  0.14899444  1
  H+  H45  1  1.03381523  0.85275885  0.49458023  1
  H+  H46  1  0.74386932  0.51554461  0.57762133  1
  H+  H47  1  0.87173431  0.48859004  0.50965295  1
  H+  H48  1  0.86359938  0.38756779  0.76771846  1
  H+  H49  1  0.27095609  0.14381462  0.74669132  1
  H+  H50  1  0.14490709  0.19139769  0.72307847  1
  H+  H51  1  0.39407199  0.26316540  0.01531758  1
  H+  H52  1  0.63268279  0.47693968  0.26190098  1
  H+  H53  1  0.14609320  0.33752685  0.26022312  1
  H+  H54  1  0.87552668  0.86002959  0.75372733  1
  H+  H55  1  0.51883794  0.81289043  0.75974979  1
  H+  H56  1  0.19328703  0.14681711  0.47848037  1
  H+  H57  1  0.50752865  0.14701969  0.50677759  1
  H+  H58  1  0.07006757  0.19758444  0.48600007  1
  H+  H59  1  0.15354989  0.63467012  0.46367784  1
  H+  H60  1  0.69562993  0.85193091  0.74474501  1
  H+  H61  1  0.48560768  -0.02971349  0.22081480  1
  H+  H62  1  0.13485856  0.49340432  0.26104270  1
  H+  H63  1  0.80340219  0.18993606  0.75996337  1
  H+  H64  1  0.47278100  0.85285597  0.99777900  1
  H+  H65  1  0.50395922  0.63720926  0.74210164  1
  H+  H66  1  0.01949970  0.83130199  0.00712811  1
  H+  H67  1  0.81205455  0.50360601  0.25274031  1
  H+  H68  1  0.83297429  0.51294668  1.02161450  1
  H+  H69  1  1.11148380  0.55266159  0.37930238  1
  H+  H70  1  0.85466130  0.02271205  0.76653532  1
  H+  H71  1  0.19217202  0.37940305  0.73173200  1
  H+  H72  1  0.31470270  0.82170424  0.75709673  1
  H+  H73  1  0.02881051  0.05373029  0.06617779  1
  H+  H74  1  0.94194096  0.13212473  1.00829056  1
  H+  H75  1  0.29276299  0.14669151  0.24571912  1
  H+  H76  1  0.23515015  0.78952964  0.39299189  1
  H+  H77  1  0.01647517  0.50109506  0.26293022  1
  H+  H78  1  0.36421431  0.84507761  0.51012689  1
  H+  H79  1  0.48370605  0.84696888  0.50870143  1
  H+  H80  1  0.10705791  0.54708689  0.12463253  1
  H+  H81  1  0.90776102  0.76311226  0.76870916  1
  H+  H82  1  0.21054915  0.38242781  0.48695246  1
  H+  H83  1  0.36970518  0.84882900  0.22853055  1
  H+  H84  1  0.44275503  0.01768027  0.98031956  1
  H+  H85  1  0.82108487  0.87156296  0.51430949  1
  H+  H86  1  0.80056369  0.29703971  0.53060688  1
  H+  H87  1  0.47623623  0.29974860  0.24073221  1
  H+  H88  1  0.30386925  0.07313456  0.94901603  1
  H+  H89  1  0.52431595  0.35062482  1.01133949  1
  H+  H90  1  0.50595707  0.53741592  0.00987241  1
  H+  H91  1  0.48341649  0.96390897  0.73792593  1
  H+  H92  1  0.50827418  0.09711877  0.84254507  1
  H+  H93  1  0.30356029  0.82043244  0.97847707  1
  H+  H94  1  0.67472297  0.50725386  0.99842879  1
  H+  H95  1  0.99075267  0.49859805  0.75409937  1
  H+  H96  1  0.97109894  0.07980142  0.81764240  1
  H+  H97  1  0.20091584  0.49493669  0.46694052  1
  H+  H98  1  0.45733832  0.16717273  0.73563814  1
  H+  H99  1  0.98642161  0.48544931  1.01080719  1
  H+  H100  1  0.61058427  0.47056672  0.47603717  1
  H+  H101  1  0.83706216  0.69114865  0.50640056  1
  H+  H102  1  0.61426500  0.44269554  0.74951641  1
  H+  H103  1  0.06842056  0.16557877  0.12256712  1
  H+  H104  1  0.18534619  0.81641592  0.25324649  1
  H+  H105  1  0.17056895  0.80336063  -0.02268255  1
  H+  H106  1  0.03203754  0.19928690  0.71264214  1
  H+  H107  1  0.22109252  0.42964031  0.33668446  1
  H+  H108  1  0.14821557  0.63441428  0.72482110  1
  H+  H109  1  0.19284244  0.10015129  0.83315615  1
  H+  H110  1  0.77560551  0.59019875  0.79369706  1
  H+  H111  1  0.58884555  0.46650087  0.90824344  1
  H+  H112  1  0.52374177  0.82848618  0.25451380  1
  H+  H113  1  0.76369041  0.22456567  0.66984999  1
  H+  H114  1  0.56346631  0.79033862  0.39619542  1
  H+  H115  1  0.11592008  0.16182385  0.25209342  1
  H+  H116  1  0.67452584  0.17978735  0.53350357  1
  H+  H117  1  0.78330681  0.54527238  0.10895563  1
  H+  H118  1  0.46730472  0.57668291  0.09963526  1
  H+  H119  1  0.50059325  0.64914619  0.50547879  1
  H+  H120  1  0.91770287  0.45811605  0.91543661  1
  H+  H121  1  0.10813669  0.87394362  0.14541642  1
  H+  H122  1  0.54016907  0.43773982  0.34271483  1
  H+  H123  1  0.22924997  0.78684410  0.87255338  1
  H+  H124  1  0.81762518  0.62603082  0.24678737  1
  H+  H125  1  0.86741184  0.41911143  0.35395321  1
  H+  H126  1  0.22069078  0.09938837  0.33666319  1
  H+  H127  1  0.15312931  0.50414424  1.04356844  1
  H+  H128  1  0.84014670  0.59858937  0.64081488  1
  H+  H129  1  0.43117220  0.88555572  0.08943987  1
  H+  H130  1  0.89455112  0.77850893  0.33910175  1
  H+  H131  1  0.62854884  0.14322983  0.24129841  1
  H+  H132  1  0.12631402  0.23031261  0.58482000  1
  H+  H133  1  0.47005284  0.56495226  0.64944850  1
  H+  H134  1  0.51344197  0.03125280  0.50940756  1
  H+  H135  1  0.55665943  0.77652595  0.85129608  1
  H+  H136  1  0.50248529  0.53305020  0.23319737  1
  H+  H137  1  0.91409100  0.83512638  0.89961740  1
  H+  H138  1  0.98568916  0.15344535  0.24839767  1
  H+  H139  1  0.77234625  0.90197414  0.65310451  1
  H+  H140  1  0.44583090  0.88133418  0.65076402  1
  H+  H141  1  0.15183631  0.51956506  0.72025099  1
  H+  H142  1  0.42468986  0.21681400  0.59991456  1
  H+  H143  1  0.84913515  0.08936859  0.32781409  1
  O2-  O144  1  0.07493937  0.19983396  0.22825872  1
  O2-  O145  1  0.11080988  0.23382937  0.68955771  1
  O2-  O146  1  0.10185237  0.54793866  0.25903412  1
  O2-  O147  1  0.10374765  0.55470301  0.70425962  1
  O2-  O148  1  0.10945935  0.87948712  0.21330857  1
  O2-  O149  1  0.14371593  0.89208375  0.70142700  1
  O2-  O150  1  0.43444480  0.22145422  0.21343377  1
  O2-  O151  1  0.41623647  0.20774448  0.71464686  1
  O2-  O152  1  0.47173109  0.57923340  0.20611135  1
  O2-  O153  1  0.46983047  0.55794288  0.71700518  1
  O2-  O154  1  0.44656550  0.88653878  0.20000501  1
  O2-  O155  1  0.44787159  0.88218302  0.71932088  1
  O2-  O156  1  0.77407421  0.22250298  0.21791503  1
  O2-  O157  1  0.76436673  0.22989294  0.73858102  1
  O2-  O158  1  0.77134004  0.54389260  0.23036005  1
  O2-  O159  1  0.84189087  0.60833592  0.75603900  1
  O2-  O160  1  0.77390115  0.89310129  0.21200511  1
  O2-  O161  1  0.77608325  0.89811754  0.72070884  1
  O2-  O162  1  0.21279173  0.09963930  0.26930309  1
  O2-  O163  1  0.19279653  0.12034322  0.76882580  1
  O2-  O164  1  0.19149737  0.42102797  0.27425255  1
  O2-  O165  1  0.22933801  0.45898417  0.75355925  1
  O2-  O166  1  0.22947586  0.78105498  0.27823229  1
  O2-  O167  1  0.23336261  0.78499864  0.77988966  1
  O2-  O168  1  0.54548368  0.09595423  0.25526885  1
  O2-  O169  1  0.53018521  0.10248170  0.77704794  1
  O2-  O170  1  0.54878372  0.43845964  0.27585079  1
  O2-  O171  1  0.54768241  0.42920131  0.78473973  1
  O2-  O172  1  0.56537496  0.79327912  0.28420832  1
  O2-  O173  1  0.56180727  0.77537929  0.78263422  1
  O2-  O174  1  0.86701186  0.09575418  0.26302434  1
  O2-  O175  1  0.91325142  0.09730853  0.79559603  1
  O2-  O176  1  0.87427786  0.42665581  0.28702771  1
  O2-  O177  1  0.91330400  0.46703005  0.78816447  1
  O2-  O178  1  0.89093408  0.77408980  0.27252209  1
  O2-  O179  1  0.93492979  0.84479145  0.77971463  1
  O2-  O180  1  0.22522182  0.09894509  0.45578120  1
  O2-  O181  1  0.22500996  0.06293134  0.94734709  1
  O2-  O182  1  0.25226305  0.46136774  0.46274313  1
  O2-  O183  1  0.22609792  0.43377897  1.01488357  1
  O2-  O184  1  0.22970361  0.78054742  0.46109747  1
  O2-  O185  1  0.22490941  0.78120619  0.94710091  1
  O2-  O186  1  0.55716784  0.11383491  0.49439752  1
  O2-  O187  1  0.43681722  0.07831629  0.94594657  1
  O2-  O188  1  0.52928476  0.43472211  0.46372248  1
  O2-  O189  1  0.59096296  0.47288050  0.97502487  1
  O2-  O190  1  0.56048872  0.78458374  0.46507559  1
  O2-  O191  1  0.54542881  0.78237328  0.96365860  1
  O2-  O192  1  0.84546658  0.11559501  0.46585157  1
  O2-  O193  1  0.86547007  0.10847765  0.98108503  1
  O2-  O194  1  0.88797832  0.43292090  0.48012895  1
  O2-  O195  1  0.90737725  0.45074028  0.98206138  1
  O2-  O196  1  0.83964554  0.75163512  0.46560161  1
  O2-  O197  1  0.90691637  0.81871806  0.96564226  1
  O2-  O198  1  0.06241701  0.13568441  0.05761199  1
  O2-  O199  1  0.14362219  0.23540079  0.51647182  1
  O2-  O200  1  0.10910535  0.54361474  0.05808424  1
  O2-  O201  1  0.11370528  0.55144073  0.44734107  1
  O2-  O202  1  0.10099442  0.85554484  0.02789399  1
  O2-  O203  1  0.11244227  0.88725375  0.51551214  1
  O2-  O204  1  0.46638710  0.26800947  0.03090504  1
  O2-  O205  1  0.42941700  0.21518911  0.53184252  1
  O2-  O206  1  0.45892009  0.57077705  0.03033093  1
  O2-  O207  1  0.46162981  0.56926793  0.53048310  1
  O2-  O208  1  0.42574948  0.88658870  0.02038302  1
  O2-  O209  1  0.44272076  0.88370090  0.53684443  1
  O2-  O210  1  0.76410554  0.23293192  0.03931132  1
  O2-  O211  1  0.75817769  0.21927162  0.55752845  1
  O2-  O212  1  0.78879427  0.55038649  0.04169207  1
  O2-  O213  1  0.82194504  0.57912792  0.57454560  1
  O2-  O214  1  0.75892734  0.88508680  0.03219174  1
  O2-  O215  1  0.77929397  0.90925531  0.53658454  1
