# generated using pymatgen
data_H2O
_symmetry_space_group_name_H-M   'P 1'
_cell_length_a   13.50831122
_cell_length_b   13.52273003
_cell_length_c   14.68545658
_cell_angle_alpha   89.97446359
_cell_angle_beta   90.00077966
_cell_angle_gamma   119.95154424
_symmetry_Int_Tables_number   1
_chemical_formula_structural   H2O
_chemical_formula_sum   'H144 O72'
_cell_volume   2324.31675044
_cell_formula_units_Z   72
loop_
 _symmetry_equiv_pos_site_id
 _symmetry_equiv_pos_as_xyz
  1  'x, y, z'
loop_
 _atom_type_symbol
 _atom_type_oxidation_number
  H+  1.0
  O2-  -2.0
loop_
 _atom_site_type_symbol
 _atom_site_label
 _atom_site_symmetry_multiplicity
 _atom_site_fract_x
 _atom_site_fract_y
 _atom_site_fract_z
 _atom_site_occupancy
  H+  H0  1  1.01285932  0.18024785  1.00426950  1
  H+  H1  1  0.70225601  0.84383967  0.52243346  1
  H+  H2  1  0.43651540  0.57577435  0.11064455  1
  H+  H3  1  0.48571523  0.51758739  0.24362289  1
  H+  H4  1  0.18270728  0.00592344  0.48271638  1
  H+  H5  1  0.04417115  0.53739217  0.00846370  1
  H+  H6  1  0.64367186  0.48417311  0.76171076  1
  H+  H7  1  0.48639197  0.95943033  0.74668164  1
  H+  H8  1  0.89199172  0.78893043  0.65617068  1
  H+  H9  1  0.81801461  0.30342731  0.24313748  1
  H+  H10  1  0.78342184  0.29643375  1.01655352  1
  H+  H11  1  0.17875464  0.70333004  0.25604467  1
  H+  H12  1  0.45452591  0.22376894  0.08956022  1
  H+  H13  1  0.15768988  0.83757688  0.50414615  1
  H+  H14  1  0.93644630  0.37896316  0.96378232  1
  H+  H15  1  0.81030045  0.50909315  0.50631860  1
  H+  H16  1  0.83754832  0.82269630  0.00847836  1
  H+  H17  1  0.52382369  0.70472399  0.48833481  1
  H+  H18  1  0.49253918  0.85294591  0.50308918  1
  H+  H19  1  0.17537196  0.39935681  0.27868145  1
  H+  H20  1  0.51796800  0.03181707  0.49131835  1
  H+  H21  1  0.97177417  0.15575692  0.76228596  1
  H+  H22  1  0.52379379  0.69311626  0.74937868  1
  H+  H23  1  0.37328141  0.18242353  0.23125248  1
  H+  H24  1  0.50481298  0.15247464  0.81663986  1
  H+  H25  1  0.31009435  0.81943759  0.98094086  1
  H+  H26  1  0.89807888  0.44016055  0.89311638  1
  H+  H27  1  0.84766191  0.81543749  0.26352571  1
  H+  H28  1  0.30830874  0.81357328  0.48695712  1
  H+  H29  1  0.18265021  0.14972655  0.99610218  1
  H+  H30  1  0.63076419  0.48488088  0.26539892  1
  H+  H31  1  0.85323501  0.16028261  0.25570584  1
  H+  H32  1  0.96424174  0.81191499  0.26238713  1
  H+  H33  1  0.67106450  0.17722561  1.00598617  1
  H+  H34  1  0.14953182  0.18774586  0.73549157  1
  H+  H35  1  0.81782859  0.96706799  0.23264213  1
  H+  H36  1  0.51044108  0.36318333  0.49783739  1
  H+  H37  1  0.62769368  0.48137010  0.49389473  1
  H+  H38  1  0.48712339  -0.03175415  0.25856840  1
  H+  H39  1  0.85760671  0.49247752  0.76044209  1
  H+  H40  1  0.47548802  0.51288984  0.51089935  1
  H+  H41  1  0.49676065  0.30395327  0.75294173  1
  H+  H42  1  0.48233479  0.96373760  -0.02016856  1
  H+  H43  1  0.84663406  0.37048496  0.76116361  1
  H+  H44  1  0.39196460  0.64393198  0.05560449  1
  H+  H45  1  0.14108265  0.08958390  0.45550452  1
  H+  H46  1  0.81823465  0.51007538  0.01926517  1
  H+  H47  1  0.17438541  0.48527746  -0.00848048  1
  H+  H48  1  0.81383702  0.63518498  0.24907127  1
  H+  H49  1  0.96420309  0.48734730  0.25658507  1
  H+  H50  1  0.36293378  0.18544003  1.00799298  1
  H+  H51  1  0.51538814  0.35936649  0.99245060  1
  H+  H52  1  0.15712704  0.51733685  0.73794316  1
  H+  H53  1  0.76610257  0.21842385  0.15782792  1
  H+  H54  1  0.19144564  0.69883391  0.75467616  1
  H+  H55  1  0.71151426  0.83960155  1.00035527  1
  H+  H56  1  0.84565001  0.13582012  0.75095961  1
  H+  H57  1  0.36967609  0.84357158  0.73797889  1
  H+  H58  1  0.15299956  0.84781187  0.00595444  1
  H+  H59  1  0.97037277  0.15161661  0.25146731  1
  H+  H60  1  0.81362987  0.62887587  0.51046416  1
  H+  H61  1  0.70052191  0.50977966  0.01372651  1
  H+  H62  1  0.67982015  0.18782468  0.77546129  1
  H+  H63  1  0.18035757  0.12619967  0.24517803  1
  H+  H64  1  0.69215489  0.16877705  0.50311708  1
  H+  H65  1  1.02531831  0.51627197  0.50946118  1
  H+  H66  1  0.53489770  0.70855965  0.97941374  1
  H+  H67  1  0.48686745  0.30488028  0.23728002  1
  H+  H68  1  0.85250808  0.81340654  0.50111061  1
  H+  H69  1  0.83313980  0.15803555  0.99340260  1
  H+  H70  1  1.03793691  0.83869180  0.50846553  1
  H+  H71  1  0.85458685  0.69396249  0.00130179  1
  H+  H72  1  0.16372171  0.26523697  0.21389638  1
  H+  H73  1  0.03767346  0.51630300  0.74092729  1
  H+  H74  1  0.83147335  0.96117931  0.78838249  1
  H+  H75  1  0.85026539  0.15823698  0.48022485  1
  H+  H76  1  0.16523508  0.65330673  1.00608328  1
  H+  H77  1  0.18881105  0.03532334  1.00002009  1
  H+  H78  1  0.04862811  0.85096953  0.72974448  1
  H+  H79  1  0.14196773  0.83656301  0.23880338  1
  H+  H80  1  0.52356537  0.82662734  0.26587971  1
  H+  H81  1  0.18629421  0.04013579  0.74038472  1
  H+  H82  1  0.63701387  0.15543857  0.26839830  1
  H+  H83  1  0.36570433  0.17612925  0.52168656  1
  H+  H84  1  0.84547969  0.36097494  0.48610345  1
  H+  H85  1  0.15386811  0.32907238  0.50855819  1
  H+  H86  1  0.14554765  -0.04495931  0.23320320  1
  H+  H87  1  0.09447438  0.19330191  0.12956839  1
  H+  H88  1  0.45069915  0.88968101  0.59215992  1
  H+  H89  1  0.69894220  0.85048593  0.23744943  1
  H+  H90  1  0.30078102  0.15886796  0.75290073  1
  H+  H91  1  0.18507503  0.36918515  0.76171882  1
  H+  H92  1  0.16502335  0.21917060  0.52461295  1
  H+  H93  1  0.50067181  0.15547632  -0.03796251  1
  H+  H94  1  0.52157891  0.48080174  0.99296159  1
  H+  H95  1  0.49757520  0.85505213  0.98127924  1
  H+  H96  1  -0.01791462  0.17360038  0.47853655  1
  H+  H97  1  0.44476613  0.56118629  0.59864427  1
  H+  H98  1  0.52038736  0.15855423  0.26310352  1
  H+  H99  1  0.84380947  0.48347318  0.26149343  1
  H+  H100  1  0.82418041  0.63256190  0.72947321  1
  H+  H101  1  0.30229755  0.49804152  0.49815373  1
  H+  H102  1  0.37224086  0.52819177  0.24936856  1
  H+  H103  1  0.37081794  0.85029320  0.25164068  1
  H+  H104  1  0.15169906  0.53595620  0.24204731  1
  H+  H105  1  0.28717727  0.47882791  0.99522894  1
  H+  H106  1  0.13620546  0.29420955  0.00818436  1
  H+  H107  1  0.18035760  0.49800261  0.49791620  1
  H+  H108  1  0.37083860  0.51307793  0.74351313  1
  H+  H109  1  0.88936960  0.77620183  0.40877442  1
  H+  H110  1  0.77385559  0.20587158  0.59027798  1
  H+  H111  1  0.11170201  0.56802821  0.14862538  1
  H+  H112  1  0.18703919  0.69530252  0.48983488  1
  H+  H113  1  0.22400665  0.44943087  0.84908396  1
  H+  H114  1  0.55713942  0.11723465  0.40525450  1
  H+  H115  1  0.22996047  0.47705721  0.36348806  1
  H+  H116  1  0.52689844  0.70873721  0.26070574  1
  H+  H117  1  0.13308699  0.88948471  0.64738830  1
  H+  H118  1  0.21936386  0.77800697  0.34722760  1
  H+  H119  1  0.71286702  0.84264243  0.78019588  1
  H+  H120  1  0.78089042  0.87473159  0.09920459  1
  H+  H121  1  0.90051314  0.12940124  0.37802042  1
  H+  H122  1  0.57692641  0.77861976  0.88578787  1
  H+  H123  1  0.10843599  0.87879120  0.09718775  1
  H+  H124  1  0.87907056  0.12601716  0.90356567  1
  H+  H125  1  0.86018092  0.81737489  0.75197681  1
  H+  H126  1  0.22529901  0.77759482  0.89642863  1
  H+  H127  1  0.52529618  0.81346700  0.74838322  1
  H+  H128  1  0.10223891  0.23636938  0.65770815  1
  H+  H129  1  0.97506174  0.81597279  0.99821546  1
  H+  H130  1  0.68098086  0.25711579  0.69271979  1
  H+  H131  1  0.76961861  0.87233935  0.61585130  1
  H+  H132  1  0.45756065  0.21493779  0.67083173  1
  H+  H133  1  0.48886794  0.51098473  0.74120794  1
  H+  H134  1  0.56482595  0.44577870  0.85126252  1
  H+  H135  1  0.57059536  0.78601160  0.40076295  1
  H+  H136  1  0.77416186  0.55525468  0.16039979  1
  H+  H137  1  0.22764056  0.09460333  0.33460430  1
  H+  H138  1  0.19592312  0.81993886  0.75524791  1
  H+  H139  1  0.77595137  0.54242981  0.65014716  1
  H+  H140  1  0.10496581  0.55569550  0.59990428  1
  H+  H141  1  0.54745534  0.44111300  0.35199167  1
  H+  H142  1  0.48445053  0.17923051  0.51797682  1
  H+  H143  1  0.88521258  0.44166543  0.39822901  1
  O2-  O144  1  0.10073441  0.18925626  0.20008097  1
  O2-  O145  1  0.10570226  0.23061292  0.72443293  1
  O2-  O146  1  0.10358111  0.56581692  0.21663267  1
  O2-  O147  1  0.11623900  0.55718143  0.71472736  1
  O2-  O148  1  0.09834431  0.87356442  0.21436937  1
  O2-  O149  1  0.13190623  0.89172638  0.71529630  1
  O2-  O150  1  0.45456705  0.22645920  0.21118546  1
  O2-  O151  1  0.46151057  0.22062590  0.73828836  1
  O2-  O152  1  0.44927862  0.56243282  0.22147447  1
  O2-  O153  1  0.44997882  0.55233881  0.71780664  1
  O2-  O154  1  0.45394921  0.88775036  0.23940083  1
  O2-  O155  1  0.45117821  0.88578069  0.71506862  1
  O2-  O156  1  0.77930043  0.22089610  0.22483744  1
  O2-  O157  1  0.73020853  0.23422779  0.72421305  1
  O2-  O158  1  0.77216427  0.55353761  0.22814540  1
  O2-  O159  1  0.78192233  0.54790054  0.71831613  1
  O2-  O160  1  0.77953511  0.88683699  0.21222536  1
  O2-  O161  1  0.79658541  0.87704260  0.78853999  1
  O2-  O162  1  0.22981736  0.09595364  0.26686068  1
  O2-  O163  1  0.21718699  0.12339018  0.74762177  1
  O2-  O164  1  0.22973616  0.47820540  0.29424252  1
  O2-  O165  1  0.22867539  0.45121949  0.78124738  1
  O2-  O166  1  0.22000767  0.78338174  0.27939503  1
  O2-  O167  1  0.23563738  0.77860165  0.77818597  1
  O2-  O168  1  0.55771800  0.11879917  0.29276710  1
  O2-  O169  1  0.54766372  0.11393346  0.83972689  1
  O2-  O170  1  0.54841212  0.44354286  0.28387431  1
  O2-  O171  1  0.56259966  0.44404336  0.78346883  1
  O2-  O172  1  0.56991221  0.78829989  0.28383762  1
  O2-  O173  1  0.56536708  0.77376067  0.77204567  1
  O2-  O174  1  0.89384022  0.12008087  0.28151001  1
  O2-  O175  1  0.89067526  0.11093066  0.78568876  1
  O2-  O176  1  0.88478059  0.44239054  0.28150973  1
  O2-  O177  1  0.89653335  0.44978361  0.78330735  1
  O2-  O178  1  0.88515196  0.77400040  0.28914418  1
  O2-  O179  1  0.89900603  0.77737994  0.72096218  1
  O2-  O180  1  0.21121155  0.08563849  0.45643963  1
  O2-  O181  1  0.23307379  0.11763671  0.98462095  1
  O2-  O182  1  0.22164129  0.45826445  0.47330157  1
  O2-  O183  1  0.20889571  0.43896234  0.96953840  1
  O2-  O184  1  0.22727750  0.77468011  0.46497843  1
  O2-  O185  1  0.22588989  0.77929095  0.96454215  1
  O2-  O186  1  0.56052304  0.11486613  0.47407937  1
  O2-  O187  1  0.54426022  0.11538331  0.94094051  1
  O2-  O188  1  0.54662310  0.44180223  0.47221895  1
  O2-  O189  1  0.56250038  0.44256648  0.97203398  1
  O2-  O190  1  0.56766710  0.78615200  0.46921188  1
  O2-  O191  1  0.58327620  0.78597836  0.95414262  1
  O2-  O192  1  0.90232036  0.13122194  0.45155736  1
  O2-  O193  1  0.88553104  0.13266534  0.97076248  1
  O2-  O194  1  0.88466145  0.44185434  0.46672746  1
  O2-  O195  1  0.90340767  0.42888424  0.96121196  1
  O2-  O196  1  0.89328481  0.77392454  0.47681978  1
  O2-  O197  1  0.89096292  0.77481799  0.98037342  1
  O2-  O198  1  0.09457343  0.21269232  0.02727921  1
  O2-  O199  1  0.10966130  0.24546027  0.52885997  1
  O2-  O200  1  0.12306159  0.57223476  0.03207829  1
  O2-  O201  1  0.10617226  0.55663801  0.53138939  1
  O2-  O202  1  0.10859452  0.88366286  0.02906357  1
  O2-  O203  1  0.11986228  0.88058175  0.52809484  1
  O2-  O204  1  0.44912471  0.22585380  0.02172777  1
  O2-  O205  1  0.44477795  0.21847448  0.54433405  1
  O2-  O206  1  0.42070876  0.59111340  0.04627624  1
  O2-  O207  1  0.43926152  0.55841717  0.53063121  1
  O2-  O208  1  0.44675156  0.88403664  0.00071336  1
  O2-  O209  1  0.44902477  0.89097959  0.52439264  1
  O2-  O210  1  0.74502244  0.21742508  0.03951211  1
  O2-  O211  1  0.77606236  0.20724870  0.52339765  1
  O2-  O212  1  0.78015238  0.55197438  0.03899462  1
  O2-  O213  1  0.77007693  0.54791311  0.53207339  1
  O2-  O214  1  0.78828437  0.86951536  0.03116868  1
  O2-  O215  1  0.77968597  0.87337367  0.54992624  1
