# generated using pymatgen
data_H2O
_symmetry_space_group_name_H-M   'P 1'
_cell_length_a   13.51297184
_cell_length_b   13.51385714
_cell_length_c   14.67603835
_cell_angle_alpha   89.95806128
_cell_angle_beta   90.04536768
_cell_angle_gamma   120.00526899
_symmetry_Int_Tables_number   1
_chemical_formula_structural   H2O
_chemical_formula_sum   'H144 O72'
_cell_volume   2320.84659698
_cell_formula_units_Z   72
loop_
 _symmetry_equiv_pos_site_id
 _symmetry_equiv_pos_as_xyz
  1  'x, y, z'
loop_
 _atom_type_symbol
 _atom_type_oxidation_number
  H+  1.0
  O2-  -2.0
loop_
 _atom_site_type_symbol
 _atom_site_label
 _atom_site_symmetry_multiplicity
 _atom_site_fract_x
 _atom_site_fract_y
 _atom_site_fract_z
 _atom_site_occupancy
  H+  H0  1  0.36547418  0.49889870  0.02562980  1
  H+  H1  1  0.97241937  0.15248949  0.49612240  1
  H+  H2  1  0.84506054  0.32270376  0.50592986  1
  H+  H3  1  0.81393448  0.49919826  0.50734273  1
  H+  H4  1  0.92228932  0.78733702  0.76767712  1
  H+  H5  1  0.89779733  0.11800200  0.34475040  1
  H+  H6  1  0.96988687  0.47314820  0.51548703  1
  H+  H7  1  0.36553195  0.17679332  0.24949963  1
  H+  H8  1  1.03732858  0.18790047  1.01176428  1
  H+  H9  1  0.47312160  0.82988847  1.03794276  1
  H+  H10  1  0.51816708  0.47169351  0.77459937  1
  H+  H11  1  0.03763175  0.51114603  0.01383240  1
  H+  H12  1  0.18348901  0.02970392  0.26072994  1
  H+  H13  1  0.70315952  0.87332094  0.48975829  1
  H+  H14  1  0.12629344  0.83710855  0.72888067  1
  H+  H15  1  0.22874277  0.11309133  0.85219703  1
  H+  H16  1  0.14248427  0.15625526  0.51258623  1
  H+  H17  1  0.43438936  0.56980242  0.47596543  1
  H+  H18  1  0.85885787  1.03222150  0.26002087  1
  H+  H19  1  0.71239671  0.84382923  0.23625284  1
  H+  H20  1  0.51521495  0.12880657  0.74938783  1
  H+  H21  1  0.17665482  0.36320856  0.76386444  1
  H+  H22  1  0.21206894  0.78959508  0.74999479  1
  H+  H23  1  0.47745975  0.50118323  0.17191368  1
  H+  H24  1  0.36553146  0.74933333  0.09681330  1
  H+  H25  1  0.63551722  0.46618858  1.00063568  1
  H+  H26  1  0.86355098  1.04664791  0.75748651  1
  H+  H27  1  0.47847857  0.28206268  0.50342251  1
  H+  H28  1  0.14846616  0.82700784  0.51109485  1
  H+  H29  1  0.25571732  0.44456299  0.48215849  1
  H+  H30  1  0.51892362  0.73533205  0.21694935  1
  H+  H31  1  0.70348505  0.18425522  0.24479661  1
  H+  H32  1  0.89975594  0.44568438  0.90017747  1
  H+  H33  1  0.61551799  0.79150953  0.80077468  1
  H+  H34  1  0.70670298  0.17873699  0.73329936  1
  H+  H35  1  0.78680605  0.84221406  0.73711649  1
  H+  H36  1  0.83011888  0.18858761  0.73693226  1
  H+  H37  1  0.18034019  0.14320785  0.99472728  1
  H+  H38  1  0.14197555  0.95781530  0.00763978  1
  H+  H39  1  0.55501121  0.09548388  0.84082673  1
  H+  H40  1  1.07372611  0.92225695  0.69347845  1
  H+  H41  1  0.13053516  0.49968280  0.70344851  1
  H+  H42  1  0.49579262  0.28643090  0.74213390  1
  H+  H43  1  0.09535295  0.54703645  0.16556318  1
  H+  H44  1  0.85436077  0.36629177  0.74749453  1
  H+  H45  1  0.81872992  0.50435642  0.01368916  1
  H+  H46  1  0.82782848  0.04916573  0.97821933  1
  H+  H47  1  0.15285318  0.87304850  0.77170298  1
  H+  H48  1  0.88039070  0.95653831  0.03504188  1
  H+  H49  1  0.85772340  0.36731069  0.99040743  1
  H+  H50  1  0.21343719  0.76459967  0.36705856  1
  H+  H51  1  0.79532207  0.22751458  0.59947165  1
  H+  H52  1  0.68716553  0.48914581  0.75648729  1
  H+  H53  1  0.49765029  0.83431680  0.74753481  1
  H+  H54  1  0.14482392  0.84093079  1.00518965  1
  H+  H55  1  0.16168077  0.66092475  0.52790095  1
  H+  H56  1  0.14355899  0.32919674  0.48615586  1
  H+  H57  1  0.80681504  0.61631343  0.75756570  1
  H+  H58  1  0.97110487  0.48155368  0.27276514  1
  H+  H59  1  0.52397334  0.03836708  0.27212954  1
  H+  H60  1  0.54542890  0.43796602  0.32027849  1
  H+  H61  1  1.04762280  0.18979864  0.74304503  1
  H+  H62  1  0.49326038  0.96021155  0.74325962  1
  H+  H63  1  0.49437801  0.67740777  0.78531598  1
  H+  H64  1  0.18716912  0.37859609  0.25524274  1
  H+  H65  1  0.82178139  0.18222126  0.23947799  1
  H+  H66  1  0.96922402  0.48919577  0.73485281  1
  H+  H67  1  0.63563492  0.14586900  0.49124518  1
  H+  H68  1  0.83509609  0.68622077  0.49084723  1
  H+  H69  1  0.28355988  0.77544131  0.50678370  1
  H+  H70  1  0.84832402  1.03981721  0.48798347  1
  H+  H71  1  0.85130148  0.68937077  0.26185436  1
  H+  H72  1  0.81364972  0.61899917  0.01745041  1
  H+  H73  1  0.45173568  0.21164266  0.65018176  1
  H+  H74  1  0.54043849  0.74379073  0.44783761  1
  H+  H75  1  0.29488710  0.13368242  0.49435551  1
  H+  H76  1  0.16804632  0.19091510  0.74738496  1
  H+  H77  1  0.89681599  0.92916240  0.68869466  1
  H+  H78  1  0.84035746  0.80778773  0.48674838  1
  H+  H79  1  0.48302166  0.29742057  0.23609757  1
  H+  H80  1  0.18003439  1.01118204  0.48921261  1
  H+  H81  1  0.15986968  0.18453788  0.23953947  1
  H+  H82  1  0.19146277  0.82433933  0.28147570  1
  H+  H83  1  0.70615829  0.19793874  0.01526122  1
  H+  H84  1  0.18752162  0.36496477  0.99455549  1
  H+  H85  1  0.63517701  0.47955921  0.24130232  1
  H+  H86  1  0.81999114  0.50786067  0.25312941  1
  H+  H87  1  0.78358630  0.23143932  0.10709238  1
  H+  H88  1  0.84096725  0.18447499  0.50683147  1
  H+  H89  1  0.50694836  0.44708987  0.46325952  1
  H+  H90  1  0.13778743  0.50955555  0.25300350  1
  H+  H91  1  0.20275341  0.67222252  0.72551400  1
  H+  H92  1  0.83225843  0.84673865  0.24791999  1
  H+  H93  1  0.15168458  0.62974203  0.01480530  1
  H+  H94  1  0.29468366  0.13579149  0.00012642  1
  H+  H95  1  0.37371033  0.86774739  0.27330494  1
  H+  H96  1  0.84768390  0.79565611  1.00062886  1
  H+  H97  1  0.30836707  0.14818258  0.76374904  1
  H+  H98  1  0.36906253  0.82315081  0.73341210  1
  H+  H99  1  0.65810332  0.84453216  0.01492097  1
  H+  H100  1  0.47523426  0.96758874  0.50100078  1
  H+  H101  1  0.62887101  0.45599322  0.47144970  1
  H+  H102  1  0.51564018  0.15830857  -0.00953590  1
  H+  H103  1  0.51990577  0.84684407  0.46677262  1
  H+  H104  1  0.47771108  0.16539374  0.51145401  1
  H+  H105  1  0.04198654  0.18524759  0.23734416  1
  H+  H106  1  0.33978093  0.50071607  0.77180933  1
  H+  H107  1  0.85079757  0.36229849  0.27591140  1
  H+  H108  1  0.77670532  0.89946144  0.58300300  1
  H+  H109  1  0.82287126  0.49474273  0.74729107  1
  H+  H110  1  0.45470934  0.88770563  0.58683583  1
  H+  H111  1  0.76204795  0.53004573  0.59148991  1
  H+  H112  1  0.22689540  0.75939667  0.89944103  1
  H+  H113  1  0.80300673  0.88607284  0.11862301  1
  H+  H114  1  0.86398826  0.74327867  0.86485598  1
  H+  H115  1  0.90335402  0.43792319  0.41094274  1
  H+  H116  1  0.78592758  0.54471530  0.15877930  1
  H+  H117  1  0.89771983  0.12854814  0.84574877  1
  H+  H118  1  0.43614590  0.20197780  0.11200891  1
  H+  H119  1  0.56165760  0.11460193  0.39958612  1
  H+  H120  1  0.42136473  0.50062731  0.56372425  1
  H+  H121  1  0.11394703  0.20923255  0.60280384  1
  H+  H122  1  0.07567380  1.02456772  0.64587065  1
  H+  H123  1  0.52550306  0.15858810  0.26810528  1
  H+  H124  1  0.55877419  0.43107738  0.86272498  1
  H+  H125  1  0.44362496  0.89701470  0.18149832  1
  H+  H126  1  0.20442035  0.44108633  0.85438992  1
  H+  H127  1  0.55367815  0.75982897  0.95451136  1
  H+  H128  1  0.11765176  0.22231877  0.10064580  1
  H+  H129  1  0.47349299  0.28232900  0.02348085  1
  H+  H130  1  1.03196250  0.84523395  0.24526014  1
  H+  H131  1  0.85240529  0.17399460  0.99115197  1
  H+  H132  1  0.29274911  0.79955736  0.99474282  1
  H+  H133  1  0.11045962  0.88199098  0.15678992  1
  H+  H134  1  0.19483324  0.43356006  0.35112795  1
  H+  H135  1  0.22033467  0.10467983  0.35146981  1
  H+  H136  1  0.56102833  0.79660973  0.31204373  1
  H+  H137  1  0.42258314  0.55769945  0.68977714  1
  H+  H138  1  0.96753377  0.79958222  0.99099217  1
  H+  H139  1  0.88855119  0.76741739  0.35144569  1
  H+  H140  1  0.18970829  0.48453067  0.99936907  1
  H+  H141  1  0.03489913  0.83435437  0.50503970  1
  H+  H142  1  0.51589510  0.46404484  1.00253884  1
  H+  H143  1  0.60905906  0.23690899  0.92328737  1
  O2-  O144  1  0.12087861  0.22384533  0.21214858  1
  O2-  O145  1  0.12732946  0.22980137  0.71952102  1
  O2-  O146  1  0.08794280  0.54173136  0.23235795  1
  O2-  O147  1  0.09708522  0.54874506  0.68810663  1
  O2-  O148  1  0.11299988  0.88895737  0.22402179  1
  O2-  O149  1  0.02356273  0.95124240  0.67388385  1
  O2-  O150  1  0.44497298  0.21309425  0.22371481  1
  O2-  O151  1  0.45770996  0.20729138  0.71848084  1
  O2-  O152  1  0.43700385  0.53905654  0.14552975  1
  O2-  O153  1  0.42569908  0.54189832  0.75412930  1
  O2-  O154  1  0.45439279  0.90744500  0.24782611  1
  O2-  O155  1  0.45821340  0.87667565  0.71824718  1
  O2-  O156  1  0.78300995  0.22490985  0.21890833  1
  O2-  O157  1  0.78669476  0.22584346  0.71154608  1
  O2-  O158  1  0.78166983  0.54845526  0.22645236  1
  O2-  O159  1  0.77004151  0.53342303  0.73125636  1
  O2-  O160  1  0.79687102  0.89112380  0.22198044  1
  O2-  O161  1  0.81653461  0.91278504  0.70152342  1
  O2-  O162  1  0.22519376  0.11046844  0.28353667  1
  O2-  O163  1  0.22913812  0.11964566  0.78452048  1
  O2-  O164  1  0.21348999  0.45269953  0.28541306  1
  O2-  O165  1  0.20856941  0.44395711  0.78590917  1
  O2-  O166  1  0.24349010  0.80026767  0.30733475  1
  O2-  O167  1  0.25305676  0.74698124  0.75892024  1
  O2-  O168  1  0.56964938  0.12250123  0.29178371  1
  O2-  O169  1  0.55349286  0.08539099  0.77317350  1
  O2-  O170  1  0.55087084  0.44122617  0.25297150  1
  O2-  O171  1  0.56249318  0.43467468  0.79333717  1
  O2-  O172  1  0.57988898  0.76055497  0.26190603  1
  O2-  O173  1  0.53342950  0.76212539  0.79860079  1
  O2-  O174  1  0.89661894  0.11482931  0.27732060  1
  O2-  O175  1  0.90133489  0.12784207  0.77757402  1
  O2-  O176  1  0.88986371  0.44011310  0.30339894  1
  O2-  O177  1  0.89188908  0.44857274  0.76677208  1
  O2-  O178  1  0.89112946  0.77071732  0.28333048  1
  O2-  O179  1  0.84903074  0.73453427  0.79586570  1
  O2-  O180  1  0.21487308  0.09439059  0.47110289  1
  O2-  O181  1  0.21646358  0.09857868  0.97270672  1
  O2-  O182  1  0.17505909  0.40905452  0.46542082  1
  O2-  O183  1  0.22926705  0.44556748  0.97166827  1
  O2-  O184  1  0.20173155  0.73438446  0.49135452  1
  O2-  O185  1  0.21618474  0.76871177  0.96432088  1
  O2-  O186  1  0.55625494  0.10632699  0.46917935  1
  O2-  O187  1  0.57742247  0.16051640  0.94947837  1
  O2-  O188  1  0.55102019  0.40994294  0.44487952  1
  O2-  O189  1  0.55556756  0.42496837  0.97533606  1
  O2-  O190  1  0.57432685  0.82535953  0.43732616  1
  O2-  O191  1  0.58465078  0.83059536  0.98933374  1
  O2-  O192  1  0.89248512  0.12362428  0.47117242  1
  O2-  O193  1  0.88521958  0.12783447  0.96322479  1
  O2-  O194  1  0.89430109  0.42889191  0.48122075  1
  O2-  O195  1  0.89785912  0.44805329  0.96725019  1
  O2-  O196  1  0.88001365  0.76589391  0.46852346  1
  O2-  O197  1  0.88413660  0.75474316  0.97178613  1
  O2-  O198  1  0.11769219  0.22270972  0.03139603  1
  O2-  O199  1  0.09860688  0.19313622  0.53621161  1
  O2-  O200  1  0.11698776  0.55019205  0.03801078  1
  O2-  O201  1  0.08106850  0.53872606  0.58714476  1
  O2-  O202  1  0.10064567  0.87616609  0.02894341  1
  O2-  O203  1  0.11536692  0.87671780  0.52512220  1
  O2-  O204  1  0.43410365  0.20080378  0.04284701  1
  O2-  O205  1  0.43857645  0.20634959  0.53530633  1
  O2-  O206  1  0.44664795  0.52990530  0.04625013  1
  O2-  O207  1  0.41384298  0.49393671  0.49780678  1
  O2-  O208  1  0.40121082  0.82247864  0.06476649  1
  O2-  O209  1  0.44040599  0.88564927  0.52115557  1
  O2-  O210  1  0.78610152  0.23485087  0.03778928  1
  O2-  O211  1  0.79858522  0.22944907  0.53031936  1
  O2-  O212  1  0.77362032  0.53807232  0.03928250  1
  O2-  O213  1  0.76632656  0.53351408  0.52472808  1
  O2-  O214  1  0.80756565  0.88785446  0.04783306  1
  O2-  O215  1  0.78170748  0.90301109  0.51549259  1
