# generated using pymatgen
data_H2O
_symmetry_space_group_name_H-M   'P 1'
_cell_length_a   13.54347277
_cell_length_b   13.51785497
_cell_length_c   14.70924079
_cell_angle_alpha   89.99826710
_cell_angle_beta   90.08971676
_cell_angle_gamma   120.03641275
_symmetry_Int_Tables_number   1
_chemical_formula_structural   H2O
_chemical_formula_sum   'H144 O72'
_cell_volume   2331.30205077
_cell_formula_units_Z   72
loop_
 _symmetry_equiv_pos_site_id
 _symmetry_equiv_pos_as_xyz
  1  'x, y, z'
loop_
 _atom_type_symbol
 _atom_type_oxidation_number
  H+  1.0
  O2-  -2.0
loop_
 _atom_site_type_symbol
 _atom_site_label
 _atom_site_symmetry_multiplicity
 _atom_site_fract_x
 _atom_site_fract_y
 _atom_site_fract_z
 _atom_site_occupancy
  H+  H0  1  0.81877666  0.79747344  0.25695651  1
  H+  H1  1  0.16363076  0.51836550  0.01156837  1
  H+  H2  1  0.02504266  0.16517481  0.50143283  1
  H+  H3  1  0.17063164  1.02804268  0.48496875  1
  H+  H4  1  0.33200134  0.83399133  0.23836605  1
  H+  H5  1  0.15183485  0.29262856  0.49936497  1
  H+  H6  1  0.85235970  0.36498577  0.76110255  1
  H+  H7  1  0.80654230  0.31166638  0.23557360  1
  H+  H8  1  0.62450900  0.45942795  0.51711839  1
  H+  H9  1  0.18279899  0.15439135  0.99471800  1
  H+  H10  1  0.62260441  0.49018920  0.28024269  1
  H+  H11  1  -0.10666955  0.42877017  0.40906044  1
  H+  H12  1  0.78467668  0.61675264  0.23607625  1
  H+  H13  1  0.35467801  0.84279562  -0.00072870  1
  H+  H14  1  0.73081730  0.21737767  -0.01239305  1
  H+  H15  1  0.82632236  0.47023495  0.25953021  1
  H+  H16  1  0.15376887  0.31188050  0.76034578  1
  H+  H17  1  0.79506091  0.84210993  0.75640683  1
  H+  H18  1  0.17725111  0.45645693  0.49654527  1
  H+  H19  1  0.12367344  0.95516466  0.23558184  1
  H+  H20  1  0.46620013  0.28782098  0.25498219  1
  H+  H21  1  0.82148925  0.51371015  0.74642645  1
  H+  H22  1  0.67581509  0.52451243  1.01743277  1
  H+  H23  1  0.50479136  0.16403182  1.00196685  1
  H+  H24  1  0.93352149  0.81680798  0.78389487  1
  H+  H25  1  0.84396286  0.33356102  0.00674921  1
  H+  H26  1  0.47748468  0.59750888  0.50607827  1
  H+  H27  1  0.44658433  0.86474977  0.53011971  1
  H+  H28  1  0.03914067  0.18666377  0.00963525  1
  H+  H29  1  0.62961852  0.81964762  0.75416613  1
  H+  H30  1  0.80633458  0.83864154  0.01059880  1
  H+  H31  1  0.49473081  0.67966899  0.25129926  1
  H+  H32  1  0.47052869  0.96363274  -0.00333100  1
  H+  H33  1  0.29059629  0.14356020  0.49311211  1
  H+  H34  1  0.68217079  0.17971279  0.22678364  1
  H+  H35  1  0.56583809  0.53514379  0.34864818  1
  H+  H36  1  0.47590708  0.48019762  0.52508467  1
  H+  H37  1  0.31224931  0.48622932  0.98851593  1
  H+  H38  1  0.09637236  0.82480519  0.23167577  1
  H+  H39  1  0.02499719  0.17377906  0.23944605  1
  H+  H40  1  0.48016960  0.17851387  0.24194093  1
  H+  H41  1  0.81971655  0.18700652  0.74719470  1
  H+  H42  1  0.58492628  0.12596256  1.04709905  1
  H+  H43  1  0.54611975  0.09407636  0.49572469  1
  H+  H44  1  0.55241879  0.79918011  0.58447084  1
  H+  H45  1  0.33889794  0.50434951  0.23660133  1
  H+  H46  1  0.19641850  0.69531704  0.76329533  1
  H+  H47  1  0.88502294  0.52261754  0.98093151  1
  H+  H48  1  0.29652621  0.45654497  0.49081510  1
  H+  H49  1  0.94702587  0.47248892  0.25566669  1
  H+  H50  1  0.86416777  0.34758360  0.49581621  1
  H+  H51  1  0.14094182  0.84319099  0.00145363  1
  H+  H52  1  -0.00727741  0.50396394  -0.01014812  1
  H+  H53  1  0.14774397  0.59366851  0.53117049  1
  H+  H54  1  0.49344882  0.84505631  0.22071003  1
  H+  H55  1  0.54119401  0.40335438  0.43188547  1
  H+  H56  1  0.14912057  0.86301408  0.49535233  1
  H+  H57  1  -0.02907181  0.81159397  0.48464081  1
  H+  H58  1  0.50686447  0.53772675  0.02741199  1
  H+  H59  1  0.89611012  0.10092817  0.34756760  1
  H+  H60  1  0.86100825  0.15479894  0.99303215  1
  H+  H61  1  0.42746359  0.12502717  0.55057238  1
  H+  H62  1  0.69463920  0.84885313  -0.00003089  1
  H+  H63  1  0.16662071  0.35287314  0.25702069  1
  H+  H64  1  0.03148177  0.51215591  0.75018264  1
  H+  H65  1  0.21000751  0.09604206  0.34384195  1
  H+  H66  1  0.18235427  0.72593446  0.44633618  1
  H+  H67  1  0.61310702  0.22259151  0.44505320  1
  H+  H68  1  0.77494349  0.23660324  0.13585760  1
  H+  H69  1  0.52450901  1.02872928  0.24433983  1
  H+  H70  1  0.51525116  0.70274151  0.98093610  1
  H+  H71  1  0.86141875  0.14085574  0.50084195  1
  H+  H72  1  0.52478934  0.16565566  0.77265258  1
  H+  H73  1  0.51173638  0.81997344  0.97619025  1
  H+  H74  1  -0.03847020  0.79673878  -0.00821347  1
  H+  H75  1  0.13159604  0.61745267  0.24221684  1
  H+  H76  1  0.13093400  0.49932750  0.24612091  1
  H+  H77  1  0.72134404  0.83424133  0.51597300  1
  H+  H78  1  0.85146118  1.02465465  0.25874376  1
  H+  H79  1  0.63712538  0.47955875  0.75565876  1
  H+  H80  1  0.85217079  0.03168084  0.99337282  1
  H+  H81  1  0.49489859  0.69212507  0.74823366  1
  H+  H82  1  0.19233971  0.36794479  0.99358453  1
  H+  H83  1  0.72533313  0.17893764  0.50653611  1
  H+  H84  1  0.47662256  0.30475781  0.75204539  1
  H+  H85  1  0.14456753  0.17656347  0.23740782  1
  H+  H86  1  0.86320773  1.02176487  0.49785186  1
  H+  H87  1  0.83940968  0.84096536  0.51542081  1
  H+  H88  1  0.77783445  0.88425384  0.65952752  1
  H+  H89  1  0.18255860  -0.00718171  0.73556858  1
  H+  H90  1  0.81079422  0.62710182  0.75086355  1
  H+  H91  1  0.45777365  0.50559487  0.23799889  1
  H+  H92  1  0.22280444  0.77526615  0.90159912  1
  H+  H93  1  0.35269474  0.53103413  0.74198799  1
  H+  H94  1  0.24430322  0.82897211  0.75385961  1
  H+  H95  1  0.70330188  0.19199750  0.74619934  1
  H+  H96  1  0.30275320  0.16556067  0.77030245  1
  H+  H97  1  0.17361139  0.47771848  0.76667548  1
  H+  H98  1  0.79776623  0.62425634  0.51513016  1
  H+  H99  1  0.36991229  0.20488954  1.00999698  1
  H+  H100  1  1.02905611  0.18146266  0.75871614  1
  H+  H101  1  0.15360677  0.16768370  0.49555426  1
  H+  H102  1  0.18259410  0.69961017  0.99302489  1
  H+  H103  1  0.28610080  0.13024421  0.25457388  1
  H+  H104  1  0.25560838  0.88766396  0.23687896  1
  H+  H105  1  0.46574263  0.26043663  0.53274416  1
  H+  H106  1  0.15815995  0.18442000  0.76102827  1
  H+  H107  1  0.85249276  0.03470920  0.76325614  1
  H+  H108  1  0.54798746  0.46491652  0.83135627  1
  H+  H109  1  0.68630993  0.84020951  0.23449648  1
  H+  H110  1  0.11408024  0.22500460  0.10050499  1
  H+  H111  1  0.89659680  0.44790123  0.84932250  1
  H+  H112  1  0.57127010  0.13210792  0.85808312  1
  H+  H113  1  0.54682672  0.77787421  0.84626593  1
  H+  H114  1  0.76768210  0.88166537  0.14758707  1
  H+  H115  1  0.93440146  0.79757688  0.25071911  1
  H+  H116  1  0.78886099  0.21305552  0.60497836  1
  H+  H117  1  0.53555720  0.76317740  0.33700837  1
  H+  H118  1  0.70295708  0.51889905  0.16215803  1
  H+  H119  1  0.59269530  0.86857232  0.49420703  1
  H+  H120  1  0.45505354  0.88712991  0.13004121  1
  H+  H121  1  0.02499952  0.48044290  0.51320771  1
  H+  H122  1  0.43359763  0.56152307  0.65263929  1
  H+  H123  1  0.12466789  0.90237015  0.59156618  1
  H+  H124  1  0.18283592  0.03583808  0.98979743  1
  H+  H125  1  0.20894850  0.43019740  0.34701320  1
  H+  H126  1  0.43875111  0.56677596  0.09667120  1
  H+  H127  1  0.89304184  0.11071501  0.85414073  1
  H+  H128  1  0.43843637  0.23190221  0.10286963  1
  H+  H129  1  0.56343644  0.40322647  1.03911352  1
  H+  H130  1  0.09328753  0.88158379  0.08660790  1
  H+  H131  1  0.33920658  0.88025579  0.48965258  1
  H+  H132  1  0.22407807  0.44420718  0.85435565  1
  H+  H133  1  0.85582887  0.75629912  0.86761197  1
  H+  H134  1  0.85817695  0.64332484  0.07238904  1
  H+  H135  1  0.10683701  0.53412878  0.66165940  1
  H+  H136  1  0.88229159  0.76762016  0.39944829  1
  H+  H137  1  0.42298745  0.21127084  0.67228013  1
  H+  H138  1  0.11471186  0.55048440  0.09998945  1
  H+  H139  1  0.23546436  0.81623142  0.36782113  1
  H+  H140  1  0.10453367  0.85863297  0.73922883  1
  H+  H141  1  0.21716309  0.11550212  0.85610747  1
  H+  H142  1  0.76604556  0.55296355  0.60776918  1
  H+  H143  1  0.57220918  0.11138453  0.33490996  1
  O2-  O144  1  0.10695151  0.21940551  0.21627489  1
  O2-  O145  1  0.11362802  0.22619967  0.74062968  1
  O2-  O146  1  0.08954348  0.53823299  0.22088756  1
  O2-  O147  1  0.11277795  0.54732859  0.72850682  1
  O2-  O148  1  0.07462863  0.87786673  0.20605523  1
  O2-  O149  1  0.16493288  0.91977661  0.70383987  1
  O2-  O150  1  0.43427205  0.21445678  0.22314659  1
  O2-  O151  1  0.42958162  0.21990407  0.73959666  1
  O2-  O152  1  0.42008416  0.54689375  0.21387684  1
  O2-  O153  1  0.42936935  0.58482499  0.71594939  1
  O2-  O154  1  0.46004918  0.89193629  0.19863015  1
  O2-  O155  1  0.46821397  1.02082288  0.55849317  1
  O2-  O156  1  0.76565629  0.23090981  0.20458889  1
  O2-  O157  1  0.78356756  0.22844589  0.72052746  1
  O2-  O158  1  0.74121283  0.53222862  0.22222889  1
  O2-  O159  1  0.77619492  0.54936324  0.72488025  1
  O2-  O160  1  0.76731625  0.87807358  0.21534931  1
  O2-  O161  1  0.76347092  0.88678207  0.72590005  1
  O2-  O162  1  0.20568322  0.08904917  0.27598970  1
  O2-  O163  1  0.21758078  0.12106316  0.78759628  1
  O2-  O164  1  0.20466947  0.43457632  0.27956096  1
  O2-  O165  1  0.21745738  0.43818881  0.78602778  1
  O2-  O166  1  0.25390734  0.81871882  0.25933635  1
  O2-  O167  1  0.24641582  0.77086043  0.79215704  1
  O2-  O168  1  0.56144110  0.10985713  0.26627226  1
  O2-  O169  1  0.57575281  0.13639464  0.79173244  1
  O2-  O170  1  0.54742942  0.46876459  0.31055499  1
  O2-  O171  1  0.55360912  0.44300095  0.76954187  1
  O2-  O172  1  0.54150982  0.76244967  0.27097619  1
  O2-  O173  1  0.54704232  0.77918140  0.77614527  1
  O2-  O174  1  0.89745260  0.10444767  0.28052284  1
  O2-  O175  1  0.89749636  0.11475972  0.78584159  1
  O2-  O176  1  0.86615660  0.42801779  0.27733411  1
  O2-  O177  1  0.89453209  0.44706136  0.78171952  1
  O2-  O178  1  0.85684970  0.75333788  0.27750096  1
  O2-  O179  1  0.85369407  0.76720000  0.79979094  1
  O2-  O180  1  0.21393580  0.10894302  0.46092747  1
  O2-  O181  1  0.22525561  0.11690168  0.96990716  1
  O2-  O182  1  0.21652387  0.41798971  0.46697307  1
  O2-  O183  1  0.23082343  0.44785415  0.96885508  1
  O2-  O184  1  0.22138576  0.80815550  0.43616584  1
  O2-  O185  1  0.21763039  0.77966113  0.97013950  1
  O2-  O186  1  0.60721729  0.14772459  0.44169994  1
  O2-  O187  1  0.54600559  0.11991042  0.98978527  1
  O2-  O188  1  0.54059432  0.40447315  0.49880754  1
  O2-  O189  1  0.60839689  0.48474840  1.05734431  1
  O2-  O190  1  0.53244029  0.79703592  0.52027306  1
  O2-  O191  1  0.55416166  0.78142628  0.95364177  1
  O2-  O192  1  0.90242922  0.10163756  0.47460682  1
  O2-  O193  1  0.89677579  0.11163086  0.96965504  1
  O2-  O194  1  0.90829333  0.42852116  0.47442350  1
  O2-  O195  1  0.91090145  0.46749480  0.96810116  1
  O2-  O196  1  0.88859365  0.77081281  0.46705698  1
  O2-  O197  1  0.87466136  0.75114744  0.97862730  1
  O2-  O198  1  0.11938329  0.22825251  0.03218327  1
  O2-  O199  1  0.11105527  0.20862256  0.52070636  1
  O2-  O200  1  0.12216144  0.55829199  0.03274351  1
  O2-  O201  1  0.10522837  0.51233770  0.54434881  1
  O2-  O202  1  0.09497687  0.88012566  0.01899589  1
  O2-  O203  1  0.10795728  0.89793296  0.52470861  1
  O2-  O204  1  0.44878324  0.24263051  0.03592760  1
  O2-  O205  1  0.40407590  0.18456276  0.55483463  1
  O2-  O206  1  0.45413052  0.56861101  0.03015119  1
  O2-  O207  1  0.43417860  0.52381250  0.53668964  1
  O2-  O208  1  0.43834155  0.88329896  0.01687880  1
  O2-  O209  1  0.42547439  0.91798354  0.49940515  1
  O2-  O210  1  0.79960188  0.25031913  0.02573367  1
  O2-  O211  1  0.80090017  0.21068415  0.53776691  1
  O2-  O212  1  0.83768912  0.63193614  0.00719383  1
  O2-  O213  1  0.74895113  0.54788450  0.54153429  1
  O2-  O214  1  0.77275119  0.88630523  0.02736986  1
  O2-  O215  1  0.79764957  0.88033990  0.54170701  1
