# generated using pymatgen
data_H2O
_symmetry_space_group_name_H-M   'P 1'
_cell_length_a   13.51063721
_cell_length_b   13.52442058
_cell_length_c   14.70198748
_cell_angle_alpha   89.96402825
_cell_angle_beta   90.11630383
_cell_angle_gamma   119.93805565
_symmetry_Int_Tables_number   1
_chemical_formula_structural   H2O
_chemical_formula_sum   'H144 O72'
_cell_volume   2327.93573994
_cell_formula_units_Z   72
loop_
 _symmetry_equiv_pos_site_id
 _symmetry_equiv_pos_as_xyz
  1  'x, y, z'
loop_
 _atom_type_symbol
 _atom_type_oxidation_number
  H+  1.0
  O2-  -2.0
loop_
 _atom_site_type_symbol
 _atom_site_label
 _atom_site_symmetry_multiplicity
 _atom_site_fract_x
 _atom_site_fract_y
 _atom_site_fract_z
 _atom_site_occupancy
  H+  H0  1  0.88007098  0.11441476  0.83262682  1
  H+  H1  1  0.54874030  0.77473134  0.89518801  1
  H+  H2  1  0.84646211  0.81494438  0.97745669  1
  H+  H3  1  0.49476105  0.11140954  0.97601305  1
  H+  H4  1  0.15304681  0.69406834  0.49215685  1
  H+  H5  1  1.04352483  0.20550129  0.49435286  1
  H+  H6  1  0.84838959  0.86705537  0.22850859  1
  H+  H7  1  0.36341673  0.17665312  0.49785908  1
  H+  H8  1  0.46384711  0.55364964  0.09600287  1
  H+  H9  1  0.15323974  0.62612111  0.21482967  1
  H+  H10  1  0.78150178  0.57831434  1.09501054  1
  H+  H11  1  0.82386656  0.53424382  0.22369168  1
  H+  H12  1  0.36339712  0.51869931  0.72369031  1
  H+  H13  1  0.66947542  0.85664136  0.26949435  1
  H+  H14  1  0.65500066  0.17502106  0.48925771  1
  H+  H15  1  0.39099084  0.52704635  0.00446297  1
  H+  H16  1  0.46915025  0.48095004  0.24167371  1
  H+  H17  1  0.15443451  0.52152992  0.77522001  1
  H+  H18  1  0.70547339  0.53006185  0.23272113  1
  H+  H19  1  0.02800032  0.82207780  0.00325413  1
  H+  H20  1  0.14797763  0.78934693  0.26116261  1
  H+  H21  1  0.27283080  0.80221245  0.26809558  1
  H+  H22  1  0.19160051  0.81355731  0.98808145  1
  H+  H23  1  0.85187482  0.69401613  0.76305854  1
  H+  H24  1  0.64742559  0.84888802  0.50862947  1
  H+  H25  1  0.96115214  0.15112436  0.26124258  1
  H+  H26  1  0.69633972  0.52337928  0.74081456  1
  H+  H27  1  0.97500845  0.48337043  0.22020973  1
  H+  H28  1  0.85992202  0.15853949  0.48765254  1
  H+  H29  1  0.52570445  0.49101006  0.97848685  1
  H+  H30  1  0.81638233  0.30404453  0.23480038  1
  H+  H31  1  0.49226408  0.86627005  0.26265309  1
  H+  H32  1  0.96046102  0.48326212  0.76230168  1
  H+  H33  1  0.10442662  0.56240457  0.85234688  1
  H+  H34  1  0.94397752  0.80120935  0.47467715  1
  H+  H35  1  0.82167268  0.13295574  -0.01265871  1
  H+  H36  1  0.51260349  0.82027221  0.75643490  1
  H+  H37  1  0.13522586  0.53886318  0.40696757  1
  H+  H38  1  0.80221060  0.94889423  -0.00188200  1
  H+  H39  1  0.30106481  0.48067103  0.29835986  1
  H+  H40  1  0.51126701  0.48937275  0.73683732  1
  H+  H41  1  0.46560747  0.77810706  0.47835736  1
  H+  H42  1  0.55125266  0.24085109  0.95609271  1
  H+  H43  1  0.15787877  0.80866572  0.52099359  1
  H+  H44  1  0.18475751  0.16662628  0.48563212  1
  H+  H45  1  0.31449959  0.81937693  -0.00862500  1
  H+  H46  1  0.69483217  0.19518907  0.00745324  1
  H+  H47  1  0.15945817  0.51312308  0.22956239  1
  H+  H48  1  0.61737454  0.48340520  0.49419830  1
  H+  H49  1  0.05948470  0.26794805  0.04538692  1
  H+  H50  1  0.44413386  0.48888199  0.48468867  1
  H+  H51  1  0.50627573  0.36000085  0.48292801  1
  H+  H52  1  0.17363436  0.15952728  0.70656200  1
  H+  H53  1  0.13568105  0.20534785  0.04729998  1
  H+  H54  1  0.03217599  0.20103024  0.72593517  1
  H+  H55  1  0.84762043  0.16083504  0.74450174  1
  H+  H56  1  0.83045608  0.68341848  0.46205347  1
  H+  H57  1  0.86224743  0.35238576  -0.01648376  1
  H+  H58  1  0.78655093  0.88167171  0.14103387  1
  H+  H59  1  0.14215702  0.96657298  0.72572031  1
  H+  H60  1  0.22237351  0.39444318  0.99314295  1
  H+  H61  1  0.51535446  1.02826887  0.26561445  1
  H+  H62  1  0.29091512  0.13837013  0.26646095  1
  H+  H63  1  0.48107475  0.31117265  0.72018435  1
  H+  H64  1  0.52499337  0.36292915  0.26718409  1
  H+  H65  1  0.13001683  0.93276919  0.04304389  1
  H+  H66  1  0.17614575  0.14887999  0.26763890  1
  H+  H67  1  0.14679473  0.30339310  0.28167668  1
  H+  H68  1  0.12428915  0.96193520  0.51015039  1
  H+  H69  1  0.50060004  0.95170756  0.02765710  1
  H+  H70  1  -0.02526926  0.81472722  0.76516147  1
  H+  H71  1  0.85924852  -0.00314231  0.70391270  1
  H+  H72  1  0.15308517  0.85384898  0.74000691  1
  H+  H73  1  0.76558514  -0.07245536  0.55389761  1
  H+  H74  1  0.18674064  0.37442497  0.75307898  1
  H+  H75  1  0.54561901  0.44628175  0.82784166  1
  H+  H76  1  0.83190718  0.87017033  0.70508744  1
  H+  H77  1  0.65531456  0.90357577  0.36260620  1
  H+  H78  1  0.69109766  0.82882640  1.00091431  1
  H+  H79  1  0.11447317  0.94730612  0.25705790  1
  H+  H80  1  0.20648999  0.10293916  1.11198903  1
  H+  H81  1  0.93872303  0.47955265  0.57287583  1
  H+  H82  1  0.92994606  0.11566119  0.98060255  1
  H+  H83  1  0.29533848  0.48839768  0.44482537  1
  H+  H84  1  0.20710048  0.10465564  0.62798290  1
  H+  H85  1  0.37285088  0.85906752  0.72423012  1
  H+  H86  1  0.36110105  0.19238054  0.70675276  1
  H+  H87  1  0.69227421  0.18666375  0.72601303  1
  H+  H88  1  0.81328320  0.18296159  0.23764024  1
  H+  H89  1  0.81641797  0.30979292  0.51021419  1
  H+  H90  1  0.81267739  0.51722023  0.74333286  1
  H+  H91  1  0.79906090  0.51540394  0.52019064  1
  H+  H92  1  0.23541642  0.12071774  1.00701266  1
  H+  H93  1  0.51217985  0.70297235  0.75371046  1
  H+  H94  1  0.70961343  0.53140798  0.00027638  1
  H+  H95  1  0.84750014  0.03127781  0.24697513  1
  H+  H96  1  0.12246147  0.63887402  0.35926652  1
  H+  H97  1  0.22081223  0.50944446  0.97817944  1
  H+  H98  1  0.51259584  0.16069782  0.73663917  1
  H+  H99  1  0.16046418  0.32159357  0.48455329  1
  H+  H100  1  0.76171546  0.56106864  0.60369232  1
  H+  H101  1  0.48170821  0.16931973  0.25785375  1
  H+  H102  1  0.19268871  0.71443465  0.76530530  1
  H+  H103  1  0.48988706  0.83157726  0.01526425  1
  H+  H104  1  0.93899121  0.79875250  0.33101531  1
  H+  H105  1  0.52375904  0.69656539  0.98601764  1
  H+  H106  1  0.51914328  0.16339587  0.48413869  1
  H+  H107  1  0.48999912  -0.02500681  0.72077257  1
  H+  H108  1  0.83941805  0.68603657  0.98608112  1
  H+  H109  1  0.12172876  0.25280658  0.18206243  1
  H+  H110  1  0.35639623  0.41579611  0.18498778  1
  H+  H111  1  0.87623968  0.42925925  0.84221833  1
  H+  H112  1  0.96521272  0.50433403  0.46994558  1
  H+  H113  1  0.17456385  0.52801450  0.57761661  1
  H+  H114  1  0.89471728  0.11951658  0.39824584  1
  H+  H115  1  0.24365926  0.80243085  0.84407911  1
  H+  H116  1  0.63640110  0.14969118  0.25942171  1
  H+  H117  1  0.44553413  0.87934782  0.57312818  1
  H+  H118  1  0.53008463  0.75176652  0.39745920  1
  H+  H119  1  0.11158884  0.24984790  0.63607994  1
  H+  H120  1  0.07962546  0.88122712  0.59758202  1
  H+  H121  1  0.93035523  0.47623873  0.31703581  1
  H+  H122  1  0.11350315  0.49298303  0.59279747  1
  H+  H123  1  0.17326737  0.64386724  0.99297185  1
  H+  H124  1  0.13226034  0.55366835  0.07473709  1
  H+  H125  1  0.55649301  0.13266421  0.82752300  1
  H+  H126  1  0.30795401  0.13841300  0.89236100  1
  H+  H127  1  0.81183334  0.30486886  0.72837094  1
  H+  H128  1  0.44799287  0.22269496  0.58444835  1
  H+  H129  1  0.76787632  0.21590443  0.09971193  1
  H+  H130  1  0.52609579  0.35193211  0.05311648  1
  H+  H131  1  0.76877922  0.22285430  0.59348902  1
  H+  H132  1  0.44075416  0.87891604  0.16939717  1
  H+  H133  1  0.88870038  0.77126690  0.87708929  1
  H+  H134  1  0.21074877  0.10285957  0.40605628  1
  H+  H135  1  0.42877143  0.54944486  0.62960855  1
  H+  H136  1  0.33829361  0.82406527  0.51029121  1
  H+  H137  1  0.24549790  0.45126581  0.84296579  1
  H+  H138  1  0.56643338  0.12042765  0.39416828  1
  H+  H139  1  0.28660944  0.17869114  0.87965207  1
  H+  H140  1  0.98118524  0.46870189  0.97461917  1
  H+  H141  1  0.43687242  0.20308949  0.17149215  1
  H+  H142  1  0.44285311  0.60910098  0.48356748  1
  H+  H143  1  0.55823243  0.44801956  0.35103613  1
  O2-  O144  1  0.11313987  0.23012402  0.24696960  1
  O2-  O145  1  0.11326052  0.24245212  0.70376175  1
  O2-  O146  1  0.12360114  0.54656340  0.19102894  1
  O2-  O147  1  0.11027370  0.56239407  0.78609253  1
  O2-  O148  1  0.07101262  0.86435188  0.24266350  1
  O2-  O149  1  0.10050542  0.88216270  0.71957291  1
  O2-  O150  1  0.43748953  0.20803616  0.23764114  1
  O2-  O151  1  0.44535159  0.23100017  0.69606463  1
  O2-  O152  1  0.40641621  0.49060481  0.21176215  1
  O2-  O153  1  0.44145181  0.55478318  0.69619695  1
  O2-  O154  1  0.43902310  0.88968520  0.23606195  1
  O2-  O155  1  0.45260337  0.89425720  0.70121604  1
  O2-  O156  1  0.77057699  0.22217711  0.21617230  1
  O2-  O157  1  0.77321386  0.22507130  0.70347689  1
  O2-  O158  1  0.78078599  0.57115501  0.20281028  1
  O2-  O159  1  0.77862801  0.56439989  0.72239442  1
  O2-  O160  1  0.79566498  0.89378542  0.20804523  1
  O2-  O161  1  0.84933455  0.93365118  0.66414291  1
  O2-  O162  1  0.20739250  0.09662020  0.27843812  1
  O2-  O163  1  0.21354814  0.11457405  0.69404656  1
  O2-  O164  1  0.21840090  0.44601659  0.31469936  1
  O2-  O165  1  0.23172757  0.45467716  0.77666838  1
  O2-  O166  1  0.18997225  0.74765312  0.27315245  1
  O2-  O167  1  0.23529111  0.79815562  0.77636729  1
  O2-  O168  1  0.55755089  0.11035251  0.28715441  1
  O2-  O169  1  0.55504333  0.12306573  0.76084452  1
  O2-  O170  1  0.55898372  0.44475967  0.28240367  1
  O2-  O171  1  0.55044392  0.44748560  0.76038140  1
  O2-  O172  1  0.61083087  0.85699401  0.31030647  1
  O2-  O173  1  0.54301579  0.77535660  0.78751252  1
  O2-  O174  1  0.87751938  0.10989749  0.27233829  1
  O2-  O175  1  0.89552561  0.12856167  0.76692779  1
  O2-  O176  1  0.90216029  0.45299698  0.25483588  1
  O2-  O177  1  0.87660049  0.43908371  0.77374560  1
  O2-  O178  1  0.95355250  0.83113301  0.26673076  1
  O2-  O179  1  0.89365555  0.77375889  0.78960040  1
  O2-  O180  1  0.21802109  0.11560898  0.47285954  1
  O2-  O181  1  0.17413992  0.09986686  1.05154041  1
  O2-  O182  1  0.21185012  0.45914307  0.41393426  1
  O2-  O183  1  0.26380975  0.46857123  0.96097155  1
  O2-  O184  1  0.19632049  0.76297869  0.52903626  1
  O2-  O185  1  0.23821550  0.78087119  0.96152542  1
  O2-  O186  1  0.56968825  0.13077991  0.46327056  1
  O2-  O187  1  0.56365361  0.17417512  0.94958855  1
  O2-  O188  1  0.54066072  0.44122905  0.46354013  1
  O2-  O189  1  0.56538003  0.45126776  0.94892391  1
  O2-  O190  1  0.50286268  0.73019972  0.46062914  1
  O2-  O191  1  0.55645193  0.77691550  0.96483734  1
  O2-  O192  1  0.91874487  0.14480063  0.46141850  1
  O2-  O193  1  0.85311321  0.08722143  0.95701043  1
  O2-  O194  1  0.90112503  0.46155239  0.51353931  1
  O2-  O195  1  0.90257316  0.42584619  0.95072414  1
  O2-  O196  1  0.88053353  0.75677604  0.43175626  1
  O2-  O197  1  0.88583836  0.77219398  0.95500403  1
  O2-  O198  1  0.13296098  0.27618675  0.06274459  1
  O2-  O199  1  0.12678485  0.24759939  0.51652832  1
  O2-  O200  1  0.13699411  0.55969834  0.00685302  1
  O2-  O201  1  0.08510545  0.57303088  0.40195790  1
  O2-  O202  1  0.10465034  0.85273840  0.03035510  1
  O2-  O203  1  0.07984267  0.88161855  0.52997995  1
  O2-  O204  1  0.50267570  0.33522758  -0.01104590  1
  O2-  O205  1  0.44620754  0.21724057  0.51567517  1
  O2-  O206  1  0.47166644  0.56132640  0.02892638  1
  O2-  O207  1  0.39520562  0.52248101  0.50041156  1
  O2-  O208  1  0.45121864  0.87216662  0.04465215  1
  O2-  O209  1  0.42339524  0.86008952  0.50862720  1
  O2-  O210  1  0.77014755  0.21193407  0.03146845  1
  O2-  O211  1  0.76841953  0.22716437  0.52437879  1
  O2-  O212  1  0.78631451  0.58217297  0.02552960  1
  O2-  O213  1  0.75280406  0.55085743  0.53625186  1
  O2-  O214  1  0.77362423  0.86999766  0.02108011  1
  O2-  O215  1  0.71486649  0.92534145  0.50439807  1
