# generated using pymatgen
data_H2O
_symmetry_space_group_name_H-M   'P 1'
_cell_length_a   13.51920388
_cell_length_b   13.52302846
_cell_length_c   14.68642268
_cell_angle_alpha   89.88878592
_cell_angle_beta   90.10118672
_cell_angle_gamma   120.07719305
_symmetry_Int_Tables_number   1
_chemical_formula_structural   H2O
_chemical_formula_sum   'H144 O72'
_cell_volume   2323.44497988
_cell_formula_units_Z   72
loop_
 _symmetry_equiv_pos_site_id
 _symmetry_equiv_pos_as_xyz
  1  'x, y, z'
loop_
 _atom_type_symbol
 _atom_type_oxidation_number
  H+  1.0
  O2-  -2.0
loop_
 _atom_site_type_symbol
 _atom_site_label
 _atom_site_symmetry_multiplicity
 _atom_site_fract_x
 _atom_site_fract_y
 _atom_site_fract_z
 _atom_site_occupancy
  H+  H0  1  0.49494482  0.72375546  0.20105297  1
  H+  H1  1  0.13272604  0.56474514  0.65291825  1
  H+  H2  1  0.49015196  0.51114871  -0.00214065  1
  H+  H3  1  0.82340481  0.98326638  0.25177986  1
  H+  H4  1  0.13403117  0.16672091  0.70511320  1
  H+  H5  1  0.76847372  0.56014339  0.66242099  1
  H+  H6  1  0.86337969  0.15544571  0.27133998  1
  H+  H7  1  0.77957085  0.21606914  0.09817240  1
  H+  H8  1  0.49766055  0.19686565  0.50803681  1
  H+  H9  1  0.17221616  0.69043765  0.23389386  1
  H+  H10  1  0.80856653  0.83069713  1.01625622  1
  H+  H11  1  0.47527720  0.47259904  0.75261299  1
  H+  H12  1  0.88805296  0.82755807  0.50544250  1
  H+  H13  1  0.47754541  0.57695493  0.70065554  1
  H+  H14  1  0.16411156  0.29797029  1.00297250  1
  H+  H15  1  0.19624390  0.48116953  -0.01098478  1
  H+  H16  1  0.15641092  0.18850695  0.23892498  1
  H+  H17  1  0.49709580  0.84753083  0.00135663  1
  H+  H18  1  0.17939808  0.85134218  0.50828381  1
  H+  H19  1  0.81457089  0.81555712  0.26919806  1
  H+  H20  1  0.04939854  0.52770443  0.74181505  1
  H+  H21  1  0.81930803  0.19536509  0.75223734  1
  H+  H22  1  0.17346811  0.64500368  0.51266971  1
  H+  H23  1  0.40329266  0.83334164  0.24500581  1
  H+  H24  1  0.99113311  0.49197053  0.25152186  1
  H+  H25  1  0.70058500  0.17383010  0.24342093  1
  H+  H26  1  0.15778317  0.17705772  0.00439504  1
  H+  H27  1  0.18527207  1.03035113  0.75220487  1
  H+  H28  1  0.04531492  0.16110573  0.57623159  1
  H+  H29  1  0.52308217  0.02910231  0.99653029  1
  H+  H30  1  -0.02133647  0.16097540  -0.01748674  1
  H+  H31  1  0.69595298  0.87964536  0.22874518  1
  H+  H32  1  0.85676235  0.36327692  0.99148289  1
  H+  H33  1  0.82223409  0.28933548  0.24138339  1
  H+  H34  1  0.17779923  0.37127729  0.23947989  1
  H+  H35  1  0.47006320  0.67712628  0.51976739  1
  H+  H36  1  0.32522270  0.83024790  0.49085614  1
  H+  H37  1  0.86994074  0.47767468  0.25084289  1
  H+  H38  1  1.02291579  0.17725452  0.71817033  1
  H+  H39  1  0.04037936  0.75293197  0.69821004  1
  H+  H40  1  0.20659539  1.03628810  0.49230222  1
  H+  H41  1  0.86149166  0.16251594  -0.01750083  1
  H+  H42  1  0.43382663  0.45445326  0.50599831  1
  H+  H43  1  0.90425990  0.99169453  0.53206682  1
  H+  H44  1  0.86020185  0.48234191  0.99469739  1
  H+  H45  1  0.64794563  0.16894772  0.47743864  1
  H+  H46  1  0.51720878  0.35762228  0.99527731  1
  H+  H47  1  -0.03843527  0.82360366  0.76927000  1
  H+  H48  1  0.51687140  0.83211669  0.14253273  1
  H+  H49  1  0.98274848  0.15801132  0.26055525  1
  H+  H50  1  0.68986094  0.99792283  0.58189841  1
  H+  H51  1  0.70766871  0.86988480  0.73612154  1
  H+  H52  1  0.74835840  0.50806085  0.29523504  1
  H+  H53  1  0.64664676  0.17035593  0.76880223  1
  H+  H54  1  0.82120475  0.31392582  0.75053729  1
  H+  H55  1  0.48881380  0.03265014  0.26624954  1
  H+  H56  1  0.24937569  0.43058055  0.47886980  1
  H+  H57  1  0.12912000  0.56212918  0.10039176  1
  H+  H58  1  0.19696074  0.81591235  0.76664107  1
  H+  H59  1  0.63351789  0.80515359  0.98803871  1
  H+  H60  1  0.49836810  0.00360612  0.74623201  1
  H+  H61  1  0.37412158  0.18803393  0.50952992  1
  H+  H62  1  0.48538728  0.19015430  0.24044936  1
  H+  H63  1  0.68414284  0.52594453  0.51897795  1
  H+  H64  1  0.29860839  0.47345867  0.76069657  1
  H+  H65  1  0.19152436  1.04209182  0.26094742  1
  H+  H66  1  0.15551021  0.51820047  0.50865615  1
  H+  H67  1  0.60567730  0.49183275  0.23879307  1
  H+  H68  1  0.36584625  0.17774697  0.00685346  1
  H+  H69  1  0.06355220  0.85736007  0.24902987  1
  H+  H70  1  0.48514645  0.18220379  0.74080433  1
  H+  H71  1  0.69758042  0.50834822  0.01157806  1
  H+  H72  1  0.48771179  0.49030006  0.24489298  1
  H+  H73  1  0.44864833  0.22337501  0.64908455  1
  H+  H74  1  0.47708360  0.30601345  0.23513715  1
  H+  H75  1  0.82711429  0.31328791  0.49747770  1
  H+  H76  1  0.30606668  0.16104915  0.25929581  1
  H+  H77  1  0.15837586  0.84730003  0.01571387  1
  H+  H78  1  0.83191711  0.19977143  0.50345345  1
  H+  H79  1  0.97406368  0.81393303  0.99982616  1
  H+  H80  1  0.51845989  0.34932572  0.76118045  1
  H+  H81  1  0.52412144  0.05552492  0.48610977  1
  H+  H82  1  1.05871779  0.84802312  0.50925537  1
  H+  H83  1  0.51560235  0.14474871  0.99650515  1
  H+  H84  1  0.38422447  0.85048421  0.02537465  1
  H+  H85  1  0.95567549  0.16671591  0.40620764  1
  H+  H86  1  0.80578652  0.63128586  0.25402223  1
  H+  H87  1  1.06533877  0.65435054  1.17220616  1
  H+  H88  1  0.18563475  0.02591100  0.98645807  1
  H+  H89  1  0.52899970  0.86403609  0.75486309  1
  H+  H90  1  0.70003936  0.18164625  0.00975008  1
  H+  H91  1  0.34669154  0.52299342  0.22187692  1
  H+  H92  1  0.63614332  0.47385944  0.76502044  1
  H+  H93  1  0.81111233  0.63483121  0.52352781  1
  H+  H94  1  0.52008356  0.90672926  0.52406091  1
  H+  H95  1  0.52661658  0.68102133  0.52922545  1
  H+  H96  1  0.51621488  0.36196515  0.48465956  1
  H+  H97  1  0.04615920  0.50764176  0.01483574  1
  H+  H98  1  0.85713964  0.05011430  0.75903325  1
  H+  H99  1  0.19620437  0.69669715  0.99882356  1
  H+  H100  1  0.30112533  0.14852440  0.75095793  1
  H+  H101  1  0.51480728  0.74261852  0.74472013  1
  H+  H102  1  0.18475939  0.49700003  0.75972120  1
  H+  H103  1  0.80812017  0.63598940  0.75361744  1
  H+  H104  1  0.71787785  0.91764093  0.52567185  1
  H+  H105  1  0.98483949  0.49244888  0.49200256  1
  H+  H106  1  0.85525728  0.69398563  0.99728376  1
  H+  H107  1  0.31714577  0.48374310  0.97657072  1
  H+  H108  1  0.77299066  0.54447125  0.10145485  1
  H+  H109  1  0.11654898  0.34731369  0.45765339  1
  H+  H110  1  0.47084989  0.76854979  0.37503636  1
  H+  H111  1  0.18906493  0.86795688  0.24779815  1
  H+  H112  1  0.90745550  0.77883354  0.41351722  1
  H+  H113  1  0.11458486  0.21905797  0.14575694  1
  H+  H114  1  0.44178740  0.21871697  0.09835660  1
  H+  H115  1  0.55306928  0.11980430  0.34724398  1
  H+  H116  1  0.55985051  0.43294750  0.90451807  1
  H+  H117  1  0.53343637  0.78737471  0.37464638  1
  H+  H118  1  0.75267668  0.71877431  0.33988276  1
  H+  H119  1  0.38183837  0.87811271  0.74733849  1
  H+  H120  1  0.37401755  0.45042013  0.59968629  1
  H+  H121  1  0.25216147  0.79537727  0.39852888  1
  H+  H122  1  0.42938936  0.55275604  0.13427267  1
  H+  H123  1  0.54227408  0.44151795  0.39537998  1
  H+  H124  1  0.21042544  0.70714621  0.76776767  1
  H+  H125  1  0.23709350  0.11709548  0.40539978  1
  H+  H126  1  0.20700908  0.45314955  0.32312740  1
  H+  H127  1  0.91782089  0.44890395  0.39887690  1
  H+  H128  1  0.11578544  0.86234073  0.63994499  1
  H+  H129  1  0.22438999  0.45009676  0.86006376  1
  H+  H130  1  0.82008061  0.86049930  0.75395500  1
  H+  H131  1  0.77161880  0.88010443  0.09976203  1
  H+  H132  1  0.90466003  0.13206381  0.84612234  1
  H+  H133  1  0.56351363  0.78661061  0.89380547  1
  H+  H134  1  0.12436045  0.89433387  0.10241428  1
  H+  H135  1  0.48829048  0.63035958  -0.00921080  1
  H+  H136  1  0.55941778  0.12112607  0.85502389  1
  H+  H137  1  0.22304195  0.10456314  0.89630262  1
  H+  H138  1  0.45101377  0.92261611  0.60225489  1
  H+  H139  1  0.90890672  0.46194697  0.84930058  1
  H+  H140  1  0.86579209  0.50219741  0.76267207  1
  H+  H141  1  0.23804717  0.78114352  0.91397019  1
  H+  H142  1  0.89025972  0.78484448  0.86214682  1
  H+  H143  1  0.82762173  0.90516474  0.61130519  1
  O2-  O144  1  0.11238332  0.22389315  0.21358722  1
  O2-  O145  1  0.08902564  0.19718695  0.67630074  1
  O2-  O146  1  0.10792461  0.62191880  0.20068364  1
  O2-  O147  1  0.13196906  0.56354832  0.72231991  1
  O2-  O148  1  0.13863134  0.90108203  0.22091889  1
  O2-  O149  1  0.09319278  0.83460765  0.70627492  1
  O2-  O150  1  0.44164012  0.22544959  0.21396654  1
  O2-  O151  1  0.44207715  0.21994391  0.71764745  1
  O2-  O152  1  0.43006943  0.56328946  0.20131515  1
  O2-  O153  1  0.42447890  0.50243546  0.72632823  1
  O2-  O154  1  0.36966864  0.88363024  0.24363659  1
  O2-  O155  1  0.45957101  0.92246433  0.72002237  1
  O2-  O156  1  0.78062374  0.20833638  0.22122120  1
  O2-  O157  1  0.77239905  0.23157628  0.73806366  1
  O2-  O158  1  0.77729620  0.54916536  0.23773051  1
  O2-  O159  1  0.77496579  0.55629694  0.73146274  1
  O2-  O160  1  0.77837643  0.90416000  0.22553593  1
  O2-  O161  1  0.79014350  0.90484834  0.72097233  1
  O2-  O162  1  0.22610714  0.12207792  0.28340467  1
  O2-  O163  1  0.22006390  0.10890689  0.77392279  1
  O2-  O164  1  0.21507520  0.45358920  0.25610738  1
  O2-  O165  1  0.22100513  0.45096480  0.78724453  1
  O2-  O166  1  0.25391754  0.81380448  0.28437417  1
  O2-  O167  1  0.24539868  0.78635577  0.79247488  1
  O2-  O168  1  0.54728103  0.11330115  0.27843372  1
  O2-  O169  1  0.56145695  0.12696838  0.78702887  1
  O2-  O170  1  0.52997336  0.45020041  0.26712046  1
  O2-  O171  1  0.55526534  0.42883937  0.78818375  1
  O2-  O172  1  0.52995337  0.80825420  0.20280239  1
  O2-  O173  1  0.56496329  0.81587801  0.77341373  1
  O2-  O174  1  0.90817935  0.12051024  0.29527025  1
  O2-  O175  1  0.90026762  0.13192389  0.77665140  1
  O2-  O176  1  0.91120653  0.43873980  0.27063462  1
  O2-  O177  1  0.91367983  0.46845038  0.78164764  1
  O2-  O178  1  0.82172583  0.75312758  0.30248398  1
  O2-  O179  1  0.88321482  0.78596281  0.79380344  1
  O2-  O180  1  0.24614475  0.11705041  0.47250951  1
  O2-  O181  1  0.22637745  0.10663719  0.96410910  1
  O2-  O182  1  0.18034376  0.42614050  0.44890116  1
  O2-  O183  1  0.23369245  0.44346263  0.95603224  1
  O2-  O184  1  0.24512671  0.78496393  0.46674054  1
  O2-  O185  1  0.23371289  0.77891328  0.98171308  1
  O2-  O186  1  0.56480255  0.13334874  0.45828710  1
  O2-  O187  1  0.55930810  0.10905157  0.97216120  1
  O2-  O188  1  0.54915071  0.44324581  0.46239806  1
  O2-  O189  1  0.56065919  0.43879915  0.97257657  1
  O2-  O190  1  0.65814067  0.93907931  0.53506219  1
  O2-  O191  1  0.55386778  0.76952064  0.95986381  1
  O2-  O192  1  0.97958688  0.20172290  0.46895475  1
  O2-  O193  1  0.90253814  0.12753489  0.95339210  1
  O2-  O194  1  0.90739629  0.45027483  0.46508119  1
  O2-  O195  1  0.90304668  0.44551736  0.97192423  1
  O2-  O196  1  0.91872670  0.77871302  0.47968541  1
  O2-  O197  1  0.89422295  0.77458722  0.97541959  1
  O2-  O198  1  0.12068925  0.21974249  0.02839479  1
  O2-  O199  1  0.01260831  0.12496945  0.51302198  1
  O2-  O200  1  0.12825056  0.54664522  0.03399759  1
  O2-  O201  1  0.13077067  0.56770928  0.54124669  1
  O2-  O202  1  0.11693147  0.88787174  0.03464489  1
  O2-  O203  1  0.13781949  0.88884149  0.53562274  1
  O2-  O204  1  0.44624880  0.21900588  0.03009186  1
  O2-  O205  1  0.45555396  0.23371277  0.53431773  1
  O2-  O206  1  0.44499781  0.54922374  0.01348059  1
  O2-  O207  1  0.36650793  0.45407305  0.53369311  1
  O2-  O208  1  0.46756910  0.88999889  0.03760210  1
  O2-  O209  1  0.45414997  0.91909686  0.53445958  1
  O2-  O210  1  0.78145118  0.22497214  0.03081204  1
  O2-  O211  1  0.77961170  0.22934455  0.51092485  1
  O2-  O212  1  0.77863962  0.54960993  0.03490586  1
  O2-  O213  1  0.75517465  0.56486873  0.55566457  1
  O2-  O214  1  0.75407611  0.85513881  0.03593073  1
  O2-  O215  1  0.84294033  0.91048538  0.54402472  1
