# generated using pymatgen
data_H2O
_symmetry_space_group_name_H-M   'P 1'
_cell_length_a   13.50874147
_cell_length_b   13.48640492
_cell_length_c   14.66469338
_cell_angle_alpha   89.98381261
_cell_angle_beta   90.04330970
_cell_angle_gamma   120.15850180
_symmetry_Int_Tables_number   1
_chemical_formula_structural   H2O
_chemical_formula_sum   'H144 O72'
_cell_volume   2310.03583488
_cell_formula_units_Z   72
loop_
 _symmetry_equiv_pos_site_id
 _symmetry_equiv_pos_as_xyz
  1  'x, y, z'
loop_
 _atom_type_symbol
 _atom_type_oxidation_number
  H+  1.0
  O2-  -2.0
loop_
 _atom_site_type_symbol
 _atom_site_label
 _atom_site_symmetry_multiplicity
 _atom_site_fract_x
 _atom_site_fract_y
 _atom_site_fract_z
 _atom_site_occupancy
  H+  H0  1  0.79607069  1.01217025  0.25302814  1
  H+  H1  1  0.03352490  0.20386389  0.24621089  1
  H+  H2  1  1.03797835  0.51171603  1.00594727  1
  H+  H3  1  0.80045611  0.19464370  0.01069571  1
  H+  H4  1  0.16160360  0.30923473  0.24020406  1
  H+  H5  1  0.47482605  0.27695971  0.01303770  1
  H+  H6  1  -0.02926056  0.47764600  0.25969262  1
  H+  H7  1  0.50344056  0.52709743  0.50369091  1
  H+  H8  1  0.84067236  0.28228037  0.73102390  1
  H+  H9  1  0.19178541  0.68866374  0.78469233  1
  H+  H10  1  0.51874285  0.70096368  0.26308480  1
  H+  H11  1  0.75082901  0.33366847  0.80339578  1
  H+  H12  1  0.86356815  0.13296834  0.74192311  1
  H+  H13  1  0.68837047  0.52549574  0.50383067  1
  H+  H14  1  0.51575003  0.81471908  -0.01603261  1
  H+  H15  1  0.80545023  0.50079568  0.23248999  1
  H+  H16  1  0.30993935  0.81901307  0.99954192  1
  H+  H17  1  0.84771174  0.37289592  0.99892984  1
  H+  H18  1  0.15786498  0.62976747  0.01049232  1
  H+  H19  1  0.14616241  0.28679789  0.74710664  1
  H+  H20  1  0.16641611  0.17834667  0.75231248  1
  H+  H21  1  0.80646477  0.90334327  0.23658953  1
  H+  H22  1  -0.02569913  0.14786332  0.50362452  1
  H+  H23  1  0.83923556  0.18719654  0.25532564  1
  H+  H24  1  0.22419414  0.15778345  0.97982333  1
  H+  H25  1  0.92636960  0.48245422  0.50920521  1
  H+  H26  1  0.15492451  0.62737710  0.23438144  1
  H+  H27  1  0.18708330  0.81442715  0.24715096  1
  H+  H28  1  0.46580333  0.56756530  0.14222562  1
  H+  H29  1  0.18481763  0.80607292  0.48478492  1
  H+  H30  1  0.65779926  0.16666210  0.76351662  1
  H+  H31  1  0.86202965  0.82323323  0.50192565  1
  H+  H32  1  -0.02074782  0.83173957  -0.00595979  1
  H+  H33  1  0.49734289  0.81869887  0.49706853  1
  H+  H34  1  0.79509890  0.30609385  0.24047930  1
  H+  H35  1  0.80598660  0.62526706  0.74359792  1
  H+  H36  1  0.82669600  0.64494775  0.01683638  1
  H+  H37  1  0.80897483  0.45965390  0.76382749  1
  H+  H38  1  0.83714996  0.79292412  0.18453060  1
  H+  H39  1  0.70218835  0.83558064  0.75274338  1
  H+  H40  1  0.80046637  0.28819785  0.50162796  1
  H+  H41  1  0.48883602  0.96611201  0.00255924  1
  H+  H42  1  0.50568129  0.03138862  0.26689022  1
  H+  H43  1  0.81436330  0.64030523  0.51181828  1
  H+  H44  1  0.83497784  0.05323723  -0.01429191  1
  H+  H45  1  0.34230719  0.81135519  0.76179414  1
  H+  H46  1  0.25187802  0.12110765  0.85551472  1
  H+  H47  1  0.48415709  0.82461507  0.74251732  1
  H+  H48  1  0.13317344  0.89100449  0.59458989  1
  H+  H49  1  0.47571710  0.96587028  0.52127470  1
  H+  H50  1  0.94679087  0.17330877  0.99848405  1
  H+  H51  1  0.90976879  0.20532728  0.34483517  1
  H+  H52  1  0.67585855  0.18437958  0.24754814  1
  H+  H53  1  0.22646922  0.43963484  0.84808393  1
  H+  H54  1  0.81402782  0.47932868  0.48718819  1
  H+  H55  1  0.19805254  0.03880946  0.49286137  1
  H+  H56  1  0.20247810  0.49427291  0.25014889  1
  H+  H57  1  0.50705784  0.36309288  0.25289119  1
  H+  H58  1  0.50697873  0.69471734  0.49624138  1
  H+  H59  1  0.36404238  0.85064997  0.23307704  1
  H+  H60  1  0.82316889  0.83391810  0.75647190  1
  H+  H61  1  0.89047673  0.07963348  0.41955075  1
  H+  H62  1  0.35212696  0.15410212  0.00329234  1
  H+  H63  1  0.14736784  0.18060956  0.51276478  1
  H+  H64  1  0.00062015  0.49521644  0.78296202  1
  H+  H65  1  0.52061236  0.68701613  0.75422016  1
  H+  H66  1  0.62503872  0.83116738  0.27267189  1
  H+  H67  1  0.89121891  0.84756725  0.19702393  1
  H+  H68  1  0.32648689  0.19131431  0.76263980  1
  H+  H69  1  0.19050233  0.82071477  -0.00707347  1
  H+  H70  1  0.82416636  0.96147544  0.52819554  1
  H+  H71  1  0.17638137  0.14292933  0.26363542  1
  H+  H72  1  0.86283328  0.66261657  0.27149663  1
  H+  H73  1  -0.01290160  0.13019278  0.75251123  1
  H+  H74  1  0.46608224  0.49420984  0.72145795  1
  H+  H75  1  0.17212121  0.47351502  0.76710500  1
  H+  H76  1  0.35924157  0.51286747  0.72925016  1
  H+  H77  1  0.08619992  0.14602809  0.02316036  1
  H+  H78  1  0.35929002  0.84352637  0.51231352  1
  H+  H79  1  0.04484808  0.84506405  0.51206208  1
  H+  H80  1  0.50118856  0.13354755  0.98774936  1
  H+  H81  1  0.48158261  0.85263235  0.24325769  1
  H+  H82  1  0.15284991  0.96372807  0.24177811  1
  H+  H83  1  0.35217285  0.49501833  0.46900607  1
  H+  H84  1  1.04398577  0.83581599  0.24273161  1
  H+  H85  1  0.32672210  0.49876822  0.23933986  1
  H+  H86  1  0.50875032  0.15192668  0.50614992  1
  H+  H87  1  0.51696891  0.50148237  0.92540184  1
  H+  H88  1  0.82988883  0.52849444  1.01557686  1
  H+  H89  1  0.86023971  0.83370983  0.99329174  1
  H+  H90  1  0.37866066  0.20439388  0.51580907  1
  H+  H91  1  0.62450251  0.14762014  0.98939388  1
  H+  H92  1  0.49679439  0.52193476  0.23290684  1
  H+  H93  1  0.18864067  0.47818326  0.99078141  1
  H+  H94  1  0.63002621  0.47949603  0.25188787  1
  H+  H95  1  0.18558532  0.35836605  0.99086443  1
  H+  H96  1  0.97822015  0.82622954  0.76829020  1
  H+  H97  1  0.17085739  1.00006779  0.73929246  1
  H+  H98  1  0.85394491  1.00100989  0.75517417  1
  H+  H99  1  0.29631417  0.14710533  0.25875197  1
  H+  H100  1  0.47194158  0.18165013  0.24395803  1
  H+  H101  1  0.69790899  0.85643842  -0.00397219  1
  H+  H102  1  0.58686376  0.42630640  0.73518738  1
  H+  H103  1  0.61976966  0.13911568  0.49931240  1
  H+  H104  1  0.06709323  0.46427562  0.48491396  1
  H+  H105  1  0.18977725  0.68923495  0.47714947  1
  H+  H106  1  0.51773240  0.37454241  0.48702923  1
  H+  H107  1  0.21966139  0.46878421  0.46649518  1
  H+  H108  1  0.05596273  0.56111123  0.69479010  1
  H+  H109  1  0.90138187  0.78068878  0.85951640  1
  H+  H110  1  0.09964089  0.22118216  0.10999133  1
  H+  H111  1  0.87704750  0.44169088  0.90691844  1
  H+  H112  1  0.44739747  0.55529337  0.59376240  1
  H+  H113  1  0.43171070  0.86599852  0.65775060  1
  H+  H114  1  0.26876273  0.45601072  0.36420125  1
  H+  H115  1  0.43259594  0.21228384  0.15000813  1
  H+  H116  1  0.45533341  0.89212880  0.09529146  1
  H+  H117  1  0.52017206  0.69728393  0.98148127  1
  H+  H118  1  0.06849247  0.96912097  0.67648819  1
  H+  H119  1  0.59465601  0.16593624  0.85419398  1
  H+  H120  1  0.79787306  0.20841691  0.63915374  1
  H+  H121  1  0.78822936  0.87552552  0.61142803  1
  H+  H122  1  0.10769474  0.21175732  0.60459335  1
  H+  H123  1  0.76826078  0.90871805  0.08630330  1
  H+  H124  1  0.12215521  0.89511742  0.09013429  1
  H+  H125  1  0.16893931  0.97712050  0.00018766  1
  H+  H126  1  0.22924346  0.11603819  0.40473621  1
  H+  H127  1  0.53770948  0.10653660  0.35906677  1
  H+  H128  1  0.45890225  0.26791831  0.60305888  1
  H+  H129  1  0.55220593  0.44982506  0.39323478  1
  H+  H130  1  0.96503230  0.68442836  0.33487859  1
  H+  H131  1  0.53843941  0.77496641  0.39926894  1
  H+  H132  1  0.76677573  0.55428833  0.65087228  1
  H+  H133  1  0.75364812  0.22970581  0.09904798  1
  H+  H134  1  0.77703743  0.55611642  0.14575627  1
  H+  H135  1  0.24538339  0.77832391  0.86939150  1
  H+  H136  1  0.55601184  0.76730797  0.84471449  1
  H+  H137  1  0.22631243  0.77318905  0.33599824  1
  H+  H138  1  0.36797360  0.50612620  0.00074200  1
  H+  H139  1  0.88830368  0.44642957  0.34828615  1
  H+  H140  1  0.11414220  0.54314499  0.14851734  1
  H+  H141  1  0.81124118  0.17377640  0.50073649  1
  H+  H142  1  0.90195957  0.77361761  0.41530129  1
  H+  H143  1  0.13893502  0.51000457  0.57382391  1
  O2-  O144  1  0.11137238  0.22750507  0.22268212  1
  O2-  O145  1  0.11265475  0.20551230  0.72743716  1
  O2-  O146  1  0.11679885  0.54421064  0.21710560  1
  O2-  O147  1  0.07592374  0.54028759  0.75281553  1
  O2-  O148  1  0.12039422  0.88516568  0.21476603  1
  O2-  O149  1  0.10799697  0.93282722  0.70448640  1
  O2-  O150  1  0.43214220  0.22092982  0.21866719  1
  O2-  O151  1  0.43814389  0.29019362  0.70461465  1
  O2-  O152  1  0.46123005  0.56810774  0.21004827  1
  O2-  O153  1  0.43872266  0.54954659  0.70450538  1
  O2-  O154  1  0.44728909  0.89613050  0.21662551  1
  O2-  O155  1  0.43336433  0.85789757  0.72564972  1
  O2-  O156  1  0.75440151  0.22484119  0.21902199  1
  O2-  O157  1  0.81697610  0.20615538  0.70473910  1
  O2-  O158  1  0.76966395  0.54696977  0.21602594  1
  O2-  O159  1  0.76261050  0.54657683  0.71843354  1
  O2-  O160  1  0.75417352  0.93317064  0.22833905  1
  O2-  O161  1  0.78416458  0.87616858  0.73201801  1
  O2-  O162  1  0.21681623  0.10308138  0.28534273  1
  O2-  O163  1  0.24774831  0.13122816  0.78600937  1
  O2-  O164  1  0.24835068  0.45698248  0.26953922  1
  O2-  O165  1  0.21952829  0.43862804  0.77996543  1
  O2-  O166  1  0.22457917  0.76979223  0.26826226  1
  O2-  O167  1  0.24715849  0.76950611  0.79951700  1
  O2-  O168  1  0.54259617  0.11153406  0.29120596  1
  O2-  O169  1  0.63188446  0.21136189  0.79808116  1
  O2-  O170  1  0.54946338  0.44447941  0.27555716  1
  O2-  O171  1  0.50684066  0.40220503  0.75120552  1
  O2-  O172  1  0.54557858  0.77640792  0.29471762  1
  O2-  O173  1  0.55931926  0.76841096  0.77590780  1
  O2-  O174  1  0.89368869  0.16501101  0.28650056  1
  O2-  O175  1  0.90072357  0.08869515  0.76930427  1
  O2-  O176  1  0.88976260  0.44261514  0.28077770  1
  O2-  O177  1  0.82952473  0.40478323  0.79280274  1
  O2-  O178  1  0.92767613  0.72412105  0.30961691  1
  O2-  O179  1  0.89881450  0.77706553  0.79069228  1
  O2-  O180  1  0.23142614  0.11950782  0.47291398  1
  O2-  O181  1  0.24562542  0.10189641  0.96142611  1
  O2-  O182  1  0.27321602  0.44733397  0.43664359  1
  O2-  O183  1  0.22954298  0.43822885  0.96753006  1
  O2-  O184  1  0.22907389  0.77011730  0.45851408  1
  O2-  O185  1  0.22987328  0.77697442  0.97426010  1
  O2-  O186  1  0.53718426  0.10087689  0.48222565  1
  O2-  O187  1  0.54661634  0.09968084  0.96155655  1
  O2-  O188  1  0.55486992  0.45566366  0.46158809  1
  O2-  O189  1  0.50048588  0.48229807  0.99030769  1
  O2-  O190  1  0.53596394  0.77548680  0.47006110  1
  O2-  O191  1  0.55796157  0.77726105  0.95791042  1
  O2-  O192  1  0.89024887  0.10704848  0.48109519  1
  O2-  O193  1  0.86947705  0.13597092  0.97159210  1
  O2-  O194  1  0.85997217  0.44033092  0.46972739  1
  O2-  O195  1  0.89787287  0.45188343  0.97281159  1
  O2-  O196  1  0.90279696  0.78026093  0.48274706  1
  O2-  O197  1  0.89730081  0.78990704  0.97305022  1
  O2-  O198  1  0.09254900  0.21863066  0.04129494  1
  O2-  O199  1  0.10074751  0.21304485  0.53725253  1
  O2-  O200  1  0.11867798  0.54765577  0.02977246  1
  O2-  O201  1  0.14194940  0.52248711  0.50795727  1
  O2-  O202  1  0.12158665  0.89310012  0.02251734  1
  O2-  O203  1  0.12846002  0.87981678  0.52724419  1
  O2-  O204  1  0.43641554  0.19902871  0.03729888  1
  O2-  O205  1  0.46025143  0.24759432  0.53533665  1
  O2-  O206  1  0.45151593  0.55360323  0.01957392  1
  O2-  O207  1  0.45802719  0.56553994  0.52469090  1
  O2-  O208  1  0.45122543  0.88506583  0.02750048  1
  O2-  O209  1  0.43817985  0.88199509  0.53995099  1
  O2-  O210  1  0.75848373  0.23557757  0.03152973  1
  O2-  O211  1  0.76679840  0.20882522  0.52530655  1
  O2-  O212  1  0.78830027  0.56553025  0.04101245  1
  O2-  O213  1  0.76770941  0.55702456  0.52925157  1
  O2-  O214  1  0.77755856  0.90489760  0.02025963  1
  O2-  O215  1  0.79179086  0.87978316  0.54382529  1
