# generated using pymatgen
data_H2O
_symmetry_space_group_name_H-M   'P 1'
_cell_length_a   13.48432353
_cell_length_b   13.49600993
_cell_length_c   14.69372518
_cell_angle_alpha   89.97222073
_cell_angle_beta   89.99971292
_cell_angle_gamma   120.02633936
_symmetry_Int_Tables_number   1
_chemical_formula_structural   H2O
_chemical_formula_sum   'H144 O72'
_cell_volume   2315.16367721
_cell_formula_units_Z   72
loop_
 _symmetry_equiv_pos_site_id
 _symmetry_equiv_pos_as_xyz
  1  'x, y, z'
loop_
 _atom_type_symbol
 _atom_type_oxidation_number
  H+  1.0
  O2-  -2.0
loop_
 _atom_site_type_symbol
 _atom_site_label
 _atom_site_symmetry_multiplicity
 _atom_site_fract_x
 _atom_site_fract_y
 _atom_site_fract_z
 _atom_site_occupancy
  H+  H0  1  0.18231446  0.03321086  0.49394669  1
  H+  H1  1  0.03678953  0.84726306  0.51465710  1
  H+  H2  1  0.47383874  0.96747739  0.00898271  1
  H+  H3  1  0.76883394  0.20473755  0.15666456  1
  H+  H4  1  0.12679471  0.63118999  0.22578175  1
  H+  H5  1  0.82377246  0.65537602  0.99079643  1
  H+  H6  1  0.62947042  0.83021790  0.25040860  1
  H+  H7  1  0.98740709  0.49902847  0.77557274  1
  H+  H8  1  0.17285918  0.00215279  1.00536531  1
  H+  H9  1  0.49921283  0.31236783  0.73609129  1
  H+  H10  1  0.82564713  -0.04059673  0.51267400  1
  H+  H11  1  0.16492904  0.86799468  1.00712737  1
  H+  H12  1  0.70258317  0.51494693  0.51588748  1
  H+  H13  1  0.80044012  0.80596905  0.73135988  1
  H+  H14  1  0.51473866  0.37322588  0.49279326  1
  H+  H15  1  0.53011154  0.16818207  0.76532388  1
  H+  H16  1  0.18227192  0.14341525  0.76603152  1
  H+  H17  1  0.79423130  0.60910464  0.23972744  1
  H+  H18  1  0.94966430  0.81294189  0.21715133  1
  H+  H19  1  0.37739414  0.53722374  0.47443944  1
  H+  H20  1  0.86758459  0.15413389  0.94640186  1
  H+  H21  1  0.18835390  0.69215169  0.49084767  1
  H+  H22  1  0.83288361  0.18029026  0.53409508  1
  H+  H23  1  0.62006778  0.47493564  0.25835659  1
  H+  H24  1  0.86467643  0.80979302  0.49066863  1
  H+  H25  1  0.15072848  0.84945205  0.74599590  1
  H+  H26  1  0.51824961  0.17845172  0.49339506  1
  H+  H27  1  0.13468657  0.30860735  0.00504963  1
  H+  H28  1  0.60274143  0.75155933  0.77056515  1
  H+  H29  1  0.37835218  0.87518544  0.74660062  1
  H+  H30  1  0.46775476  0.18231840  0.23491578  1
  H+  H31  1  0.16283357  0.86257358  0.51646783  1
  H+  H32  1  0.13019703  0.23669732  0.14614757  1
  H+  H33  1  0.29111867  0.82208576  -0.00502956  1
  H+  H34  1  0.95403626  0.47135143  0.26102865  1
  H+  H35  1  0.13354781  0.85155448  0.23172256  1
  H+  H36  1  0.13587626  0.97242184  0.23757923  1
  H+  H37  1  0.76811335  0.90377959  0.72927411  1
  H+  H38  1  0.28857780  0.46118338  0.79807537  1
  H+  H39  1  0.17593605  0.19149977  0.50575425  1
  H+  H40  1  0.49926915  0.65301769  0.24757048  1
  H+  H41  1  0.38337943  0.19364348  0.00143351  1
  H+  H42  1  0.85386265  0.36282771  0.50748412  1
  H+  H43  1  0.96337438  0.80734230  0.75801141  1
  H+  H44  1  0.13247402  0.51412981  0.51028695  1
  H+  H45  1  0.52093405  0.49343573  0.46878182  1
  H+  H46  1  0.53228562  0.15168170  0.99682298  1
  H+  H47  1  0.52873864  0.04862189  0.76610116  1
  H+  H48  1  0.46476116  0.58450964  0.81561741  1
  H+  H49  1  0.64494025  0.82868264  0.47979650  1
  H+  H50  1  0.49226559  0.51877004  0.25115660  1
  H+  H51  1  0.70619717  0.19744877  0.76774215  1
  H+  H52  1  0.81708766  -0.01814064  0.24350597  1
  H+  H53  1  0.61204876  0.80963547  1.00258084  1
  H+  H54  1  0.02377002  0.17945354  0.76822096  1
  H+  H55  1  0.61573911  0.14224921  0.25316902  1
  H+  H56  1  0.49572909  0.81350836  0.99638071  1
  H+  H57  1  0.82753572  0.51295993  0.75433224  1
  H+  H58  1  0.18410330  1.02614744  0.76403279  1
  H+  H59  1  0.84792655  0.68222872  0.76008495  1
  H+  H60  1  0.78656290  0.97248454  0.01541592  1
  H+  H61  1  0.98370999  0.15252847  0.50099254  1
  H+  H62  1  0.97452770  0.16661326  0.25895706  1
  H+  H63  1  0.19059242  0.50529643  0.22975917  1
  H+  H64  1  0.14212515  0.34651612  0.45939825  1
  H+  H65  1  0.29722150  0.74218411  0.43012383  1
  H+  H66  1  0.46248239  0.46352081  0.81269698  1
  H+  H67  1  0.79338794  0.49161911  0.25507950  1
  H+  H68  1  0.55574690  0.79229988  0.34167517  1
  H+  H69  1  0.53196440  0.84127169  0.48606226  1
  H+  H70  1  0.16804196  0.35649266  0.76531327  1
  H+  H71  1  0.86949008  0.38015713  0.79061010  1
  H+  H72  1  0.76876731  0.86016175  0.58823285  1
  H+  H73  1  0.42828584  0.61614940  1.00835474  1
  H+  H74  1  0.18761243  0.16090177  -0.01490466  1
  H+  H75  1  0.71139460  0.51101880  0.98264726  1
  H+  H76  1  0.16197009  0.71061536  0.98825237  1
  H+  H77  1  0.19337517  0.70973789  0.76309524  1
  H+  H78  1  0.85641494  0.18075989  0.79847101  1
  H+  H79  1  0.20956144  0.29932682  0.56879548  1
  H+  H80  1  0.36556653  0.18681958  0.51380138  1
  H+  H81  1  0.55200507  0.47228844  0.71419621  1
  H+  H82  1  0.84429177  0.47670803  0.50017152  1
  H+  H83  1  0.39941931  0.51152657  0.94795096  1
  H+  H84  1  0.28984499  0.14479653  0.25901137  1
  H+  H85  1  0.84954973  0.75072106  0.14794921  1
  H+  H86  1  0.49068502  0.65123125  0.45172566  1
  H+  H87  1  0.85301554  0.06478012  0.82558988  1
  H+  H88  1  0.63614088  0.21451672  0.44386579  1
  H+  H89  1  0.85404622  0.54698561  0.00513319  1
  H+  H90  1  0.27781164  0.81281597  0.25044470  1
  H+  H91  1  0.46381884  0.84444278  0.23821365  1
  H+  H92  1  0.70016606  0.49800118  0.74578562  1
  H+  H93  1  0.38670071  0.87965905  0.51510213  1
  H+  H94  1  0.02300599  0.52430166  0.51916863  1
  H+  H95  1  0.80734570  0.85854052  0.22812902  1
  H+  H96  1  0.54199449  0.43900012  0.34699287  1
  H+  H97  1  0.11616286  0.56436998  0.66020259  1
  H+  H98  1  0.71230909  0.17226902  0.54641397  1
  H+  H99  1  0.86799153  0.69470186  0.50161858  1
  H+  H100  1  0.15812209  0.52244534  0.74671152  1
  H+  H101  1  0.37260647  0.53261696  0.23705050  1
  H+  H102  1  0.77898428  0.54433608  0.60761556  1
  H+  H103  1  0.17462377  0.32364888  0.22838052  1
  H+  H104  1  0.50381644  -0.00289053  0.50953612  1
  H+  H105  1  0.17831265  0.15507439  0.26174566  1
  H+  H106  1  0.05820469  0.37347496  0.40474995  1
  H+  H107  1  0.46557415  0.30022377  0.23734259  1
  H+  H108  1  0.21953125  0.10894153  0.40143282  1
  H+  H109  1  0.55369614  0.36729797  -0.02522263  1
  H+  H110  1  0.37713208  0.18708979  0.74008275  1
  H+  H111  1  0.46228934  0.91713421  0.66177427  1
  H+  H112  1  0.87220305  0.77649788  0.89548807  1
  H+  H113  1  0.02873776  0.18657181  0.02496127  1
  H+  H114  1  0.82437186  0.81298748  -0.01738368  1
  H+  H115  1  0.16934839  0.43635363  0.90223015  1
  H+  H116  1  0.88321171  0.43124957  0.35517031  1
  H+  H117  1  0.42519278  0.88783798  0.09839343  1
  H+  H118  1  0.85195072  0.15890233  0.26555166  1
  H+  H119  1  0.80064998  0.28882325  0.24288936  1
  H+  H120  1  0.08110532  0.19568008  0.66992288  1
  H+  H121  1  0.22673800  0.11442719  0.89771822  1
  H+  H122  1  0.48643422  0.60159925  0.60904961  1
  H+  H123  1  0.79650824  0.23476244  0.68533993  1
  H+  H124  1  0.49630279  0.58552795  0.65588071  1
  H+  H125  1  0.70694718  0.14959216  0.00964779  1
  H+  H126  1  0.44671731  0.22741386  0.60461968  1
  H+  H127  1  0.94210582  0.48579396  0.91999399  1
  H+  H128  1  0.12236259  0.91278409  0.10097508  1
  H+  H129  1  0.53358558  0.10809194  0.33936482  1
  H+  H130  1  0.56513400  0.11237720  0.90553706  1
  H+  H131  1  0.76281557  0.89462362  0.10046289  1
  H+  H132  1  0.24921484  0.48447239  0.98968949  1
  H+  H133  1  0.11185842  0.89095562  0.65777461  1
  H+  H134  1  0.45177945  0.23076784  0.09369281  1
  H+  H135  1  0.22579549  0.79123728  0.84973775  1
  H+  H136  1  0.21615706  0.46143401  0.32174779  1
  H+  H137  1  0.09734504  0.50831737  -0.00414889  1
  H+  H138  1  0.19481838  0.77078425  0.33591087  1
  H+  H139  1  0.53814848  0.74828466  0.86301178  1
  H+  H140  1  0.59083485  0.44012175  0.88097817  1
  H+  H141  1  0.90469409  0.12088043  0.41279073  1
  H+  H142  1  0.46069677  0.96162202  0.23922751  1
  H+  H143  1  0.07670211  0.55061953  0.13886509  1
  O2-  O144  1  0.13088176  0.24050171  0.21417670  1
  O2-  O145  1  0.09796985  0.20695233  0.73517534  1
  O2-  O146  1  0.09198091  0.55012522  0.20523937  1
  O2-  O147  1  0.12030429  0.56705544  0.72769299  1
  O2-  O148  1  0.09859120  0.89591909  0.20577006  1
  O2-  O149  1  0.10703267  0.88810048  0.72558866  1
  O2-  O150  1  0.42541628  0.22052561  0.21244690  1
  O2-  O151  1  0.45490072  0.22489552  0.71330843  1
  O2-  O152  1  0.45859178  0.56917411  0.22585544  1
  O2-  O153  1  0.41677421  0.49959444  0.83197134  1
  O2-  O154  1  0.41812102  0.88015644  0.21804525  1
  O2-  O155  1  0.45989714  0.92171182  0.72846351  1
  O2-  O156  1  0.76008266  0.20643098  0.22404870  1
  O2-  O157  1  0.79168872  0.23792434  0.75249563  1
  O2-  O158  1  0.74766712  0.52555469  0.23233236  1
  O2-  O159  1  0.78384022  0.54631535  0.72545148  1
  O2-  O160  1  0.76797683  0.90360012  0.21783652  1
  O2-  O161  1  0.74628638  0.82949209  0.70302497  1
  O2-  O162  1  0.20990154  0.10617365  0.28441219  1
  O2-  O163  1  0.22678104  0.10726275  0.78696527  1
  O2-  O164  1  0.23736142  0.47332522  0.25641846  1
  O2-  O165  1  0.20439896  0.43559950  0.78910324  1
  O2-  O166  1  0.19464538  0.77385056  0.26868401  1
  O2-  O167  1  0.22924563  0.79165250  0.78220088  1
  O2-  O168  1  0.53301746  0.10425343  0.27217359  1
  O2-  O169  1  0.57131574  0.12999076  0.79162196  1
  O2-  O170  1  0.53634763  0.44172465  0.27902571  1
  O2-  O171  1  0.56266200  0.43045526  0.76379516  1
  O2-  O172  1  0.54858075  0.78313055  0.27357685  1
  O2-  O173  1  0.52744667  0.71746710  0.79998005  1
  O2-  O174  1  0.89842293  0.12501611  0.28895138  1
  O2-  O175  1  0.90125922  0.14760458  0.83021766  1
  O2-  O176  1  0.87587691  0.42602411  0.28771757  1
  O2-  O177  1  0.91175733  0.46266204  0.80816327  1
  O2-  O178  1  0.86424035  0.76791689  0.21274695  1
  O2-  O179  1  0.88175235  0.76498366  0.77898678  1
  O2-  O180  1  0.22380624  0.11382213  0.46971651  1
  O2-  O181  1  0.22772396  0.11868817  0.96682998  1
  O2-  O182  1  0.13664439  0.40916541  0.42774972  1
  O2-  O183  1  0.16391451  0.44010447  0.97009297  1
  O2-  O184  1  0.24480838  0.76413609  0.45718858  1
  O2-  O185  1  0.21049041  0.79219406  0.97058122  1
  O2-  O186  1  0.56683725  0.14684765  0.46528442  1
  O2-  O187  1  0.56583693  0.10509160  0.97381379  1
  O2-  O188  1  0.56249615  0.44979315  0.46396885  1
  O2-  O189  1  0.60277591  0.44472883  0.94825226  1
  O2-  O190  1  0.56511669  0.79850601  0.45557551  1
  O2-  O191  1  0.53189994  0.76730773  0.97999685  1
  O2-  O192  1  0.90361020  0.11683688  0.48083217  1
  O2-  O193  1  0.84652669  0.13018028  1.01119848  1
  O2-  O194  1  0.88889215  0.43918155  0.47803617  1
  O2-  O195  1  0.94181332  0.49331601  0.98878728  1
  O2-  O196  1  0.91257113  0.77453626  0.47882987  1
  O2-  O197  1  0.86606227  0.77319880  0.96340380  1
  O2-  O198  1  0.11265796  0.22948696  0.02824612  1
  O2-  O199  1  0.14655590  0.24321071  0.53127668  1
  O2-  O200  1  0.06407085  0.55906228  0.01635172  1
  O2-  O201  1  0.10602760  0.56364048  0.53803752  1
  O2-  O202  1  0.13209871  0.91794697  0.03130480  1
  O2-  O203  1  0.11973991  0.89848388  0.53791179  1
  O2-  O204  1  0.46191418  0.22882359  0.02650116  1
  O2-  O205  1  0.44656249  0.23089312  0.53486534  1
  O2-  O206  1  0.37871693  0.53188913  0.00759361  1
  O2-  O207  1  0.44816746  0.56701485  0.43985180  1
  O2-  O208  1  0.42391408  0.88645912  0.03050056  1
  O2-  O209  1  0.46822262  0.91790063  0.53257801  1
  O2-  O210  1  0.78565366  0.19220727  0.03824003  1
  O2-  O211  1  0.79393636  0.22020478  0.56084073  1
  O2-  O212  1  0.79448592  0.57067526  0.01308666  1
  O2-  O213  1  0.78221633  0.54705713  0.53929463  1
  O2-  O214  1  0.75962662  0.89202981  0.03242887  1
  O2-  O215  1  0.77888817  0.87551566  0.52119361  1
