# generated using pymatgen
data_H2O
_symmetry_space_group_name_H-M   'P 1'
_cell_length_a   13.54348066
_cell_length_b   13.53819746
_cell_length_c   14.70954299
_cell_angle_alpha   90.04529457
_cell_angle_beta   89.96543752
_cell_angle_gamma   119.94490425
_symmetry_Int_Tables_number   1
_chemical_formula_structural   H2O
_chemical_formula_sum   'H144 O72'
_cell_volume   2337.01577412
_cell_formula_units_Z   72
loop_
 _symmetry_equiv_pos_site_id
 _symmetry_equiv_pos_as_xyz
  1  'x, y, z'
loop_
 _atom_type_symbol
 _atom_type_oxidation_number
  H+  1.0
  O2-  -2.0
loop_
 _atom_site_type_symbol
 _atom_site_label
 _atom_site_symmetry_multiplicity
 _atom_site_fract_x
 _atom_site_fract_y
 _atom_site_fract_z
 _atom_site_occupancy
  H+  H0  1  0.26516416  0.80503185  0.74467053  1
  H+  H1  1  0.93554848  0.49117491  0.75848713  1
  H+  H2  1  0.31028441  0.46563374  0.77407464  1
  H+  H3  1  0.63818044  0.14899895  0.25567084  1
  H+  H4  1  0.35989705  0.52535639  0.23315442  1
  H+  H5  1  0.15708862  0.18377898  0.73938137  1
  H+  H6  1  0.53257444  0.71387879  1.00664578  1
  H+  H7  1  0.81560836  0.83970498  0.50997183  1
  H+  H8  1  0.22657930  0.13390290  0.34345897  1
  H+  H9  1  0.88854269  0.78025610  0.87399557  1
  H+  H10  1  0.84956060  0.33732732  1.01108908  1
  H+  H11  1  0.86916707  0.16943748  0.78525150  1
  H+  H12  1  0.42209420  0.87201745  0.16629158  1
  H+  H13  1  0.04417976  0.15939721  0.08739174  1
  H+  H14  1  0.22151907  0.38301023  0.48166075  1
  H+  H15  1  0.70747115  0.53678385  0.24287174  1
  H+  H16  1  0.51260737  0.81636300  0.26579101  1
  H+  H17  1  0.87783319  0.37945197  0.49193889  1
  H+  H18  1  0.47932110  0.97483248  0.74893724  1
  H+  H19  1  0.14813643  0.47207261  0.99971900  1
  H+  H20  1  0.82704777  0.19248283  0.24027073  1
  H+  H21  1  0.18355696  0.16150872  0.48796514  1
  H+  H22  1  0.83513005  0.69300901  0.75617308  1
  H+  H23  1  0.10157540  0.21614078  0.60749050  1
  H+  H24  1  0.26594673  0.15147677  0.98774904  1
  H+  H25  1  0.79406840  0.51221069  0.74361267  1
  H+  H26  1  0.83032516  0.52090610  0.50966975  1
  H+  H27  1  0.28478615  0.80497675  0.98750713  1
  H+  H28  1  0.94142264  0.12035781  0.49284790  1
  H+  H29  1  0.63661905  0.81129396  0.49423303  1
  H+  H30  1  0.83084380  0.18011921  0.52093034  1
  H+  H31  1  0.73790740  0.89124826  0.75056220  1
  H+  H32  1  0.07394917  0.27279923  0.52507435  1
  H+  H33  1  0.59739681  0.09589872  0.48677354  1
  H+  H34  1  0.71205968  0.87160082  0.25654674  1
  H+  H35  1  0.46679769  0.83486905  0.02557064  1
  H+  H36  1  0.54940189  0.47298799  0.99562473  1
  H+  H37  1  0.30277123  0.16141556  0.48720869  1
  H+  H38  1  0.13844449  -0.03712945  0.98496544  1
  H+  H39  1  0.46132794  0.59459423  0.72153975  1
  H+  H40  1  0.46803160  0.16492409  0.50580626  1
  H+  H41  1  0.32931164  0.50401026  0.47973591  1
  H+  H42  1  0.15058880  0.86520504  0.47359267  1
  H+  H43  1  0.83268302  0.36461786  0.76798820  1
  H+  H44  1  0.47741273  -0.03611563  0.24564785  1
  H+  H45  1  -0.01265388  0.50032045  0.48213920  1
  H+  H46  1  0.41597077  0.15661739  0.01132388  1
  H+  H47  1  0.74166383  0.18916674  1.02508205  1
  H+  H48  1  0.52635634  0.38064950  0.24812662  1
  H+  H49  1  0.97454960  0.17293950  0.24138266  1
  H+  H50  1  0.78131879  0.57738100  0.10379663  1
  H+  H51  1  -0.01242021  0.17107176  0.77453258  1
  H+  H52  1  0.81726877  0.30761243  0.24515538  1
  H+  H53  1  0.96365169  0.81925038  0.48765177  1
  H+  H54  1  0.19855387  0.79162003  0.54164169  1
  H+  H55  1  0.47418879  0.48369422  0.73494821  1
  H+  H56  1  0.08297735  0.49690021  0.71651653  1
  H+  H57  1  0.36423650  0.18476605  0.73107234  1
  H+  H58  1  0.46488816  0.94960246  0.03150834  1
  H+  H59  1  0.15045585  0.85761133  0.25823357  1
  H+  H60  1  0.15623323  -0.02198194  0.25077083  1
  H+  H61  1  0.74282257  0.22862788  0.52421667  1
  H+  H62  1  0.64336283  0.46833073  0.49735624  1
  H+  H63  1  0.70427333  0.18605487  0.73792900  1
  H+  H64  1  0.48884047  0.29457070  0.50774965  1
  H+  H65  1  0.31169898  0.16497648  0.25861411  1
  H+  H66  1  0.14894575  0.62917635  0.00548259  1
  H+  H67  1  0.85673314  0.71617921  0.26810407  1
  H+  H68  1  0.57747538  0.15176984  0.98513990  1
  H+  H69  1  0.45166322  0.28941272  0.00601269  1
  H+  H70  1  0.51989348  0.49432516  0.24234167  1
  H+  H71  1  0.96545923  0.48580085  0.25467468  1
  H+  H72  1  0.13948313  0.86605210  0.72033230  1
  H+  H73  1  0.57889840  0.75234206  0.78130948  1
  H+  H74  1  0.80455288  0.24764321  0.12053623  1
  H+  H75  1  0.09756012  0.32574981  0.97866222  1
  H+  H76  1  -0.02774155  0.48314609  -0.00790468  1
  H+  H77  1  0.14561971  0.64031970  0.24104872  1
  H+  H78  1  0.20305310  0.28846453  0.14934744  1
  H+  H79  1  0.15615026  0.30183236  0.74370268  1
  H+  H80  1  0.48775011  0.18416386  0.23767195  1
  H+  H81  1  0.14577479  0.69174070  0.74688805  1
  H+  H82  1  0.34024718  0.81872939  0.50522469  1
  H+  H83  1  0.21469403  0.49717226  0.78264408  1
  H+  H84  1  0.88402626  0.77954204  0.40076914  1
  H+  H85  1  0.54669054  0.84953742  0.77098159  1
  H+  H86  1  0.82123581  0.63462936  0.50845362  1
  H+  H87  1  0.29347918  0.81259232  0.27760793  1
  H+  H88  1  0.86074057  0.82365378  0.75383637  1
  H+  H89  1  0.51342388  0.80422956  0.48959467  1
  H+  H90  1  0.82000700  0.01170901  0.50066272  1
  H+  H91  1  0.52681679  0.46787904  0.48395592  1
  H+  H92  1  0.85716899  0.83856898  -0.03365158  1
  H+  H93  1  0.15336450  -0.01571077  0.48380456  1
  H+  H94  1  0.16642940  0.64994060  0.50422207  1
  H+  H95  1  0.41410325  0.87080017  0.81410545  1
  H+  H96  1  0.51096541  0.35663266  0.74886019  1
  H+  H97  1  0.82327334  0.53280264  0.24827202  1
  H+  H98  1  0.81439111  0.64847480  0.01496641  1
  H+  H99  1  0.50778559  0.15822517  0.73252000  1
  H+  H100  1  0.72272160  0.87593979  0.00742013  1
  H+  H101  1  0.40538569  0.52597046  0.00502476  1
  H+  H102  1  0.17302062  0.19282042  0.22381804  1
  H+  H103  1  0.47771915  -0.00922883  0.48091705  1
  H+  H104  1  0.13354859  0.84094541  -0.00780800  1
  H+  H105  1  0.96373205  0.17844225  0.91929989  1
  H+  H106  1  0.50030288  0.63563484  0.50146238  1
  H+  H107  1  0.19110561  0.04656544  0.74025956  1
  H+  H108  1  -0.01795426  0.83174874  -0.02910948  1
  H+  H109  1  0.14695317  0.52289760  0.23736258  1
  H+  H110  1  0.21161543  0.76807388  0.36382448  1
  H+  H111  1  0.55161743  0.10297961  0.34057342  1
  H+  H112  1  0.08545838  0.56003908  0.62655325  1
  H+  H113  1  0.62498610  0.48102200  0.75172971  1
  H+  H114  1  0.43663199  0.86672668  0.58777144  1
  H+  H115  1  0.20581876  0.76535242  0.89644640  1
  H+  H116  1  0.11190657  0.55791137  0.10114811  1
  H+  H117  1  0.13540314  0.12061638  0.97399252  1
  H+  H118  1  0.76920147  0.55374747  0.64826472  1
  H+  H119  1  0.85993430  0.99679289  0.74839538  1
  H+  H120  1  0.80182185  0.23378667  0.66268958  1
  H+  H121  1  0.17540983  0.37063756  0.25960002  1
  H+  H122  1  0.78605781  0.88662485  0.60100987  1
  H+  H123  1  0.84956260  0.97589448  0.02964469  1
  H+  H124  1  0.16190332  0.52448691  0.50787749  1
  H+  H125  1  0.46075237  0.56819458  0.10213917  1
  H+  H126  1  0.12746483  0.91593543  0.62494809  1
  H+  H127  1  0.43608216  0.22022306  0.15379787  1
  H+  H128  1  0.22317920  0.45344454  0.34584463  1
  H+  H129  1  0.89370069  0.44740435  0.34690083  1
  H+  H130  1  0.43914593  0.21954378  0.63758701  1
  H+  H131  1  0.56925477  0.80350055  0.92497014  1
  H+  H132  1  0.20123427  0.42657657  0.91308736  1
  H+  H133  1  0.88197284  0.43673667  0.90644848  1
  H+  H134  1  0.45026651  0.54179821  0.58242561  1
  H+  H135  1  0.86240966  0.05669795  0.26439836  1
  H+  H136  1  0.82960603  0.87377998  0.26116291  1
  H+  H137  1  -0.02362744  0.83455702  0.27276500  1
  H+  H138  1  0.55508446  0.77193658  0.34933409  1
  H+  H139  1  0.48043454  0.64284947  0.23814302  1
  H+  H140  1  0.22061920  0.11596297  0.83608351  1
  H+  H141  1  0.53906740  0.41978216  0.89734299  1
  H+  H142  1  0.55177538  0.13776772  0.82395285  1
  H+  H143  1  0.61012747  0.06933778  0.93593738  1
  O2-  O144  1  0.14026241  0.23543728  0.18793396  1
  O2-  O145  1  0.11282256  0.22328107  0.71979994  1
  O2-  O146  1  0.10817662  0.56288145  0.21146176  1
  O2-  O147  1  0.06807945  0.55633183  0.69544433  1
  O2-  O148  1  0.10932698  0.89611759  0.23629824  1
  O2-  O149  1  0.13261870  0.92790553  0.69170131  1
  O2-  O150  1  0.44610917  0.22489418  0.22079976  1
  O2-  O151  1  0.44469693  0.22236278  0.70680161  1
  O2-  O152  1  0.43924934  0.56440872  0.21009092  1
  O2-  O153  1  0.42163544  0.51310941  0.70947350  1
  O2-  O154  1  0.43167193  0.88005282  0.23326571  1
  O2-  O155  1  0.44205067  0.88920794  0.75164326  1
  O2-  O156  1  0.78017707  0.22877589  0.21767107  1
  O2-  O157  1  0.78818202  0.22920176  0.73012090  1
  O2-  O158  1  0.79145750  0.58108908  0.22855440  1
  O2-  O159  1  0.75829288  0.55403409  0.71610923  1
  O2-  O160  1  0.79342871  0.91846011  0.24060747  1
  O2-  O161  1  0.81374226  0.91929363  0.72241135  1
  O2-  O162  1  0.22909929  0.13165767  0.27568757  1
  O2-  O163  1  0.23018632  0.12620408  0.76870950  1
  O2-  O164  1  0.21452888  0.45152860  0.27819743  1
  O2-  O165  1  0.23338379  0.44023947  0.80387962  1
  O2-  O166  1  0.21168393  0.76990426  0.29641837  1
  O2-  O167  1  0.19038442  0.76912945  0.77453811  1
  O2-  O168  1  0.55569398  0.10744229  0.27323497  1
  O2-  O169  1  0.55025481  0.11910156  0.75974165  1
  O2-  O170  1  0.56808469  0.46277861  0.26222885  1
  O2-  O171  1  0.54381177  0.43558339  0.77452269  1
  O2-  O172  1  0.55410780  0.77523253  0.28165962  1
  O2-  O173  1  0.60069195  0.82939075  0.80054171  1
  O2-  O174  1  0.90172383  0.14214466  0.27273282  1
  O2-  O175  1  0.91497464  0.13710581  0.81066772  1
  O2-  O176  1  0.88640744  0.44336774  0.27919940  1
  O2-  O177  1  0.86328298  0.44418464  0.79196808  1
  O2-  O178  1  0.89478524  0.79495421  0.29502781  1
  O2-  O179  1  0.88499387  0.77156406  0.78051451  1
  O2-  O180  1  0.22379313  0.12498128  0.46052429  1
  O2-  O181  1  0.19495110  0.10420803  0.95163321  1
  O2-  O182  1  0.24510889  0.46078037  0.46230675  1
  O2-  O183  1  0.17018752  0.41046035  0.97729986  1
  O2-  O184  1  0.22503871  0.77026195  0.48725607  1
  O2-  O185  1  0.20491930  0.76150827  0.96402400  1
  O2-  O186  1  0.52265096  0.07419626  0.46204614  1
  O2-  O187  1  0.59702455  0.09229330  0.99562654  1
  O2-  O188  1  0.56191721  0.41936331  0.48063162  1
  O2-  O189  1  0.52965233  0.40215969  0.96309715  1
  O2-  O190  1  0.55760697  0.76732287  0.46853466  1
  O2-  O191  1  0.56170570  0.79662350  0.99177656  1
  O2-  O192  1  0.86025119  0.09491118  0.48487676  1
  O2-  O193  1  0.99907900  0.21451946  0.98029360  1
  O2-  O194  1  0.90462827  0.45549098  0.46443213  1
  O2-  O195  1  0.89140210  0.43182548  0.97363904  1
  O2-  O196  1  0.88188514  0.77418657  0.47053786  1
  O2-  O197  1  0.89453508  0.79181400  0.94726044  1
  O2-  O198  1  0.01882989  0.12809986  0.02444492  1
  O2-  O199  1  0.09745182  0.21714425  0.53880082  1
  O2-  O200  1  0.11069761  0.54963026  0.03200746  1
  O2-  O201  1  0.11818660  0.56240106  0.52505537  1
  O2-  O202  1  0.09163485  0.88206350  0.00482436  1
  O2-  O203  1  0.11356170  0.90260325  0.50468189  1
  O2-  O204  1  0.39780887  0.21172455  0.03726776  1
  O2-  O205  1  0.43587494  0.21165700  0.52913385  1
  O2-  O206  1  0.47802364  0.57540771  0.03443918  1
  O2-  O207  1  0.45611111  0.55109128  0.51588916  1
  O2-  O208  1  0.41663354  0.86747338  0.04298910  1
  O2-  O209  1  0.43174739  0.86324904  0.52157646  1
  O2-  O210  1  0.81542196  0.24952079  0.04913978  1
  O2-  O211  1  0.81634861  0.24371157  0.54740140  1
  O2-  O212  1  0.76631999  0.57104381  0.03755532  1
  O2-  O213  1  0.78587846  0.55559859  0.53425762  1
  O2-  O214  1  0.80309112  0.91404275  -0.01254394  1
  O2-  O215  1  0.77203925  0.87696258  0.53461869  1
