# generated using pymatgen
data_H2O
_symmetry_space_group_name_H-M   'P 1'
_cell_length_a   13.48831797
_cell_length_b   13.50023189
_cell_length_c   14.68525192
_cell_angle_alpha   90.01384825
_cell_angle_beta   89.98585709
_cell_angle_gamma   120.00132751
_symmetry_Int_Tables_number   1
_chemical_formula_structural   H2O
_chemical_formula_sum   'H144 O72'
_cell_volume   2315.82228846
_cell_formula_units_Z   72
loop_
 _symmetry_equiv_pos_site_id
 _symmetry_equiv_pos_as_xyz
  1  'x, y, z'
loop_
 _atom_type_symbol
 _atom_type_oxidation_number
  H+  1.0
  O2-  -2.0
loop_
 _atom_site_type_symbol
 _atom_site_label
 _atom_site_symmetry_multiplicity
 _atom_site_fract_x
 _atom_site_fract_y
 _atom_site_fract_z
 _atom_site_occupancy
  H+  H0  1  0.63614084  0.47820088  0.99291594  1
  H+  H1  1  0.13900168  0.02404571  0.49432584  1
  H+  H2  1  0.85997648  0.97401867  0.03841799  1
  H+  H3  1  0.50944954  0.35168073  0.47738456  1
  H+  H4  1  0.86185567  1.02244048  0.71712642  1
  H+  H5  1  0.16966578  0.34594500  0.76071752  1
  H+  H6  1  0.17716989  0.90721923  0.66872881  1
  H+  H7  1  0.29536881  0.81303090  0.76212651  1
  H+  H8  1  0.96257474  0.14008798  0.26607273  1
  H+  H9  1  0.16061805  0.85462076  0.00883616  1
  H+  H10  1  0.63929191  0.80111628  0.47778734  1
  H+  H11  1  0.35711753  0.17383856  0.23889973  1
  H+  H12  1  0.47541554  0.96143134  0.74293136  1
  H+  H13  1  0.56266773  0.44378357  0.90083739  1
  H+  H14  1  0.85156392  0.36394750  -0.01191323  1
  H+  H15  1  0.21138520  0.44334285  0.40893377  1
  H+  H16  1  0.70526962  0.52143752  0.24209570  1
  H+  H17  1  0.16519603  0.48416991  0.26868394  1
  H+  H18  1  0.17686014  0.47586268  0.99202177  1
  H+  H19  1  0.83667437  0.37568572  0.75320626  1
  H+  H20  1  0.64002601  0.15683659  0.51300498  1
  H+  H21  1  0.84420883  0.15438767  0.99133922  1
  H+  H22  1  0.03670637  0.14157312  0.72191959  1
  H+  H23  1  0.43270037  0.52586151  0.64702903  1
  H+  H24  1  0.74918441  0.83249694  0.62554352  1
  H+  H25  1  0.55035643  0.10338732  0.84809294  1
  H+  H26  1  0.52484119  0.80801244  0.48719274  1
  H+  H27  1  0.51583082  0.36854558  0.24502460  1
  H+  H28  1  0.46073365  0.17142433  0.53346619  1
  H+  H29  1  0.42360305  0.79436864  0.03206592  1
  H+  H30  1  0.82694233  0.22994217  0.74742819  1
  H+  H31  1  0.57035071  0.90864701  1.00180614  1
  H+  H32  1  0.81920470  0.51223950  0.01274927  1
  H+  H33  1  0.16073364  0.36419546  0.26834890  1
  H+  H34  1  0.30675985  0.82754591  0.99941543  1
  H+  H35  1  0.84978017  0.48340832  0.25991418  1
  H+  H36  1  1.00057499  0.24827770  0.76178115  1
  H+  H37  1  0.14865931  0.62039611  0.75119890  1
  H+  H38  1  0.86025599  0.37030647  0.25604103  1
  H+  H39  1  0.17042527  0.79953993  0.76546030  1
  H+  H40  1  0.48133555  0.29069032  1.00402382  1
  H+  H41  1  0.17822170  0.14057397  0.00643644  1
  H+  H42  1  0.48576542  0.95848774  0.51545598  1
  H+  H43  1  0.19346935  0.00593145  0.26756113  1
  H+  H44  1  0.69506692  0.51846576  0.75037963  1
  H+  H45  1  0.78739274  0.81327761  0.72361441  1
  H+  H46  1  0.47951967  0.18534790  0.74764995  1
  H+  H47  1  0.81924365  0.30291803  0.50779436  1
  H+  H48  1  0.82479983  0.51770677  0.74817345  1
  H+  H49  1  0.15650623  0.71898239  0.24506088  1
  H+  H50  1  1.00628324  0.80583969  0.26828045  1
  H+  H51  1  0.61029305  0.77730195  0.73365136  1
  H+  H52  1  0.28337443  0.81955417  0.50468166  1
  H+  H53  1  0.17179455  0.36239620  0.49713171  1
  H+  H54  1  0.33482157  0.45970758  1.02328168  1
  H+  H55  1  0.81640484  0.51303228  0.50434210  1
  H+  H56  1  0.03493913  0.52177365  0.01164853  1
  H+  H57  1  0.46409245  0.60512302  0.73396421  1
  H+  H58  1  0.62747441  0.80773274  0.25707638  1
  H+  H59  1  0.44471307  0.84023252  0.23547572  1
  H+  H60  1  0.53093274  0.36988482  0.76082740  1
  H+  H61  1  1.03545856  0.84929094  1.00806824  1
  H+  H62  1  0.06471678  0.89631724  0.62388455  1
  H+  H63  1  0.50994164  0.02296706  0.99269960  1
  H+  H64  1  0.52399092  0.48470880  0.75566245  1
  H+  H65  1  0.44059766  0.87438582  0.59860014  1
  H+  H66  1  0.97771811  0.81052257  0.76125410  1
  H+  H67  1  0.14274303  0.49866769  0.74998524  1
  H+  H68  1  0.54338420  0.76194894  0.34038344  1
  H+  H69  1  0.14352165  0.16788576  0.24848338  1
  H+  H70  1  0.96060385  0.15039221  0.49686850  1
  H+  H71  1  0.36579312  0.19798756  0.74444246  1
  H+  H72  1  0.28124873  0.84315553  0.23942099  1
  H+  H73  1  0.17195052  0.69707854  0.51177444  1
  H+  H74  1  0.82826944  0.64634617  0.75425137  1
  H+  H75  1  0.47022477  0.83915794  0.74159686  1
  H+  H76  1  0.49405550  0.63766906  0.23025937  1
  H+  H77  1  0.47910592  0.61656844  0.51580306  1
  H+  H78  1  0.15347605  0.64048741  0.01188156  1
  H+  H79  1  0.43576724  0.52635972  0.14524309  1
  H+  H80  1  0.83106244  0.63490198  0.24903538  1
  H+  H81  1  0.30003502  0.14045582  0.00137780  1
  H+  H82  1  0.55738493  0.43613912  0.34007225  1
  H+  H83  1  0.63480885  0.46488054  0.47409446  1
  H+  H84  1  0.49722774  0.68865376  0.01033672  1
  H+  H85  1  0.35561234  0.50577709  0.51551217  1
  H+  H86  1  0.49588749  0.67125918  0.96128254  1
  H+  H87  1  0.73387511  0.88360711  1.02396017  1
  H+  H88  1  0.16505543  -0.00652792  1.00779544  1
  H+  H89  1  0.27111956  0.13082123  0.50149131  1
  H+  H90  1  0.03049373  0.17125038  0.01155665  1
  H+  H91  1  0.51060813  0.14110677  0.99238353  1
  H+  H92  1  0.62682056  0.14928596  0.75792316  1
  H+  H93  1  0.83223414  0.84103959  0.26210092  1
  H+  H94  1  0.14951623  0.51210033  0.51488378  1
  H+  H95  1  0.82105849  0.17778154  0.23687050  1
  H+  H96  1  0.18317296  1.05850040  0.73678762  1
  H+  H97  1  0.85757771  0.69149198  0.99820092  1
  H+  H98  1  0.81845894  0.03916789  0.73098221  1
  H+  H99  1  0.69716580  0.17897499  0.00888892  1
  H+  H100  1  0.45732729  0.46150727  0.02046001  1
  H+  H101  1  -0.03601804  0.48668294  0.75755940  1
  H+  H102  1  0.03135724  0.54383856  0.24273361  1
  H+  H103  1  0.13391044  0.18301463  0.51076177  1
  H+  H104  1  0.49975725  1.01681070  0.22503311  1
  H+  H105  1  0.86030862  0.81164601  0.99899607  1
  H+  H106  1  0.19000096  0.17906547  0.73790319  1
  H+  H107  1  0.14483429  0.29072663  0.01397987  1
  H+  H108  1  0.55688924  0.08907063  0.31149013  1
  H+  H109  1  0.42748887  0.22864052  0.61014326  1
  H+  H110  1  0.78194693  0.55412330  0.10244915  1
  H+  H111  1  0.87082314  0.87634393  0.51893824  1
  H+  H112  1  0.43908412  0.21667117  0.09588300  1
  H+  H113  1  0.09504142  0.22289782  0.60339368  1
  H+  H114  1  0.42215316  0.87711280  0.13275221  1
  H+  H115  1  0.10587676  0.54516449  0.60515379  1
  H+  H116  1  0.81432782  0.18034684  0.51236035  1
  H+  H117  1  0.10561700  0.20908238  0.16072990  1
  H+  H118  1  0.90591014  0.77236454  0.85651235  1
  H+  H119  1  0.82330888  0.05110194  0.92953554  1
  H+  H120  1  0.79450791  0.87590564  0.17088674  1
  H+  H121  1  0.88897747  0.44618932  0.90127165  1
  H+  H122  1  0.77009959  0.23268871  0.65106470  1
  H+  H123  1  0.21056404  0.42876456  0.90262271  1
  H+  H124  1  0.88032660  0.10669410  0.40805369  1
  H+  H125  1  0.08939347  0.80762472  0.49006407  1
  H+  H126  1  0.89515537  0.44438455  0.40328554  1
  H+  H127  1  0.82643872  0.96384337  0.50835689  1
  H+  H128  1  0.54104287  0.73837061  0.82826585  1
  H+  H129  1  0.21594108  0.09176152  0.35129748  1
  H+  H130  1  0.50316684  0.51395459  0.24065135  1
  H+  H131  1  0.77701469  0.56537824  0.58274904  1
  H+  H132  1  0.22620973  0.78445357  0.90931094  1
  H+  H133  1  0.29258125  0.45886415  0.76089162  1
  H+  H134  1  0.54764640  0.13785749  0.43861675  1
  H+  H135  1  -0.02900882  0.48186529  0.49450387  1
  H+  H136  1  0.47725285  0.17900226  0.22841181  1
  H+  H137  1  0.78322718  0.22265818  0.09521521  1
  H+  H138  1  0.84524912  1.02085511  0.26948409  1
  H+  H139  1  0.93994166  0.77739444  0.36127589  1
  H+  H140  1  0.70446198  0.17992814  0.22453343  1
  H+  H141  1  0.61689078  0.89301965  0.90802645  1
  H+  H142  1  0.93257826  0.21038996  0.85578149  1
  H+  H143  1  0.11170053  0.58276724  0.15371233  1
  O2-  O144  1  0.10214565  0.20766530  0.22840159  1
  O2-  O145  1  0.09335002  0.22030096  0.70717284  1
  O2-  O146  1  0.11170456  0.59638820  0.22085086  1
  O2-  O147  1  0.10334981  0.54078314  0.72832022  1
  O2-  O148  1  0.14126556  0.86545586  0.23152782  1
  O2-  O149  1  0.10450867  0.89956554  0.68837657  1
  O2-  O150  1  0.43566823  0.21947530  0.21114811  1
  O2-  O151  1  0.45061239  0.23687169  0.72803089  1
  O2-  O152  1  0.45964864  0.55329769  0.21376766  1
  O2-  O153  1  0.43438224  0.52411189  0.71730164  1
  O2-  O154  1  0.41149567  0.88305416  0.20667393  1
  O2-  O155  1  0.42975679  0.88005730  0.72140098  1
  O2-  O156  1  0.78745727  0.22300640  0.21001174  1
  O2-  O157  1  0.76397592  0.23967715  0.71841945  1
  O2-  O158  1  0.78631085  0.55741439  0.22045119  1
  O2-  O159  1  0.78179312  0.56243681  0.72944897  1
  O2-  O160  1  0.78642561  0.87449158  0.23826962  1
  O2-  O161  1  0.72019026  0.79586396  0.68683550  1
  O2-  O162  1  0.22182120  0.08871528  0.28353357  1
  O2-  O163  1  0.23019684  0.13729121  0.75918655  1
  O2-  O164  1  0.20041071  0.44200657  0.29426078  1
  O2-  O165  1  0.21366798  0.42594555  0.78651271  1
  O2-  O166  1  0.20042875  0.80555082  0.26731873  1
  O2-  O167  1  0.21632227  0.76799587  0.78996466  1
  O2-  O168  1  0.55207601  0.09912502  0.24638036  1
  O2-  O169  1  0.54600270  0.10218355  0.78028208  1
  O2-  O170  1  0.55886513  0.44776105  0.26988347  1
  O2-  O171  1  0.57353160  0.45339472  0.78026828  1
  O2-  O172  1  0.54456282  0.76524042  0.27198389  1
  O2-  O173  1  0.53379381  0.75607380  0.76519450  1
  O2-  O174  1  0.88059614  0.10329062  0.28628922  1
  O2-  O175  1  0.94182974  0.25466878  0.80031329  1
  O2-  O176  1  0.89684654  0.44913065  0.28121044  1
  O2-  O177  1  0.88225805  0.45627552  0.77813112  1
  O2-  O178  1  0.92590657  0.77362577  0.29483661  1
  O2-  O179  1  0.90026214  0.76588297  0.78840098  1
  O2-  O180  1  0.19676151  0.10155059  0.46946771  1
  O2-  O181  1  0.21585487  0.09621493  0.98624193  1
  O2-  O182  1  0.21559587  0.44450301  0.47719905  1
  O2-  O183  1  0.20815229  0.42689411  0.97114576  1
  O2-  O184  1  0.19917802  0.77976938  0.50256817  1
  O2-  O185  1  0.22421906  0.78714539  0.97708756  1
  O2-  O186  1  0.55446744  0.11276231  0.49912477  1
  O2-  O187  1  0.55320187  0.10252206  0.97004707  1
  O2-  O188  1  0.56200494  0.41782717  0.43982978  1
  O2-  O189  1  0.55664677  0.43395731  0.96825652  1
  O2-  O190  1  0.55844148  0.76446127  0.45850287  1
  O2-  O191  1  0.64165133  0.91880099  0.97013092  1
  O2-  O192  1  0.87775188  0.10579001  0.47589969  1
  O2-  O193  1  0.88413974  0.11427652  0.96394790  1
  O2-  O194  1  0.89007529  0.43980524  0.47095257  1
  O2-  O195  1  0.89166771  0.44602034  0.96894812  1
  O2-  O196  1  1.02211453  0.90097992  0.53331971  1
  O2-  O197  1  0.90024918  0.77223125  0.97387698  1
  O2-  O198  1  0.10808339  0.21022403  0.03793688  1
  O2-  O199  1  0.09377505  0.22372334  0.53224254  1
  O2-  O200  1  0.11449337  0.56085265  0.03640995  1
  O2-  O201  1  0.10596804  0.55016555  0.53768625  1
  O2-  O202  1  0.11793087  0.89583310  0.02769115  1
  O2-  O203  1  0.01311971  0.80294214  0.48164909  1
  O2-  O204  1  0.43906854  0.21050178  0.02758111  1
  O2-  O205  1  0.41885020  0.21310234  0.54319267  1
  O2-  O206  1  0.40095382  0.46824599  0.05988161  1
  O2-  O207  1  0.43390426  0.53946270  0.54219302  1
  O2-  O208  1  0.43775820  0.87221812  0.04012325  1
  O2-  O209  1  0.44651203  0.87605986  0.53100639  1
  O2-  O210  1  0.77980736  0.22139070  0.02671392  1
  O2-  O211  1  0.77541593  0.22331705  0.53381417  1
  O2-  O212  1  0.77948411  0.55388042  0.03413549  1
  O2-  O213  1  0.76805920  0.54772287  0.51797023  1
  O2-  O214  1  0.80626574  0.89260245  0.05052389  1
  O2-  O215  1  0.79979932  0.88167051  0.52196909  1
