# generated using pymatgen
data_H2O
_symmetry_space_group_name_H-M   'P 1'
_cell_length_a   13.51332518
_cell_length_b   13.52371171
_cell_length_c   14.67614683
_cell_angle_alpha   89.98839625
_cell_angle_beta   90.07862971
_cell_angle_gamma   119.99340461
_symmetry_Int_Tables_number   1
_chemical_formula_structural   H2O
_chemical_formula_sum   'H144 O72'
_cell_volume   2322.89294108
_cell_formula_units_Z   72
loop_
 _symmetry_equiv_pos_site_id
 _symmetry_equiv_pos_as_xyz
  1  'x, y, z'
loop_
 _atom_type_symbol
 _atom_type_oxidation_number
  H+  1.0
  O2-  -2.0
loop_
 _atom_site_type_symbol
 _atom_site_label
 _atom_site_symmetry_multiplicity
 _atom_site_fract_x
 _atom_site_fract_y
 _atom_site_fract_z
 _atom_site_occupancy
  H+  H0  1  0.83536701  0.49903881  -0.00085437  1
  H+  H1  1  0.00061410  0.91638310  0.03877778  1
  H+  H2  1  0.17020034  0.03293385  0.76582003  1
  H+  H3  1  0.82839460  0.46854143  0.51628263  1
  H+  H4  1  0.58727542  0.12985575  0.83088567  1
  H+  H5  1  0.80897564  0.61941088  0.52319450  1
  H+  H6  1  0.53840418  0.16747837  0.97217779  1
  H+  H7  1  0.13528771  0.84748200  0.74775701  1
  H+  H8  1  0.38966145  0.85253422  0.73814952  1
  H+  H9  1  0.17261061  0.52692018  0.22910217  1
  H+  H10  1  0.34927814  0.49587966  0.73612360  1
  H+  H11  1  0.83878764  0.47439007  0.73792693  1
  H+  H12  1  0.71591198  0.84762728  0.52966464  1
  H+  H13  1  0.70721446  0.18613419  0.00442673  1
  H+  H14  1  0.51360705  0.84642237  0.98092340  1
  H+  H15  1  0.37199366  0.17972618  0.24451163  1
  H+  H16  1  0.80801248  0.73064256  0.22918012  1
  H+  H17  1  0.97199108  0.82474550  0.73943632  1
  H+  H18  1  0.29801135  0.14565674  0.49265750  1
  H+  H19  1  1.00207176  0.87307187  1.00742200  1
  H+  H20  1  0.53269208  1.04580287  -0.03629568  1
  H+  H21  1  0.35625553  0.54516257  0.51926762  1
  H+  H22  1  0.52107573  0.35288664  0.48983732  1
  H+  H23  1  0.53197458  0.36791724  0.98071172  1
  H+  H24  1  0.21378609  0.05051411  0.99727364  1
  H+  H25  1  0.81947797  0.59387962  0.25572869  1
  H+  H26  1  0.54072556  0.81917294  0.76822946  1
  H+  H27  1  0.82012756  0.29021227  0.22874771  1
  H+  H28  1  0.11924549  0.25988819  0.49567090  1
  H+  H29  1  0.82780547  0.13410056  0.51499739  1
  H+  H30  1  0.50169885  0.19069411  0.72492643  1
  H+  H31  1  0.37817392  0.52085482  0.27176563  1
  H+  H32  1  0.18143413  0.64914995  0.98815683  1
  H+  H33  1  0.56386990  0.78795799  0.91016857  1
  H+  H34  1  0.20515699  0.42956466  0.83435102  1
  H+  H35  1  0.22386680  0.11520142  0.35051131  1
  H+  H36  1  0.01733825  0.16515354  -0.00318694  1
  H+  H37  1  0.80061774  0.28908361  0.54911906  1
  H+  H38  1  0.91477908  0.65814452  0.94488941  1
  H+  H39  1  0.76885089  0.54226965  0.65378502  1
  H+  H40  1  0.82438114  1.03252406  0.26729520  1
  H+  H41  1  0.61979790  0.14239898  0.50293841  1
  H+  H42  1  -0.02933207  0.47425673  0.72885938  1
  H+  H43  1  0.28370298  0.81149055  0.52229275  1
  H+  H44  1  0.42608098  0.85261207  0.45620390  1
  H+  H45  1  0.97974069  0.81593253  0.50921915  1
  H+  H46  1  0.45752311  0.64679180  0.03505763  1
  H+  H47  1  0.83668631  0.85392008  0.52611959  1
  H+  H48  1  0.48657296  0.97613081  0.50078655  1
  H+  H49  1  0.68704502  0.49671746  0.51234456  1
  H+  H50  1  -0.17611080  0.15932355  0.25869681  1
  H+  H51  1  0.16381100  0.69085868  0.51517233  1
  H+  H52  1  1.03985779  0.85618932  0.23124767  1
  H+  H53  1  0.14975393  0.97107009  0.51277032  1
  H+  H54  1  0.49000340  0.64636872  0.52884430  1
  H+  H55  1  0.16773574  0.47544976  0.96549744  1
  H+  H56  1  0.37913435  0.19514962  1.00891042  1
  H+  H57  1  0.43985889  0.21850578  0.59540351  1
  H+  H58  1  0.48897440  -0.01188644  0.28584851  1
  H+  H59  1  0.66344173  0.83780277  0.78349099  1
  H+  H60  1  0.17266949  0.13461861  0.49247720  1
  H+  H61  1  0.20407409  0.42065160  0.51952081  1
  H+  H62  1  0.16269125  0.16264984  0.75764093  1
  H+  H63  1  0.29641136  0.96650125  1.06936415  1
  H+  H64  1  0.17802127  0.47346898  0.74024082  1
  H+  H65  1  0.79541754  0.78597067  0.91886736  1
  H+  H66  1  0.05101180  0.50682603  0.20324612  1
  H+  H67  1  0.14692417  0.85020626  0.52665390  1
  H+  H68  1  0.19920911  0.38514652  0.28070455  1
  H+  H69  1  0.63219597  0.83217262  0.27454921  1
  H+  H70  1  0.52609871  0.47771041  0.26602235  1
  H+  H71  1  0.06385764  0.70986917  0.83357623  1
  H+  H72  1  0.81946818  0.62688876  0.73845234  1
  H+  H73  1  0.65934049  0.86250709  0.01355511  1
  H+  H74  1  0.24779361  0.31642874  0.17046982  1
  H+  H75  1  0.14468023  0.57198028  0.07924385  1
  H+  H76  1  0.55083953  0.44091975  0.84504453  1
  H+  H77  1  0.83744170  0.35040478  0.71298624  1
  H+  H78  1  0.47011222  0.17158101  0.50552262  1
  H+  H79  1  0.18472617  1.03790842  0.26101499  1
  H+  H80  1  0.62651397  0.48273307  0.75513262  1
  H+  H81  1  0.61928989  0.13684238  0.27796681  1
  H+  H82  1  0.82997090  0.03259338  0.98270965  1
  H+  H83  1  0.82087527  0.17837299  0.00040527  1
  H+  H84  1  0.78471142  0.87088792  0.02591729  1
  H+  H85  1  0.48855628  0.30121620  0.73014342  1
  H+  H86  1  0.49767095  0.63530153  0.27152695  1
  H+  H87  1  0.54918314  0.83178141  0.51195880  1
  H+  H88  1  -0.01063195  0.48739565  -0.01367841  1
  H+  H89  1  0.52122253  0.35471987  0.25750855  1
  H+  H90  1  0.00137757  0.15173455  0.51385542  1
  H+  H91  1  0.65182052  0.48030849  0.97000303  1
  H+  H92  1  0.47646896  0.49858012  0.73641900  1
  H+  H93  1  0.15777429  0.30270820  0.73486222  1
  H+  H94  1  0.34076552  0.84172697  -0.04179692  1
  H+  H95  1  0.69175363  0.49003578  0.24014538  1
  H+  H96  1  0.85084796  0.46445664  0.24184182  1
  H+  H97  1  0.69850646  0.17696231  0.69846303  1
  H+  H98  1  0.18875624  0.20718775  0.23162248  1
  H+  H99  1  0.78432686  0.75304694  -0.03717668  1
  H+  H100  1  0.11163050  0.61278176  0.74214497  1
  H+  H101  1  0.53922428  0.04012664  0.74858117  1
  H+  H102  1  0.83543846  1.01983100  0.50293724  1
  H+  H103  1  0.57196649  0.43165601  0.40099681  1
  H+  H104  1  0.18255734  0.15179136  0.99109391  1
  H+  H105  1  0.16000716  0.52688508  0.50883538  1
  H+  H106  1  0.80913048  0.88472131  0.22578603  1
  H+  H107  1  0.29767113  0.83590961  0.30063842  1
  H+  H108  1  0.45698366  0.88205296  0.64595862  1
  H+  H109  1  0.55080225  0.10779274  0.39960362  1
  H+  H110  1  0.85648072  0.10864810  0.36440170  1
  H+  H111  1  0.51262389  0.82220867  0.29674031  1
  H+  H112  1  0.80767181  0.92333799  0.67331999  1
  H+  H113  1  0.84787963  0.79378345  0.32309597  1
  H+  H114  1  0.43217667  0.88205397  0.20933917  1
  H+  H115  1  0.20662696  0.79196295  0.38079348  1
  H+  H116  1  0.45577195  0.92149399  0.05650809  1
  H+  H117  1  0.75173655  0.92131605  0.14634474  1
  H+  H118  1  0.87450091  0.36482006  0.99566213  1
  H+  H119  1  0.87566329  0.08158919  0.88348986  1
  H+  H120  1  0.85584811  0.82353636  0.75988081  1
  H+  H121  1  0.83437241  0.39520076  0.43542798  1
  H+  H122  1  0.21655550  0.82535949  0.97388627  1
  H+  H123  1  0.10103521  0.21623153  0.08534470  1
  H+  H124  1  0.15328225  0.34853601  -0.03302035  1
  H+  H125  1  0.17596201  0.91639863  0.11590630  1
  H+  H126  1  0.09599726  0.54863175  0.64267701  1
  H+  H127  1  0.19341065  0.75582802  0.84377552  1
  H+  H128  1  0.22787796  0.46691046  0.37005276  1
  H+  H129  1  0.93490257  0.45466658  0.31394316  1
  H+  H130  1  0.57949033  0.78684120  0.42190520  1
  H+  H131  1  0.93182948  0.73950620  0.86208033  1
  H+  H132  1  0.43334313  0.57245762  0.12228591  1
  H+  H133  1  0.45655599  0.22228933  0.09813310  1
  H+  H134  1  0.48651354  0.17242358  0.25290570  1
  H+  H135  1  0.11953722  0.90488563  0.65550567  1
  H+  H136  1  0.43339548  0.54908398  0.63789084  1
  H+  H137  1  0.02672737  0.51376862  0.51305750  1
  H+  H138  1  0.15627914  0.85803311  0.26272561  1
  H+  H139  1  0.79449981  0.55046372  0.07934369  1
  H+  H140  1  0.91790345  0.74067895  0.42431965  1
  H+  H141  1  0.10681443  0.20761348  0.65351827  1
  H+  H142  1  0.77856753  0.20227288  0.14302939  1
  H+  H143  1  0.21230543  0.11695971  0.85756225  1
  O2-  O144  1  0.17484845  0.26494851  0.19953305  1
  O2-  O145  1  0.11866969  0.21812373  0.72011423  1
  O2-  O146  1  0.13262398  0.55783726  0.19229251  1
  O2-  O147  1  0.08484928  0.53585545  0.71187458  1
  O2-  O148  1  0.12291228  0.89858328  0.22406821  1
  O2-  O149  1  0.11562130  0.90513907  0.72383355  1
  O2-  O150  1  0.45251665  0.21667887  0.22281511  1
  O2-  O151  1  0.45586610  0.22416468  0.70236712  1
  O2-  O152  1  0.45945785  0.55486745  0.25091202  1
  O2-  O153  1  0.43152213  0.53618399  0.71257277  1
  O2-  O154  1  0.44289609  0.89344297  0.27487326  1
  O2-  O155  1  0.46641011  0.89167569  0.71249129  1
  O2-  O156  1  0.77730098  0.20682639  0.21301990  1
  O2-  O157  1  0.77795863  0.21979071  0.66950413  1
  O2-  O158  1  0.77513938  0.52769847  0.21700535  1
  O2-  O159  1  0.77710313  0.54389862  0.72215047  1
  O2-  O160  1  0.76100663  0.91996719  0.21662964  1
  O2-  O161  1  0.80470915  0.91854423  0.74153274  1
  O2-  O162  1  0.22718389  0.11899798  0.28239096  1
  O2-  O163  1  0.20337070  0.11406938  0.78863914  1
  O2-  O164  1  0.23669544  0.46517900  0.30148958  1
  O2-  O165  1  0.21947879  0.43550506  0.76334434  1
  O2-  O166  1  0.21489618  0.80328432  0.31392908  1
  O2-  O167  1  0.13295481  0.72914925  0.79411726  1
  O2-  O168  1  0.54274072  0.10217227  0.30443934  1
  O2-  O169  1  0.58326460  0.12289888  0.76232232  1
  O2-  O170  1  0.56889571  0.43607698  0.27914242  1
  O2-  O171  1  0.54557809  0.44252301  0.77503095  1
  O2-  O172  1  0.56072070  0.78586776  0.30980508  1
  O2-  O173  1  0.58238814  0.78705909  0.79987479  1
  O2-  O174  1  0.86339108  0.11308286  0.29579542  1
  O2-  O175  1  0.86915759  0.03147967  0.77328415  1
  O2-  O176  1  0.89793726  0.42722844  0.25507772  1
  O2-  O177  1  0.87900784  0.42681853  0.74493643  1
  O2-  O178  1  0.86891472  0.79881481  0.25886019  1
  O2-  O179  1  0.89023199  0.77362239  0.75716381  1
  O2-  O180  1  0.21693287  0.10006306  0.46796663  1
  O2-  O181  1  0.23393877  0.12404961  0.96657285  1
  O2-  O182  1  0.22843391  0.48756592  0.48118491  1
  O2-  O183  1  0.17613865  0.41719951  0.92969179  1
  O2-  O184  1  0.20449742  0.77622714  0.49984876  1
  O2-  O185  1  0.25408346  0.78887560  0.94205634  1
  O2-  O186  1  0.54391559  0.10188372  0.47398890  1
  O2-  O187  1  0.58132916  0.13170337  0.94709233  1
  O2-  O188  1  0.57379367  0.43270357  0.46854211  1
  O2-  O189  1  0.57072604  0.44329592  0.95031004  1
  O2-  O190  1  0.58472035  0.78731642  0.49070957  1
  O2-  O191  1  0.55530336  0.79817865  0.97742863  1
  O2-  O192  1  0.86506795  0.09973262  0.47859769  1
  O2-  O193  1  0.88158752  0.10507287  0.94935456  1
  O2-  O194  1  0.86313019  0.41947622  0.49705744  1
  O2-  O195  1  0.90672380  0.44224616  0.96990844  1
  O2-  O196  1  0.90018330  0.76579928  0.48110252  1
  O2-  O197  1  0.97385738  0.71761222  0.90535332  1
  O2-  O198  1  0.09862162  0.20606399  0.01856564  1
  O2-  O199  1  0.08467300  0.18927499  0.53084611  1
  O2-  O200  1  0.13438456  0.56978606  0.01138820  1
  O2-  O201  1  0.10487879  0.56071809  0.53683083  1
  O2-  O202  1  0.21604563  0.93790939  0.05547338  1
  O2-  O203  1  0.10645474  0.89373274  0.54317224  1
  O2-  O204  1  0.45898060  0.22628796  0.03044225  1
  O2-  O205  1  0.43175178  0.21455811  0.52595630  1
  O2-  O206  1  0.40154761  0.57359382  0.06243910  1
  O2-  O207  1  0.43380960  0.56758841  0.54800462  1
  O2-  O208  1  0.46053957  0.91842397  -0.00938307  1
  O2-  O209  1  0.44785069  0.88931174  0.51598530  1
  O2-  O210  1  0.78389873  0.21504732  0.03484622  1
  O2-  O211  1  0.75875869  0.20699174  0.56988375  1
  O2-  O212  1  0.79706723  0.54649785  0.01277460  1
  O2-  O213  1  0.76839168  0.53862051  0.54289147  1
  O2-  O214  1  0.74706722  0.91373251  0.04330643  1
  O2-  O215  1  0.79835013  0.89443277  0.54946497  1
