# generated using pymatgen
data_H2O
_symmetry_space_group_name_H-M   'P 1'
_cell_length_a   13.49776857
_cell_length_b   13.51238501
_cell_length_c   14.69226093
_cell_angle_alpha   89.92629728
_cell_angle_beta   90.13915160
_cell_angle_gamma   119.95094662
_symmetry_Int_Tables_number   1
_chemical_formula_structural   H2O
_chemical_formula_sum   'H144 O72'
_cell_volume   2321.80866602
_cell_formula_units_Z   72
loop_
 _symmetry_equiv_pos_site_id
 _symmetry_equiv_pos_as_xyz
  1  'x, y, z'
loop_
 _atom_type_symbol
 _atom_type_oxidation_number
  H+  1.0
  O2-  -2.0
loop_
 _atom_site_type_symbol
 _atom_site_label
 _atom_site_symmetry_multiplicity
 _atom_site_fract_x
 _atom_site_fract_y
 _atom_site_fract_z
 _atom_site_occupancy
  H+  H0  1  0.47864882  0.19271154  0.24715975  1
  H+  H1  1  0.21480153  0.42495227  -0.14168844  1
  H+  H2  1  0.82020232  0.94877219  0.24434604  1
  H+  H3  1  0.14209044  0.30020200  0.23752979  1
  H+  H4  1  0.28326110  0.46220434  -0.01494353  1
  H+  H5  1  0.35510239  0.85142525  1.01395307  1
  H+  H6  1  0.75409162  0.25627244  0.12237391  1
  H+  H7  1  0.47889324  0.51406076  0.03428489  1
  H+  H8  1  0.86223035  0.49484417  0.75083867  1
  H+  H9  1  0.16661052  0.67258799  0.97479465  1
  H+  H10  1  0.47695162  0.51738626  0.50216230  1
  H+  H11  1  0.98440455  0.13246869  0.25916959  1
  H+  H12  1  0.29954520  0.82996841  0.27145798  1
  H+  H13  1  0.17688511  0.82843680  0.50612883  1
  H+  H14  1  0.81948547  0.50640768  0.50978969  1
  H+  H15  1  0.68159595  0.72282078  -0.09964697  1
  H+  H16  1  0.83933943  0.62999191  0.00448031  1
  H+  H17  1  0.96443973  0.81587110  0.26713150  1
  H+  H18  1  0.88349551  0.91559069  0.03763596  1
  H+  H19  1  0.80777177  0.82708864  0.24119481  1
  H+  H20  1  0.79727074  0.67499200  0.78225683  1
  H+  H21  1  0.50329018  0.15674232  1.01835746  1
  H+  H22  1  0.46388533  0.62516587  0.50365059  1
  H+  H23  1  0.86262266  0.11783877  0.27463473  1
  H+  H24  1  0.52546029  0.15717628  0.48773016  1
  H+  H25  1  0.47528611  0.64053665  0.25850822  1
  H+  H26  1  0.51907535  0.46544074  0.76814771  1
  H+  H27  1  0.69672228  0.85322022  0.73572718  1
  H+  H28  1  0.27253322  0.66205731  0.13855432  1
  H+  H29  1  0.25125719  0.12625469  0.82628713  1
  H+  H30  1  0.31128231  0.72136437  0.15539803  1
  H+  H31  1  0.90949766  0.28092321  0.26770453  1
  H+  H32  1  0.28847020  0.47885953  0.26849009  1
  H+  H33  1  0.70344369  0.51334407  0.50813565  1
  H+  H34  1  0.51999263  0.82579351  0.26372116  1
  H+  H35  1  0.51044798  0.80829527  0.75329797  1
  H+  H36  1  0.18985353  0.81631088  0.75973349  1
  H+  H37  1  0.19202779  1.04682454  0.48002465  1
  H+  H38  1  0.18891135  0.35561136  0.76271307  1
  H+  H39  1  0.52922273  0.37096160  0.48829281  1
  H+  H40  1  0.13102152  0.18090603  0.01297319  1
  H+  H41  1  0.36266402  0.19646914  0.24452812  1
  H+  H42  1  0.49887769  0.13542471  0.75564995  1
  H+  H43  1  0.35863844  0.83344592  0.74307298  1
  H+  H44  1  0.06432658  0.91726982  0.12574907  1
  H+  H45  1  0.84886626  0.68258662  0.49174806  1
  H+  H46  1  0.77461964  0.55853313  0.09445104  1
  H+  H47  1  0.38132619  0.19404030  0.49536313  1
  H+  H48  1  0.50510909  1.02499269  0.77047068  1
  H+  H49  1  0.47679559  0.28494607  0.71936184  1
  H+  H50  1  0.81993454  0.19455384  1.00235964  1
  H+  H51  1  0.88780241  0.44941506  0.88903286  1
  H+  H52  1  0.14668700  -0.01765163  0.25202060  1
  H+  H53  1  0.14775735  0.86396895  0.24522959  1
  H+  H54  1  0.69009927  0.52760226  0.23826193  1
  H+  H55  1  0.85300379  0.05196309  0.98677292  1
  H+  H56  1  0.51143069  0.49611992  0.26594018  1
  H+  H57  1  0.47497721  0.85310531  0.51090068  1
  H+  H58  1  0.80851116  0.52599711  0.24377444  1
  H+  H59  1  0.82845267  0.38726570  0.25331208  1
  H+  H60  1  0.35000119  0.16926681  0.71933253  1
  H+  H61  1  0.50416498  0.63640658  0.01592283  1
  H+  H62  1  0.15229603  0.49618572  0.98401183  1
  H+  H63  1  1.00779478  0.85011388  0.50550423  1
  H+  H64  1  0.15946141  0.62803848  0.74467044  1
  H+  H65  1  0.84977629  0.35350561  0.48532395  1
  H+  H66  1  0.84362133  1.00455102  0.50133334  1
  H+  H67  1  0.54606979  0.50828943  0.91372913  1
  H+  H68  1  0.02231678  0.52126054  0.26246209  1
  H+  H69  1  0.48773061  0.61226153  0.77453719  1
  H+  H70  1  0.86712803  0.25388229  0.30601865  1
  H+  H71  1  0.12542209  0.28300828  0.50865942  1
  H+  H72  1  0.37001010  0.49437515  0.78797202  1
  H+  H73  1  0.47574525  0.31396197  0.00711276  1
  H+  H74  1  0.70124989  0.50512580  0.73176957  1
  H+  H75  1  1.03025398  0.15520886  0.51972981  1
  H+  H76  1  0.97625875  0.80951378  0.99339392  1
  H+  H77  1  0.47115846  0.96877612  0.02464069  1
  H+  H78  1  0.18071875  0.15959222  0.25625053  1
  H+  H79  1  0.63275903  0.81365983  0.26485658  1
  H+  H80  1  0.78676183  0.56347659  0.64921085  1
  H+  H81  1  0.84615328  0.48313859  0.98121936  1
  H+  H82  1  0.14235090  0.63613772  0.26749506  1
  H+  H83  1  0.44626827  0.89052355  0.15280532  1
  H+  H84  1  0.64338836  0.50746082  0.97955208  1
  H+  H85  1  0.98192521  0.14624055  0.75395939  1
  H+  H86  1  0.62094888  0.15527915  0.01111092  1
  H+  H87  1  0.22501328  0.12689325  0.34819098  1
  H+  H88  1  0.80507962  0.82594729  0.51606956  1
  H+  H89  1  0.16566767  0.17237521  0.73938001  1
  H+  H90  1  0.49006733  -0.02470662  0.23873977  1
  H+  H91  1  0.47881569  0.97318176  0.51032163  1
  H+  H92  1  0.80829248  0.79791487  0.78584315  1
  H+  H93  1  0.29534752  0.82857862  0.50313120  1
  H+  H94  1  0.62577572  0.81607049  0.50132355  1
  H+  H95  1  0.98054698  0.49105442  0.75641077  1
  H+  H96  1  0.51360131  0.37787265  0.26124564  1
  H+  H97  1  0.81987420  0.17050632  0.50011948  1
  H+  H98  1  0.84703149  0.19754793  0.72131367  1
  H+  H99  1  0.06420772  0.94661207  0.57933860  1
  H+  H100  1  0.12740657  0.45106214  0.48697888  1
  H+  H101  1  0.16917978  0.47842380  0.26843161  1
  H+  H102  1  0.64054634  0.14817994  0.48750224  1
  H+  H103  1  0.16384774  0.40726100  0.39893612  1
  H+  H104  1  0.18068799  -0.01142329  0.74294662  1
  H+  H105  1  0.62191209  0.16819030  0.25194374  1
  H+  H106  1  0.56898926  0.40578960  0.83007326  1
  H+  H107  1  0.97081506  0.16930776  0.98524106  1
  H+  H108  1  0.14501254  0.98506283  -0.02949268  1
  H+  H109  1  0.55858738  0.11888475  0.34903144  1
  H+  H110  1  0.10417543  0.22462761  0.14497489  1
  H+  H111  1  0.68926950  0.80581835  -0.02398239  1
  H+  H112  1  0.14176943  0.89565584  0.66230202  1
  H+  H113  1  0.15914230  0.50771550  0.74632526  1
  H+  H114  1  0.89762126  0.07964611  0.41160762  1
  H+  H115  1  0.84457678  0.31514366  0.72207526  1
  H+  H116  1  0.67918818  0.30596852  0.15906706  1
  H+  H117  1  0.82119486  0.96984212  0.73945426  1
  H+  H118  1  0.87302753  0.44650358  0.35265377  1
  H+  H119  1  0.21589575  0.76372617  0.84781981  1
  H+  H120  1  0.19262118  0.16380028  0.48956254  1
  H+  H121  1  0.43692497  0.24327505  0.09834956  1
  H+  H122  1  0.77534153  0.87390519  0.60690525  1
  H+  H123  1  0.13994042  0.63621422  0.52056090  1
  H+  H124  1  0.03706108  0.50523505  -0.01074654  1
  H+  H125  1  0.89680878  0.11818453  0.83813938  1
  H+  H126  1  0.55332989  0.78677142  0.40943251  1
  H+  H127  1  0.90778641  0.75109648  0.90149116  1
  H+  H128  1  0.88043986  0.76280716  0.40166753  1
  H+  H129  1  0.79355641  0.22416226  0.58719146  1
  H+  H130  1  0.11907538  0.75805286  0.96087504  1
  H+  H131  1  0.15153890  0.31515301  -0.00035846  1
  H+  H132  1  0.57045261  0.77516527  0.83480011  1
  H+  H133  1  0.96390549  0.47742999  0.49258190  1
  H+  H134  1  0.43955901  0.56686117  0.16728036  1
  H+  H135  1  0.10682861  0.55244436  0.60683935  1
  H+  H136  1  0.78749447  0.89698451  0.10571089  1
  H+  H137  1  0.84595360  0.69360821  0.25884954  1
  H+  H138  1  0.45024563  0.22244207  0.58908312  1
  H+  H139  1  0.43648512  0.88098883  0.65391511  1
  H+  H140  1  0.82014803  0.31328809  -0.00743513  1
  H+  H141  1  0.56691284  0.45424413  0.40195116  1
  H+  H142  1  0.22071372  0.79766468  0.36023317  1
  H+  H143  1  0.12024125  0.21555709  0.65519293  1
  O2-  O144  1  0.10555274  0.21933983  0.21383886  1
  O2-  O145  1  0.11980452  0.21316455  0.72292766  1
  O2-  O146  1  0.10549533  0.55418800  0.25283888  1
  O2-  O147  1  0.11809218  0.54714118  0.72193780  1
  O2-  O148  1  0.10237236  0.90155724  0.22798346  1
  O2-  O149  1  0.14003422  0.90102965  0.72830315  1
  O2-  O150  1  0.44461387  0.23933116  0.22508929  1
  O2-  O151  1  0.43335273  0.20766159  0.69228249  1
  O2-  O152  1  0.43545589  0.56010711  0.23507803  1
  O2-  O153  1  0.45579144  0.53259504  0.79586208  1
  O2-  O154  1  0.45078561  0.89308052  0.22176632  1
  O2-  O155  1  0.43988088  0.87246166  0.72091593  1
  O2-  O156  1  0.72896181  0.27816782  0.18147703  1
  O2-  O157  1  0.81545248  0.24106174  0.69024370  1
  O2-  O158  1  0.77057173  0.56571218  0.21388892  1
  O2-  O159  1  0.78335381  0.56016924  0.71728284  1
  O2-  O160  1  0.77038949  0.87080482  0.21829474  1
  O2-  O161  1  0.77991811  0.88760769  0.71948220  1
  O2-  O162  1  0.22147643  0.11968649  0.27982972  1
  O2-  O163  1  0.23505152  0.11421066  0.76136971  1
  O2-  O164  1  0.20575736  0.43090472  0.28312348  1
  O2-  O165  1  0.22656308  0.43493932  0.78777978  1
  O2-  O166  1  0.21926819  0.79778072  0.29231488  1
  O2-  O167  1  0.22231984  0.76639696  0.77909879  1
  O2-  O168  1  0.54717059  0.11740958  0.28131595  1
  O2-  O169  1  0.53438259  0.10238388  0.79502829  1
  O2-  O170  1  0.55781240  0.45916894  0.28269030  1
  O2-  O171  1  0.56348180  0.42245415  0.76585193  1
  O2-  O172  1  0.55442039  0.78138382  0.29086567  1
  O2-  O173  1  0.55873316  0.77228987  0.76823876  1
  O2-  O174  1  0.90646008  0.08009773  0.28812715  1
  O2-  O175  1  0.89842512  0.10983203  0.77084654  1
  O2-  O176  1  0.87482830  0.46133368  0.28543188  1
  O2-  O177  1  0.89813801  0.45132395  0.77555497  1
  O2-  O178  1  0.88323499  0.77176979  0.28791848  1
  O2-  O179  1  0.80445461  0.73557095  0.82518097  1
  O2-  O180  1  0.23522136  0.12747727  0.46037687  1
  O2-  O181  1  0.03110484  -0.07232771  1.06606700  1
  O2-  O182  1  0.12161146  0.38280320  0.45734060  1
  O2-  O183  1  0.20574678  0.41897893  0.96040206  1
  O2-  O184  1  0.21336247  0.78721820  0.48120657  1
  O2-  O185  1  0.19008545  0.75523998  0.95693207  1
  O2-  O186  1  0.55960990  0.11047637  0.46484833  1
  O2-  O187  1  0.54111414  0.11141714  1.03187592  1
  O2-  O188  1  0.57266414  0.45342062  0.46958263  1
  O2-  O189  1  0.56110224  0.46416149  0.95941151  1
  O2-  O190  1  0.54700413  0.78645824  0.47709872  1
  O2-  O191  1  0.63235525  0.74180084  0.93782931  1
  O2-  O192  1  0.88958684  0.08520157  0.47810320  1
  O2-  O193  1  0.89039538  0.12914885  0.95931189  1
  O2-  O194  1  0.88440397  0.43599707  0.46677945  1
  O2-  O195  1  0.88657142  0.44427886  0.95733442  1
  O2-  O196  1  0.88278961  0.76436019  0.47002794  1
  O2-  O197  1  0.95077599  0.74203315  0.95360299  1
  O2-  O198  1  0.09982909  0.22895313  0.03240796  1
  O2-  O199  1  0.11224744  0.20753682  0.53556547  1
  O2-  O200  1  0.11964399  0.54704162  0.00301284  1
  O2-  O201  1  0.09789373  0.55493780  0.53915478  1
  O2-  O202  1  0.13101331  1.02238560  0.02218346  1
  O2-  O203  1  0.08504143  0.90880515  0.53263539  1
  O2-  O204  1  0.43170694  0.23599201  0.03121871  1
  O2-  O205  1  0.46072582  0.23079376  0.51945989  1
  O2-  O206  1  0.45050266  0.56658581  0.04958817  1
  O2-  O207  1  0.42073463  0.54203710  0.51349937  1
  O2-  O208  1  0.43329752  0.88476225  0.03773578  1
  O2-  O209  1  0.43348333  0.89285812  0.53311416  1
  O2-  O210  1  0.77903210  0.23551744  0.02205163  1
  O2-  O211  1  0.78259809  0.21501115  0.51782021  1
  O2-  O212  1  0.77479999  0.55486159  0.02655753  1
  O2-  O213  1  0.78501807  0.55285578  0.53176754  1
  O2-  O214  1  0.80908246  0.91220042  0.03951377  1
  O2-  O215  1  0.76886345  0.87001451  0.53845448  1
