# generated using pymatgen
data_H2O
_symmetry_space_group_name_H-M   'P 1'
_cell_length_a   13.50002818
_cell_length_b   13.52391065
_cell_length_c   14.67860705
_cell_angle_alpha   89.98407713
_cell_angle_beta   90.03544932
_cell_angle_gamma   120.01660128
_symmetry_Int_Tables_number   1
_chemical_formula_structural   H2O
_chemical_formula_sum   'H144 O72'
_cell_volume   2320.48991460
_cell_formula_units_Z   72
loop_
 _symmetry_equiv_pos_site_id
 _symmetry_equiv_pos_as_xyz
  1  'x, y, z'
loop_
 _atom_type_symbol
 _atom_type_oxidation_number
  H+  1.0
  O2-  -2.0
loop_
 _atom_site_type_symbol
 _atom_site_label
 _atom_site_symmetry_multiplicity
 _atom_site_fract_x
 _atom_site_fract_y
 _atom_site_fract_z
 _atom_site_occupancy
  H+  H0  1  0.05625421  0.59934115  0.05235526  1
  H+  H1  1  0.32770878  0.10994244  0.98642527  1
  H+  H2  1  0.61518176  0.48531049  0.24366996  1
  H+  H3  1  0.36523875  0.84766001  0.50963717  1
  H+  H4  1  0.37206141  0.52421670  1.00973118  1
  H+  H5  1  0.82214896  0.61808147  0.50727560  1
  H+  H6  1  0.48178235  0.50583323  0.24274333  1
  H+  H7  1  0.61492676  0.81295198  0.76438822  1
  H+  H8  1  0.84728993  0.05283945  0.46125281  1
  H+  H9  1  0.19158138  0.79963989  -0.01186334  1
  H+  H10  1  0.20685315  0.05058042  0.74158330  1
  H+  H11  1  0.83392481  -0.03047098  1.00242450  1
  H+  H12  1  0.26735350  0.87252707  0.74260701  1
  H+  H13  1  1.03492675  0.51236718  0.50668892  1
  H+  H14  1  0.06939472  0.55600122  0.74991611  1
  H+  H15  1  0.15329189  0.30641433  0.73108229  1
  H+  H16  1  0.87589936  0.45342822  0.26855268  1
  H+  H17  1  0.86278130  0.79832240  0.98095635  1
  H+  H18  1  0.78215497  0.11184011  -0.01214540  1
  H+  H19  1  0.65288441  0.12612444  0.74430053  1
  H+  H20  1  0.83104286  0.54663816  0.24603098  1
  H+  H21  1  0.89103937  0.59680947  0.25144125  1
  H+  H22  1  0.67238526  0.16417579  0.02002121  1
  H+  H23  1  0.49296500  0.63664810  0.01130662  1
  H+  H24  1  0.76455777  0.66920108  0.19023178  1
  H+  H25  1  0.85182925  0.35107096  0.49030318  1
  H+  H26  1  0.04412461  0.83313040  0.23783341  1
  H+  H27  1  0.98911663  0.82810892  0.75607854  1
  H+  H28  1  0.48159636  0.81720902  0.24534433  1
  H+  H29  1  0.77754608  0.54602980  0.65710385  1
  H+  H30  1  0.89153666  0.54414284  0.77821204  1
  H+  H31  1  0.81686534  0.95624931  0.74629154  1
  H+  H32  1  0.50571344  0.14598898  1.01101442  1
  H+  H33  1  0.61734442  0.45562601  0.98030015  1
  H+  H34  1  0.44558481  0.84319641  0.74525699  1
  H+  H35  1  0.19307767  0.68169819  0.26921966  1
  H+  H36  1  0.48438841  0.02243925  0.77231114  1
  H+  H37  1  0.52361317  0.36438344  0.48948412  1
  H+  H38  1  0.04675228  0.49336378  0.25574570  1
  H+  H39  1  0.97453084  0.78763732  0.98023247  1
  H+  H40  1  0.62476904  0.80632418  0.49673416  1
  H+  H41  1  0.81671142  0.63958995  0.73405678  1
  H+  H42  1  0.87771903  0.36830336  0.70052766  1
  H+  H43  1  0.94789408  0.97282134  0.03060366  1
  H+  H44  1  0.81027710  0.27724783  0.24521126  1
  H+  H45  1  0.81219516  0.93697824  0.54397386  1
  H+  H46  1  0.37089855  0.51310205  0.73604528  1
  H+  H47  1  0.38660915  0.20777531  0.73583439  1
  H+  H48  1  0.36631269  0.84373611  1.01891020  1
  H+  H49  1  0.53959313  0.10370169  0.91776833  1
  H+  H50  1  0.83552215  0.17597091  0.48650630  1
  H+  H51  1  0.95240536  0.44179065  1.00233515  1
  H+  H52  1  0.55190228  0.11436447  0.41023125  1
  H+  H53  1  0.50032578  0.69461605  0.75711292  1
  H+  H54  1  0.80800848  0.48855568  1.00361419  1
  H+  H55  1  0.48231981  0.96710325  0.02563409  1
  H+  H56  1  0.91532182  0.88030509  0.27903600  1
  H+  H57  1  0.17916814  0.39767796  0.98863467  1
  H+  H58  1  0.00219113  0.24131090  0.03274823  1
  H+  H59  1  0.20484573  0.03746795  0.46831150  1
  H+  H60  1  0.18905139  0.48846334  0.74758205  1
  H+  H61  1  0.82202666  0.84077391  0.75280440  1
  H+  H62  1  0.09736303  0.08200062  0.03496488  1
  H+  H63  1  0.48506585  0.96683159  0.51243416  1
  H+  H64  1  0.30794182  0.48790474  0.48925571  1
  H+  H65  1  0.35730212  0.82608101  0.24422357  1
  H+  H66  1  0.26253286  0.07411835  0.88999784  1
  H+  H67  1  0.49593363  0.18516360  0.51321025  1
  H+  H68  1  0.31536806  0.48341807  0.26268418  1
  H+  H69  1  0.17250008  0.13987516  0.28476491  1
  H+  H70  1  0.81582060  0.60965431  -0.01291827  1
  H+  H71  1  0.09426957  0.20741258  0.01199281  1
  H+  H72  1  0.49611880  0.16784015  0.27504806  1
  H+  H73  1  0.64218994  0.14694038  0.49287888  1
  H+  H74  1  0.51348606  0.81115874  0.99483558  1
  H+  H75  1  0.19716690  0.16337407  0.74457869  1
  H+  H76  1  0.51070669  0.15218573  0.76980445  1
  H+  H77  1  0.13249265  0.88549617  0.59979269  1
  H+  H78  1  0.82825408  0.11983491  0.74371697  1
  H+  H79  1  0.50324866  0.68397247  0.26087332  1
  H+  H80  1  0.35753470  0.24365944  0.21335332  1
  H+  H81  1  0.03622841  0.18639162  0.73033112  1
  H+  H82  1  0.70086320  0.50284122  0.50527502  1
  H+  H83  1  0.14154543  0.08566707  1.00106076  1
  H+  H84  1  0.15878753  0.92797695  -0.00258520  1
  H+  H85  1  0.76065996  0.85396145  0.62590152  1
  H+  H86  1  0.51028504  0.81382877  0.49496463  1
  H+  H87  1  0.84055134  -0.02514680  0.24093195  1
  H+  H88  1  0.26889610  0.10689585  0.28367710  1
  H+  H89  1  0.18694608  0.81425285  0.48913626  1
  H+  H90  1  0.20962066  0.69328991  -0.00466137  1
  H+  H91  1  1.02404958  0.20674358  0.49534885  1
  H+  H92  1  0.18532958  0.69446916  0.49014786  1
  H+  H93  1  0.83033743  0.32809526  -0.00449236  1
  H+  H94  1  0.18047579  0.37488584  0.48531565  1
  H+  H95  1  0.48847635  0.51035494  0.50470252  1
  H+  H96  1  0.48385008  0.62680340  0.50449309  1
  H+  H97  1  0.37875325  0.18668865  0.50416755  1
  H+  H98  1  0.50558833  0.35381488  0.25253703  1
  H+  H99  1  0.60769635  0.15697323  0.26689330  1
  H+  H100  1  0.97067824  0.15838617  0.25651963  1
  H+  H101  1  0.14831068  0.80909223  0.22934582  1
  H+  H102  1  0.80092087  0.15825589  0.23775704  1
  H+  H103  1  0.47450026  0.28340857  0.01683800  1
  H+  H104  1  0.16222344  0.31109238  0.25753870  1
  H+  H105  1  0.84861175  0.79748337  0.50937845  1
  H+  H106  1  0.81967463  0.35604328  0.71593004  1
  H+  H107  1  1.03917306  0.83872353  0.52047305  1
  H+  H108  1  0.23117613  0.76911844  0.35480500  1
  H+  H109  1  0.10343022  0.84622575  0.08815388  1
  H+  H110  1  0.92085282  0.48556146  0.85879152  1
  H+  H111  1  0.44773071  0.55079396  0.15212799  1
  H+  H112  1  0.84964164  0.47044177  0.48718823  1
  H+  H113  1  0.88734344  0.12340805  0.34201664  1
  H+  H114  1  0.80854483  0.23068066  0.58578275  1
  H+  H115  1  0.22772481  0.44901269  0.83655303  1
  H+  H116  1  0.55988786  0.43936333  0.39794656  1
  H+  H117  1  0.53955799  0.76973591  0.90135000  1
  H+  H118  1  0.55778719  0.44277844  0.76062259  1
  H+  H119  1  0.10427426  0.23886799  0.58455055  1
  H+  H120  1  0.15808937  0.52097115  0.50430292  1
  H+  H121  1  0.19617497  0.51912249  0.97754897  1
  H+  H122  1  0.43531547  0.21532989  0.11666205  1
  H+  H123  1  0.11727687  0.24135515  0.16635303  1
  H+  H124  1  0.75790457  0.19746901  0.10785520  1
  H+  H125  1  0.90698258  0.77498247  0.84252799  1
  H+  H126  1  0.54026264  0.76775963  0.34904926  1
  H+  H127  1  0.45392600  0.55578708  0.65163460  1
  H+  H128  1  0.50604663  0.46345028  0.99047645  1
  H+  H129  1  0.71869450  0.00125521  0.92564153  1
  H+  H130  1  0.12340812  0.56214611  0.65127783  1
  H+  H131  1  0.10667977  0.54552399  0.12065474  1
  H+  H132  1  0.44042709  0.87190348  0.14860218  1
  H+  H133  1  0.91486206  0.79889906  0.41886781  1
  H+  H134  1  0.23764612  0.45192515  0.35654032  1
  H+  H135  1  0.83355153  0.90125778  0.15526222  1
  H+  H136  1  0.73605576  0.57275862  0.11608933  1
  H+  H137  1  1.04038211  0.94535525  0.32425760  1
  H+  H138  1  0.42503698  0.88975935  0.65266576  1
  H+  H139  1  0.90308727  0.41810410  0.36406299  1
  H+  H140  1  0.46735813  0.23636640  0.65043922  1
  H+  H141  1  0.68844094  0.10607131  0.64616921  1
  H+  H142  1  0.87414904  0.10190820  0.83672789  1
  H+  H143  1  0.17134432  0.50632346  0.24812572  1
  O2-  O144  1  0.11812428  0.23063973  0.23238170  1
  O2-  O145  1  0.11518608  0.22626252  0.70636136  1
  O2-  O146  1  0.12390668  0.54221528  0.22743352  1
  O2-  O147  1  0.13841317  0.56493817  0.71746186  1
  O2-  O148  1  0.09101558  0.81810494  0.19369298  1
  O2-  O149  1  0.14117705  0.90210358  0.72055247  1
  O2-  O150  1  0.42300645  0.23191018  0.21364918  1
  O2-  O151  1  0.46910120  0.23887756  0.71885513  1
  O2-  O152  1  0.44376052  0.54966658  0.22050458  1
  O2-  O153  1  0.45303168  0.56215738  0.71906498  1
  O2-  O154  1  0.43895812  0.86310768  0.21917587  1
  O2-  O155  1  0.41290737  0.88894845  0.72011379  1
  O2-  O156  1  0.76007672  0.20032966  0.21861607  1
  O2-  O157  1  0.71958588  0.13461143  0.70652235  1
  O2-  O158  1  0.70532283  0.59460255  0.16940406  1
  O2-  O159  1  0.78092017  0.55623143  0.72407772  1
  O2-  O160  1  0.82418737  0.89702353  0.22205306  1
  O2-  O161  1  0.77188944  0.87264430  0.73310951  1
  O2-  O162  1  0.18818116  0.07767662  0.30047960  1
  O2-  O163  1  0.24525592  0.13053856  0.76483715  1
  O2-  O164  1  0.23430426  0.44486295  0.28684894  1
  O2-  O165  1  0.22518993  0.44156347  0.76955513  1
  O2-  O166  1  0.23423571  0.76433187  0.28593666  1
  O2-  O167  1  0.19546468  0.85729454  0.77420378  1
  O2-  O168  1  0.53620965  0.12997351  0.30126753  1
  O2-  O169  1  0.53611166  0.10043265  0.79778077  1
  O2-  O170  1  0.54619255  0.43548759  0.28064576  1
  O2-  O171  1  0.55285064  0.43722134  0.69343881  1
  O2-  O172  1  0.53511584  0.76524432  0.28122208  1
  O2-  O173  1  0.53326212  0.77510393  0.78139447  1
  O2-  O174  1  0.88801261  0.11303145  0.27280903  1
  O2-  O175  1  0.88634160  0.10228710  0.77043306  1
  O2-  O176  1  0.91014545  0.41083796  0.29440379  1
  O2-  O177  1  0.95610064  0.54542037  0.81230320  1
  O2-  O178  1  0.97242525  0.86913243  0.31685290  1
  O2-  O179  1  0.90752426  0.78887139  0.77536740  1
  O2-  O180  1  0.25246228  0.11935160  0.45268282  1
  O2-  O181  1  0.26084320  0.04804244  0.95262505  1
  O2-  O182  1  0.22950707  0.45758556  0.46245096  1
  O2-  O183  1  0.23057202  0.47280127  0.96059267  1
  O2-  O184  1  0.22867458  0.77480172  0.46571483  1
  O2-  O185  1  0.24680220  0.77226902  0.97390560  1
  O2-  O186  1  0.55874576  0.10487091  0.47796936  1
  O2-  O187  1  0.54559257  0.10333438  0.98560256  1
  O2-  O188  1  0.56419382  0.44501296  0.46594257  1
  O2-  O189  1  0.53463496  0.41419732  0.96598401  1
  O2-  O190  1  0.54811796  0.77261535  0.46831510  1
  O2-  O191  1  0.55332904  0.77309450  0.96836441  1
  O2-  O192  1  0.88769323  0.13385160  0.44844844  1
  O2-  O193  1  0.79471862  0.05559701  0.94884467  1
  O2-  O194  1  0.89459486  0.43312583  0.46669399  1
  O2-  O195  1  0.87629389  0.40928928  0.97399644  1
  O2-  O196  1  0.89568830  0.76761911  0.48232486  1
  O2-  O197  1  0.89351707  0.75145691  0.95553769  1
  O2-  O198  1  0.08283444  0.26576348  0.04150872  1
  O2-  O199  1  0.10414539  0.25135523  0.51803704  1
  O2-  O200  1  0.09181017  0.55177484  0.05295812  1
  O2-  O201  1  0.11588754  0.55951085  0.52760073  1
  O2-  O202  1  0.10432725  0.84811867  0.01903302  1
  O2-  O203  1  0.12309129  0.88068767  0.53238442  1
  O2-  O204  1  0.44240393  0.20563880  0.04508698  1
  O2-  O205  1  0.45763970  0.22851418  0.53255206  1
  O2-  O206  1  0.44997602  0.55615217  0.03545550  1
  O2-  O207  1  0.44450426  0.54707850  0.52761512  1
  O2-  O208  1  0.44649028  0.88587255  0.04713611  1
  O2-  O209  1  0.44438414  0.88614796  0.53607390  1
  O2-  O210  1  0.75615524  0.19626852  0.03862001  1
  O2-  O211  1  0.78744288  0.21995300  0.52147774  1
  O2-  O212  1  0.76904768  0.53307742  0.01587986  1
  O2-  O213  1  0.78208956  0.53703637  0.52751998  1
  O2-  O214  1  0.86486701  0.92388358  0.03248076  1
  O2-  O215  1  0.76312554  0.85584854  0.55611033  1
