# generated using pymatgen
data_H2O
_symmetry_space_group_name_H-M   'P 1'
_cell_length_a   13.50988760
_cell_length_b   13.52432454
_cell_length_c   14.68146758
_cell_angle_alpha   90.04963614
_cell_angle_beta   89.98201663
_cell_angle_gamma   120.01848786
_symmetry_Int_Tables_number   1
_chemical_formula_structural   H2O
_chemical_formula_sum   'H144 O72'
_cell_volume   2322.66361701
_cell_formula_units_Z   72
loop_
 _symmetry_equiv_pos_site_id
 _symmetry_equiv_pos_as_xyz
  1  'x, y, z'
loop_
 _atom_type_symbol
 _atom_type_oxidation_number
  H+  1.0
  O2-  -2.0
loop_
 _atom_site_type_symbol
 _atom_site_label
 _atom_site_symmetry_multiplicity
 _atom_site_fract_x
 _atom_site_fract_y
 _atom_site_fract_z
 _atom_site_occupancy
  H+  H0  1  0.11459816  0.26326764  0.72911503  1
  H+  H1  1  0.44933061  0.89382156  0.15169704  1
  H+  H2  1  0.38935578  0.55464069  0.73982340  1
  H+  H3  1  0.82543430  0.51496235  0.00217330  1
  H+  H4  1  0.74743334  0.24064729  0.61328421  1
  H+  H5  1  0.68157959  0.18558441  0.74791390  1
  H+  H6  1  0.18459619  0.15075747  0.26315636  1
  H+  H7  1  0.52966329  0.49141776  0.22734306  1
  H+  H8  1  -0.00071340  0.14758124  0.73769900  1
  H+  H9  1  0.86331275  0.69339373  0.76676139  1
  H+  H10  1  0.56020762  0.46364780  0.88918681  1
  H+  H11  1  0.51779448  0.41430668  0.36049045  1
  H+  H12  1  0.22570954  0.42724455  0.75432299  1
  H+  H13  1  1.03866079  0.84698193  0.23673138  1
  H+  H14  1  0.15241645  0.16859196  0.01453062  1
  H+  H15  1  0.13111853  0.54577346  0.50154294  1
  H+  H16  1  0.57567540  0.40871567  0.97965275  1
  H+  H17  1  0.52036076  0.03388913  0.99236505  1
  H+  H18  1  0.86938959  0.37810037  0.75996755  1
  H+  H19  1  0.60758480  0.15307999  0.50372282  1
  H+  H20  1  0.64304453  0.82704813  0.99396581  1
  H+  H21  1  0.84548254  0.69840116  0.49663315  1
  H+  H22  1  0.90131336  0.44892573  0.89670381  1
  H+  H23  1  0.35174422  0.18225205  0.74738243  1
  H+  H24  1  0.43100684  0.26381828  0.01688823  1
  H+  H25  1  0.88427250  0.14065689  0.48943302  1
  H+  H26  1  0.52658772  0.83332843  0.76160802  1
  H+  H27  1  0.18430176  0.02581411  0.76173314  1
  H+  H28  1  0.21198085  0.45585295  0.51087730  1
  H+  H29  1  0.14875941  0.85467948  0.50743105  1
  H+  H30  1  0.98093788  0.81291250  0.76215841  1
  H+  H31  1  0.47657361  0.95862814  0.51662820  1
  H+  H32  1  0.30321159  0.81816739  0.26214300  1
  H+  H33  1  0.70427634  0.18535474  0.00423178  1
  H+  H34  1  0.34829263  0.17024726  0.51951068  1
  H+  H35  1  0.36039349  0.84217537  0.51294179  1
  H+  H36  1  0.35967806  0.84843569  0.75105461  1
  H+  H37  1  -0.00805579  0.49753023  0.76759058  1
  H+  H38  1  0.17924212  0.69685384  0.77617496  1
  H+  H39  1  0.49155248  -0.03198430  0.24299513  1
  H+  H40  1  0.27135439  0.10998224  -0.00370921  1
  H+  H41  1  1.02995466  0.85575947  0.51030244  1
  H+  H42  1  0.71287679  0.51469676  0.74131063  1
  H+  H43  1  0.08244259  0.84714192  0.00046330  1
  H+  H44  1  0.51439083  0.17031446  0.26728711  1
  H+  H45  1  0.82220301  0.51824779  0.23395911  1
  H+  H46  1  0.82583670  -0.03351532  1.01017520  1
  H+  H47  1  0.12657081  0.88061141  0.15217690  1
  H+  H48  1  0.82629313  0.82673422  0.48295785  1
  H+  H49  1  0.16697331  0.29372315  0.01186897  1
  H+  H50  1  0.51567916  0.14822255  -0.00584813  1
  H+  H51  1  0.82266811  -0.04103855  0.48733199  1
  H+  H52  1  0.14318044  0.42701684  0.97853087  1
  H+  H53  1  0.51620583  0.81730145  0.48523514  1
  H+  H54  1  0.85922014  0.15303473  0.99608925  1
  H+  H55  1  0.97157700  0.48841976  0.99072195  1
  H+  H56  1  0.47232475  0.18311447  0.74788937  1
  H+  H57  1  0.12821126  0.22901922  0.15501448  1
  H+  H58  1  0.52289238  0.71126510  0.99169445  1
  H+  H59  1  0.15256270  0.63810438  0.25104423  1
  H+  H60  1  0.82441859  0.54218155  0.50764147  1
  H+  H61  1  0.36285424  0.51952891  0.01173189  1
  H+  H62  1  0.51255656  0.66361743  0.73647396  1
  H+  H63  1  0.50292659  0.45465151  0.45593815  1
  H+  H64  1  0.64740113  0.48838786  0.22855448  1
  H+  H65  1  0.48012138  0.85151016  0.01156790  1
  H+  H66  1  1.04433422  0.19086901  0.24047832  1
  H+  H67  1  0.52791844  0.50187266  0.75118960  1
  H+  H68  1  0.69420799  0.84227150  0.48506365  1
  H+  H69  1  0.51378680  0.37670922  0.75470262  1
  H+  H70  1  0.16817773  0.13455416  0.76005938  1
  H+  H71  1  0.18521509  0.81931143  0.26140407  1
  H+  H72  1  0.72034782  0.85338276  0.74506765  1
  H+  H73  1  0.47789206  0.29962426  0.22883901  1
  H+  H74  1  0.17309058  0.71501960  0.49355221  1
  H+  H75  1  0.50106821  0.03239510  0.76223680  1
  H+  H76  1  0.79533108  0.17718685  0.73962823  1
  H+  H77  1  0.18173529  0.53430097  0.76043325  1
  H+  H78  1  0.73504207  0.55881265  0.99735558  1
  H+  H79  1  0.79841485  0.58112676  0.60367667  1
  H+  H80  1  0.48269582  0.52124907  0.01251639  1
  H+  H81  1  0.16115916  0.72513756  0.01600980  1
  H+  H82  1  0.97722121  0.15139303  0.99821933  1
  H+  H83  1  0.52237163  0.70077058  0.48447054  1
  H+  H84  1  0.35805832  0.52014240  0.24133339  1
  H+  H85  1  0.82369166  0.96584229  0.23948927  1
  H+  H86  1  0.77919267  0.20906516  0.51910792  1
  H+  H87  1  0.46695953  0.16291545  0.52641655  1
  H+  H88  1  0.83040539  0.38466288  0.49225812  1
  H+  H89  1  0.36331998  0.85861021  0.01817836  1
  H+  H90  1  -0.00453915  0.13402308  0.48106910  1
  H+  H91  1  0.96765719  0.48142567  0.26075767  1
  H+  H92  1  0.39567173  0.52068447  0.50691811  1
  H+  H93  1  0.84681586  0.01789207  0.76561879  1
  H+  H94  1  0.70555595  0.17702951  0.22775528  1
  H+  H95  1  0.01150925  0.53555237  0.51045386  1
  H+  H96  1  0.15971355  0.85049538  0.74377704  1
  H+  H97  1  0.83432041  0.51846889  0.74281095  1
  H+  H98  1  0.82427181  0.30397934  0.00241332  1
  H+  H99  1  0.48488236  0.65661453  0.24189066  1
  H+  H100  1  0.18528085  0.02341823  0.48926460  1
  H+  H101  1  0.54721741  0.76929901  0.34624718  1
  H+  H102  1  0.90560755  0.84159381  0.99390265  1
  H+  H103  1  0.19513166  0.36939164  0.25790114  1
  H+  H104  1  0.51328024  0.81448733  0.25530841  1
  H+  H105  1  0.15446427  0.52025526  0.24800755  1
  H+  H106  1  0.16276043  0.16467615  0.50718150  1
  H+  H107  1  0.70509810  0.84718086  0.24166855  1
  H+  H108  1  0.87974069  0.45034967  0.39680371  1
  H+  H109  1  0.22940223  0.46443007  0.89224290  1
  H+  H110  1  0.42698022  0.19848493  0.10729769  1
  H+  H111  1  0.18391252  0.03085152  0.25866197  1
  H+  H112  1  0.90105689  0.11077280  0.33845341  1
  H+  H113  1  0.78670444  0.88371025  0.09570510  1
  H+  H114  1  0.88695177  0.10482007  0.85111923  1
  H+  H115  1  0.47117217  0.57589265  0.59555642  1
  H+  H116  1  0.85754374  0.14964225  0.25028861  1
  H+  H117  1  0.11170406  0.57032037  0.11292126  1
  H+  H118  1  0.63013789  0.22861668  0.31994253  1
  H+  H119  1  0.20545427  0.09814981  0.90417807  1
  H+  H120  1  0.23906357  0.44440680  0.34911708  1
  H+  H121  1  0.20359312  0.34039799  0.48765259  1
  H+  H122  1  0.78553977  0.22213003  0.13969042  1
  H+  H123  1  0.88677669  0.77360849  0.39653891  1
  H+  H124  1  0.54383014  0.11166736  0.85152525  1
  H+  H125  1  0.53055312  0.10804591  0.41386521  1
  H+  H126  1  0.43832114  0.56681547  0.14312889  1
  H+  H127  1  0.12034182  0.57323678  0.67399689  1
  H+  H128  1  0.85145142  0.36171571  0.25406500  1
  H+  H129  1  0.21179085  0.78630811  0.86013792  1
  H+  H130  1  0.43461887  0.88432363  0.65936241  1
  H+  H131  1  0.11913920  0.89093140  0.65399852  1
  H+  H132  1  0.23230961  0.10725288  0.39999691  1
  H+  H133  1  0.42541164  0.20834346  0.62371993  1
  H+  H134  1  0.56914954  0.79559367  0.84876258  1
  H+  H135  1  0.79376452  0.56388110  0.14196862  1
  H+  H136  1  0.85818757  0.81576011  0.25965328  1
  H+  H137  1  0.10643084  0.19445724  0.59376989  1
  H+  H138  1  0.93341188  0.79544516  0.90442095  1
  H+  H139  1  0.17781484  0.57462215  0.02233745  1
  H+  H140  1  0.85802511  0.69743117  0.25650372  1
  H+  H141  1  0.35857294  0.17977745  0.24580330  1
  H+  H142  1  0.83595022  0.84942762  0.75623211  1
  H+  H143  1  0.22329584  0.78906658  0.40247798  1
  O2-  O144  1  0.12722734  0.23312049  0.22363714  1
  O2-  O145  1  0.08037274  0.18390654  0.70984118  1
  O2-  O146  1  0.11143173  0.55768604  0.22682851  1
  O2-  O147  1  0.12232800  0.56859433  0.74055033  1
  O2-  O148  1  0.12133075  0.88890688  0.21907145  1
  O2-  O149  1  0.12079582  0.89289185  0.72162941  1
  O2-  O150  1  0.43749969  0.21479207  0.21843401  1
  O2-  O151  1  0.43246258  0.22302962  0.72187111  1
  O2-  O152  1  0.43988721  0.56956070  0.21391895  1
  O2-  O153  1  0.46778153  0.58253794  0.71394506  1
  O2-  O154  1  0.45047817  0.88929561  0.22066036  1
  O2-  O155  1  0.43959407  0.89243715  0.72685142  1
  O2-  O156  1  0.78628761  0.21913871  0.20881547  1
  O2-  O157  1  0.76105938  0.22443155  0.72168269  1
  O2-  O158  1  0.78702943  0.56278833  0.21112784  1
  O2-  O159  1  0.79293439  0.55744287  0.71908017  1
  O2-  O160  1  0.78515566  0.88374991  0.22067398  1
  O2-  O161  1  0.80289449  0.89496857  0.73073042  1
  O2-  O162  1  0.22410736  0.10938972  0.28561712  1
  O2-  O163  1  0.21929172  0.10728589  0.78371517  1
  O2-  O164  1  0.23740843  0.45096806  0.28142648  1
  O2-  O165  1  0.24943320  0.49634289  0.78948460  1
  O2-  O166  1  0.22379215  0.77744311  0.28602604  1
  O2-  O167  1  0.21954400  0.78139987  0.79359060  1
  O2-  O168  1  0.57106224  0.15290262  0.29961986  1
  O2-  O169  1  0.54018317  0.11416969  0.78333311  1
  O2-  O170  1  0.56201671  0.44205438  0.23886742  1
  O2-  O171  1  0.56191213  0.45634013  0.77641231  1
  O2-  O172  1  0.54633573  0.76620686  0.27674431  1
  O2-  O173  1  0.57135409  0.79667980  0.78106171  1
  O2-  O174  1  0.89966815  0.11029658  0.27078044  1
  O2-  O175  1  0.87901236  0.10239021  0.78352103  1
  O2-  O176  1  0.88585299  0.44006744  0.28035296  1
  O2-  O177  1  0.90699683  0.45652812  0.78469274  1
  O2-  O178  1  0.89879598  0.77640306  0.28369349  1
  O2-  O179  1  0.90335816  0.77337098  0.79028532  1
  O2-  O180  1  0.23166909  0.10581443  0.46869579  1
  O2-  O181  1  0.19700081  0.09351181  0.97150178  1
  O2-  O182  1  0.24232605  0.42271047  0.46804127  1
  O2-  O183  1  0.22129351  0.44771049  0.96252196  1
  O2-  O184  1  0.22316211  0.79453801  0.47067246  1
  O2-  O185  1  0.20674352  0.80402141  0.99013440  1
  O2-  O186  1  0.52749583  0.10164640  0.48169593  1
  O2-  O187  1  0.55986230  0.11367018  0.96853831  1
  O2-  O188  1  0.47234875  0.38722460  0.41661112  1
  O2-  O189  1  0.56222596  0.46912762  0.95813495  1
  O2-  O190  1  0.55752314  0.78061954  0.45682888  1
  O2-  O191  1  0.56141577  0.79196087  0.97235112  1
  O2-  O192  1  0.91317333  0.09721350  0.45749547  1
  O2-  O193  1  0.89740263  0.11054474  0.97441351  1
  O2-  O194  1  0.88071487  0.46058118  0.46464636  1
  O2-  O195  1  0.89388447  0.44181867  0.96516982  1
  O2-  O196  1  0.88329628  0.78176657  0.46503972  1
  O2-  O197  1  0.95734904  0.81702754  0.96895815  1
  O2-  O198  1  0.12124060  0.21834678  0.04072141  1
  O2-  O199  1  0.11874154  0.20393627  0.52624434  1
  O2-  O200  1  0.11372182  0.58213770  0.04492406  1
  O2-  O201  1  0.09246787  0.57945974  0.53397033  1
  O2-  O202  1  0.15745372  0.86807057  0.03426802  1
  O2-  O203  1  0.11006530  0.89606886  0.53266312  1
  O2-  O204  1  0.42455453  0.19271322  0.03848359  1
  O2-  O205  1  0.42612473  0.20345466  0.55166250  1
  O2-  O206  1  0.44103232  0.55872029  0.03860306  1
  O2-  O207  1  0.47393057  0.57522921  0.52728725  1
  O2-  O208  1  0.44395412  0.89403509  0.03874335  1
  O2-  O209  1  0.44075852  0.87752284  0.53597687  1
  O2-  O210  1  0.78442015  0.22432636  0.02780361  1
  O2-  O211  1  0.73981765  0.24647173  0.54445399  1
  O2-  O212  1  0.79658612  0.56076187  0.03365944  1
  O2-  O213  1  0.79533025  0.58940396  0.53609110  1
  O2-  O214  1  0.78436819  0.88429080  0.02821920  1
  O2-  O215  1  0.77695867  0.87643898  0.50440092  1
