# generated using pymatgen
data_H2O
_symmetry_space_group_name_H-M   'P 1'
_cell_length_a   13.53115992
_cell_length_b   13.53107222
_cell_length_c   14.68342767
_cell_angle_alpha   90.09907195
_cell_angle_beta   89.93412831
_cell_angle_gamma   120.00797084
_symmetry_Int_Tables_number   1
_chemical_formula_structural   H2O
_chemical_formula_sum   'H144 O72'
_cell_volume   2328.03635409
_cell_formula_units_Z   72
loop_
 _symmetry_equiv_pos_site_id
 _symmetry_equiv_pos_as_xyz
  1  'x, y, z'
loop_
 _atom_type_symbol
 _atom_type_oxidation_number
  H+  1.0
  O2-  -2.0
loop_
 _atom_site_type_symbol
 _atom_site_label
 _atom_site_symmetry_multiplicity
 _atom_site_fract_x
 _atom_site_fract_y
 _atom_site_fract_z
 _atom_site_occupancy
  H+  H0  1  0.51750796  0.52226965  0.50923604  1
  H+  H1  1  0.49325989  0.20076466  0.00874332  1
  H+  H2  1  0.53263217  0.37952207  0.99678503  1
  H+  H3  1  0.35673011  0.51482460  0.24193673  1
  H+  H4  1  0.47685407  0.85143766  0.23871908  1
  H+  H5  1  0.49049244  0.20814209  0.51179415  1
  H+  H6  1  1.00444738  0.83754299  0.26700302  1
  H+  H7  1  0.69279864  0.33763004  0.45493326  1
  H+  H8  1  0.21179857  0.49720218  0.26695796  1
  H+  H9  1  0.12407120  0.55302004  0.54672805  1
  H+  H10  1  0.49997186  0.69270301  0.25538625  1
  H+  H11  1  0.17299617  0.88381171  1.00736608  1
  H+  H12  1  0.14032497  0.86065035  0.52948305  1
  H+  H13  1  0.91466936  0.47922233  0.29015516  1
  H+  H14  1  0.91168471  0.11789253  0.90332239  1
  H+  H15  1  0.79116185  0.22700723  0.61588976  1
  H+  H16  1  0.02903913  0.86746549  0.54091487  1
  H+  H17  1  0.76314454  0.53939584  0.12245516  1
  H+  H18  1  0.85893762  0.15517890  0.49283344  1
  H+  H19  1  0.50889461  0.68848651  0.76114053  1
  H+  H20  1  0.15091085  0.63467242  0.77751416  1
  H+  H21  1  0.25269080  0.63962864  0.57655835  1
  H+  H22  1  0.50949457  0.36419424  0.48457648  1
  H+  H23  1  0.81200576  0.31128884  0.76137319  1
  H+  H24  1  0.17086064  0.65836355  0.21916491  1
  H+  H25  1  0.07398749  0.52897412  0.21563501  1
  H+  H26  1  0.14372119  0.20461714  0.02764641  1
  H+  H27  1  0.51504670  0.02132391  0.97846258  1
  H+  H28  1  0.23829152  0.76669500  0.50428562  1
  H+  H29  1  0.81324833  0.88142280  0.75380953  1
  H+  H30  1  0.45768371  0.29331157  0.23875351  1
  H+  H31  1  0.11697198  0.96015012  0.26884876  1
  H+  H32  1  0.04415242  0.86379407  0.77145569  1
  H+  H33  1  0.39780137  0.51639401  0.50390001  1
  H+  H34  1  0.86754406  0.66692654  0.53323396  1
  H+  H35  1  0.80634578  0.47587372  0.24195559  1
  H+  H36  1  0.81195123  0.79866255  0.24504266  1
  H+  H37  1  0.79314469  0.29593043  0.22744592  1
  H+  H38  1  0.18944904  0.71495972  0.98896372  1
  H+  H39  1  0.82689340  0.53382683  0.77330821  1
  H+  H40  1  0.96867266  0.85583084  0.41358907  1
  H+  H41  1  0.52850578  0.15593763  0.75728889  1
  H+  H42  1  0.84151828  0.30605802  0.53085002  1
  H+  H43  1  0.48035043  0.52076090  0.22937288  1
  H+  H44  1  0.35275971  0.51552153  0.00426882  1
  H+  H45  1  0.67737170  0.17882395  0.22363294  1
  H+  H46  1  0.93046970  0.13391232  0.21836153  1
  H+  H47  1  0.16868211  0.82387363  0.26886447  1
  H+  H48  1  0.49836606  0.15053047  0.25114690  1
  H+  H49  1  0.64011688  0.15643617  0.97773408  1
  H+  H50  1  0.04437034  0.52256104  -0.01618618  1
  H+  H51  1  -0.02640524  0.47204557  0.51366498  1
  H+  H52  1  0.46823984  0.00192526  0.51038332  1
  H+  H53  1  0.20494468  0.49933188  -0.02185984  1
  H+  H54  1  0.67354026  0.83941678  0.23613670  1
  H+  H55  1  0.17511902  0.07843871  0.15070971  1
  H+  H56  1  0.85259291  0.48956393  0.95241676  1
  H+  H57  1  0.19821705  0.05724277  0.77730212  1
  H+  H58  1  0.82370743  0.97581065  0.50671506  1
  H+  H59  1  0.17320551  0.31133117  0.50035779  1
  H+  H60  1  0.82445774  0.14784184  0.23952588  1
  H+  H61  1  0.18445972  0.46965190  0.78012958  1
  H+  H62  1  0.19639810  0.05207492  0.52295058  1
  H+  H63  1  0.05034350  0.19873163  0.50370624  1
  H+  H64  1  0.99264502  0.50727759  0.47026270  1
  H+  H65  1  0.40571848  0.85749669  0.52560531  1
  H+  H66  1  0.36600230  0.86035555  1.00661384  1
  H+  H67  1  0.29491255  0.46122813  0.75645255  1
  H+  H68  1  0.64382673  0.49619961  0.76613597  1
  H+  H69  1  0.09762994  0.27948442  0.75461098  1
  H+  H70  1  0.16724008  0.15338431  0.23023262  1
  H+  H71  1  0.52117354  0.99596284  0.51180694  1
  H+  H72  1  0.62546746  0.81182885  0.76362910  1
  H+  H73  1  0.49918254  0.80777155  -0.00897348  1
  H+  H74  1  0.79233867  0.95727542  0.23626483  1
  H+  H75  1  0.53466079  0.68631063  0.49107240  1
  H+  H76  1  0.65308169  0.17726585  0.47800119  1
  H+  H77  1  0.64705155  0.15263270  0.76154440  1
  H+  H78  1  0.83274308  0.96715103  -0.00158687  1
  H+  H79  1  0.82110132  0.53510325  0.52998951  1
  H+  H80  1  0.82022893  0.63232205  -0.00160826  1
  H+  H81  1  0.83848571  0.74278953  0.32997935  1
  H+  H82  1  0.30211805  0.81810791  0.76895588  1
  H+  H83  1  0.34083263  0.17266658  0.22093587  1
  H+  H84  1  0.11051096  0.69633135  0.46935737  1
  H+  H85  1  0.94486704  0.79306436  1.04772050  1
  H+  H86  1  0.31680498  0.16908469  0.76848290  1
  H+  H87  1  0.70071925  0.51504293  -0.01273437  1
  H+  H88  1  0.51429589  0.78950386  0.50053847  1
  H+  H89  1  0.20704647  0.08201870  0.99259764  1
  H+  H90  1  0.23410282  0.48859548  0.49474079  1
  H+  H91  1  -0.02805630  0.48771669  0.81125109  1
  H+  H92  1  0.50567025  0.30939280  0.74814422  1
  H+  H93  1  0.48414134  0.51125634  0.74306525  1
  H+  H94  1  1.06797898  0.22415683  0.29159002  1
  H+  H95  1  0.19584257  0.16815373  0.50913734  1
  H+  H96  1  0.86494952  0.84451362  0.47866064  1
  H+  H97  1  0.48090275  0.64859805  1.01108784  1
  H+  H98  1  0.78884383  0.61966195  0.21192284  1
  H+  H99  1  0.79895865  0.30204821  -0.01542268  1
  H+  H100  1  0.07364113  0.90606627  -0.01788600  1
  H+  H101  1  0.96271771  0.14193820  1.00290641  1
  H+  H102  1  0.70888353  0.85351667  0.50600278  1
  H+  H103  1  0.52008304  0.49256021  0.99242965  1
  H+  H104  1  0.53645752  0.76079130  -0.09563941  1
  H+  H105  1  0.86344973  0.72075709  0.78505424  1
  H+  H106  1  0.61357013  0.46940690  0.24072991  1
  H+  H107  1  0.48240454  0.83727940  0.75289104  1
  H+  H108  1  0.18485245  0.82412882  0.77256631  1
  H+  H109  1  0.63590960  0.45045367  0.45621001  1
  H+  H110  1  0.88573594  0.11679628  0.39731165  1
  H+  H111  1  0.46232019  0.23300240  0.65845884  1
  H+  H112  1  0.48695760  0.95884886  0.73899057  1
  H+  H113  1  0.55676185  0.10169177  0.87742415  1
  H+  H114  1  0.84536625  0.21507515  0.75527865  1
  H+  H115  1  0.45004325  0.90201947  0.09336385  1
  H+  H116  1  0.18409655  0.34263556  0.26255157  1
  H+  H117  1  0.10308557  0.23535492  0.12107583  1
  H+  H118  1  0.36472132  0.19476033  0.52456797  1
  H+  H119  1  0.55817390  0.45066573  0.85051812  1
  H+  H120  1  0.11741794  0.54480075  0.69891564  1
  H+  H121  1  0.11830954  0.90054845  0.68070682  1
  H+  H122  1  0.23129719  0.79606217  0.90401422  1
  H+  H123  1  0.26095525  0.45821598  0.39183865  1
  H+  H124  1  0.81433264  0.58270235  0.67823633  1
  H+  H125  1  0.54412333  0.43909870  0.33575106  1
  H+  H126  1  0.23441027  0.16172037  0.90847536  1
  H+  H127  1  0.50716212  0.03611323  0.25568965  1
  H+  H128  1  0.84796586  0.82379250  0.01112177  1
  H+  H129  1  0.39612527  0.82075138  0.62733693  1
  H+  H130  1  0.12356398  0.56481283  0.07350894  1
  H+  H131  1  0.77534429  0.88887011  0.08823820  1
  H+  H132  1  0.54379215  0.76967000  0.34644513  1
  H+  H133  1  0.45110579  0.54988346  0.65150973  1
  H+  H134  1  0.90354609  0.79551121  0.87419079  1
  H+  H135  1  0.77045436  0.89676185  0.65826365  1
  H+  H136  1  0.58169264  0.16101525  0.38476657  1
  H+  H137  1  0.36222391  0.85801388  0.23316851  1
  H+  H138  1  0.21996443  0.77865610  0.33977882  1
  H+  H139  1  0.75669679  0.23104308  0.07972696  1
  H+  H140  1  0.24634081  0.44346342  0.90001754  1
  H+  H141  1  0.78249259  0.43190756  0.38991458  1
  H+  H142  1  0.47184703  0.24087710  0.10509520  1
  H+  H143  1  0.43768566  0.56099153  0.10729775  1
  O2-  O144  1  0.12802912  0.25198981  0.24579088  1
  O2-  O145  1  0.02395425  0.21310700  0.73320492  1
  O2-  O146  1  0.14826220  0.58256964  0.19037969  1
  O2-  O147  1  0.10769773  0.55041180  0.76494418  1
  O2-  O148  1  0.08105394  0.88161350  0.29495315  1
  O2-  O149  1  0.12462228  0.89896103  0.74814995  1
  O2-  O150  1  0.42564335  0.21362948  0.21507921  1
  O2-  O151  1  0.46868671  0.22852039  0.72623990  1
  O2-  O152  1  0.43995149  0.56181776  0.20955908  1
  O2-  O153  1  0.44028123  0.54737002  0.71898852  1
  O2-  O154  1  0.44323843  0.89675214  0.21288135  1
  O2-  O155  1  0.44006350  0.87555358  0.72705067  1
  O2-  O156  1  0.75825503  0.21839950  0.20022899  1
  O2-  O157  1  0.78521397  0.23594541  0.73273692  1
  O2-  O158  1  0.75351753  0.53854860  0.19059399  1
  O2-  O159  1  0.79230161  0.57506909  0.74425917  1
  O2-  O160  1  0.75485783  0.87698985  0.21473055  1
  O2-  O161  1  0.75626793  0.89539173  0.72435362  1
  O2-  O162  1  0.19117558  0.09537740  0.21558474  1
  O2-  O163  1  0.23841841  0.13958078  0.79139909  1
  O2-  O164  1  0.25121103  0.45737537  0.28751923  1
  O2-  O165  1  0.21963084  0.42130074  0.78836274  1
  O2-  O166  1  0.21740558  0.78727640  0.27319624  1
  O2-  O167  1  0.22255717  0.77911111  0.79306200  1
  O2-  O168  1  0.54728575  0.11863091  0.27308184  1
  O2-  O169  1  0.56375460  0.10871782  0.77919077  1
  O2-  O170  1  0.53593414  0.43544939  0.26767555  1
  O2-  O171  1  0.56130102  0.44989923  0.78225953  1
  O2-  O172  1  0.53840717  0.77376421  0.27907754  1
  O2-  O173  1  0.54418717  0.76750594  0.78681811  1
  O2-  O174  1  0.86664669  0.10829220  0.26094448  1
  O2-  O175  1  0.94328210  0.20238114  0.79545760  1
  O2-  O176  1  0.83315428  0.43028778  0.28055270  1
  O2-  O177  1  0.88903760  0.45181120  0.83049518  1
  O2-  O178  1  0.84581174  0.74962553  0.26321941  1
  O2-  O179  1  0.90564568  0.80120520  0.80697157  1
  O2-  O180  1  0.23958718  0.12759135  0.49413385  1
  O2-  O181  1  0.23284539  0.16198532  0.97667271  1
  O2-  O182  1  0.26909221  0.45079243  0.46148876  1
  O2-  O183  1  0.25315512  0.46418743  0.96669596  1
  O2-  O184  1  0.18069760  0.77014029  0.46496367  1
  O2-  O185  1  0.23198449  0.79768275  0.97284615  1
  O2-  O186  1  0.60093909  0.19707987  0.44672851  1
  O2-  O187  1  0.55495987  0.10157183  0.94987888  1
  O2-  O188  1  0.55751277  0.43941194  0.45193690  1
  O2-  O189  1  0.56087646  0.45598632  0.96546521  1
  O2-  O190  1  0.56403309  0.76773173  0.46840227  1
  O2-  O191  1  0.52898630  0.75712969  0.97212698  1
  O2-  O192  1  0.89470270  0.11406621  0.46365444  1
  O2-  O193  1  0.89148807  0.09315142  0.96696773  1
  O2-  O194  1  0.74866393  0.42181712  0.45167307  1
  O2-  O195  1  0.89404578  0.44816572  0.93133074  1
  O2-  O196  1  0.90646710  0.80470477  0.45467286  1
  O2-  O197  1  0.89010989  0.77454391  0.99831658  1
  O2-  O198  1  0.08499990  0.21901088  0.05613034  1
  O2-  O199  1  0.12748461  0.23579402  0.52998594  1
  O2-  O200  1  0.12412738  0.56616570  0.00564022  1
  O2-  O201  1  0.18837290  0.56079318  0.58281388  1
  O2-  O202  1  0.13600453  0.92878165  0.02555633  1
  O2-  O203  1  0.10823083  0.90134686  0.56329307  1
  O2-  O204  1  0.51540917  0.26764748  0.04687889  1
  O2-  O205  1  0.44991934  0.24240856  0.54268694  1
  O2-  O206  1  0.44151770  0.56201767  0.03608319  1
  O2-  O207  1  0.47585944  0.56068952  0.53329360  1
  O2-  O208  1  0.44931366  0.90081037  0.02518049  1
  O2-  O209  1  0.37078357  0.78823427  0.56324648  1
  O2-  O210  1  0.74718642  0.22714873  0.01230779  1
  O2-  O211  1  0.79489230  0.22573687  0.54738812  1
  O2-  O212  1  0.78250709  0.54714896  0.00706106  1
  O2-  O213  1  0.86376319  0.60377085  0.56870592  1
  O2-  O214  1  0.79191797  0.88548516  0.02333309  1
  O2-  O215  1  0.78908849  0.89522769  0.52850698  1
