# generated using pymatgen
data_H2O
_symmetry_space_group_name_H-M   'P 1'
_cell_length_a   13.51966574
_cell_length_b   13.52480386
_cell_length_c   14.71538298
_cell_angle_alpha   89.96162426
_cell_angle_beta   90.03753703
_cell_angle_gamma   119.99076655
_symmetry_Int_Tables_number   1
_chemical_formula_structural   H2O
_chemical_formula_sum   'H144 O72'
_cell_volume   2330.44793322
_cell_formula_units_Z   72
loop_
 _symmetry_equiv_pos_site_id
 _symmetry_equiv_pos_as_xyz
  1  'x, y, z'
loop_
 _atom_type_symbol
 _atom_type_oxidation_number
  H+  1.0
  O2-  -2.0
loop_
 _atom_site_type_symbol
 _atom_site_label
 _atom_site_symmetry_multiplicity
 _atom_site_fract_x
 _atom_site_fract_y
 _atom_site_fract_z
 _atom_site_occupancy
  H+  H0  1  0.51930720  0.17385223  0.27016641  1
  H+  H1  1  0.87422811  0.17597340  0.45284182  1
  H+  H2  1  0.18065577  0.14433642  0.75728311  1
  H+  H3  1  0.54541606  0.81830030  0.98273954  1
  H+  H4  1  0.16671267  0.84673162  0.47455910  1
  H+  H5  1  0.85752944  0.36786979  0.98126250  1
  H+  H6  1  0.70274560  0.16921653  0.50729877  1
  H+  H7  1  0.48621013  0.52085716  0.51527419  1
  H+  H8  1  0.55319419  0.82051101  0.27407603  1
  H+  H9  1  0.17960122  0.69343440  0.49342435  1
  H+  H10  1  0.48064444  0.97541101  0.50805300  1
  H+  H11  1  0.47889647  0.33390044  0.23837869  1
  H+  H12  1  0.43286606  0.54179270  0.64807231  1
  H+  H13  1  0.86168183  1.02688557  0.76614527  1
  H+  H14  1  0.83853577  0.29276613  0.73152060  1
  H+  H15  1  0.19382459  0.56566736  0.02937624  1
  H+  H16  1  0.59356392  0.34810081  0.89503399  1
  H+  H17  1  0.32652368  0.50650057  0.25936744  1
  H+  H18  1  0.25942407  0.77210518  0.23926650  1
  H+  H19  1  0.53486469  0.77061056  0.79753610  1
  H+  H20  1  0.86236690  0.14517773  0.76154318  1
  H+  H21  1  0.36256600  0.85370062  0.50225009  1
  H+  H22  1  0.16566258  0.30922466  0.51214011  1
  H+  H23  1  0.85781778  0.70188346  -0.00959640  1
  H+  H24  1  0.88093599  0.81925115  0.51159649  1
  H+  H25  1  0.47423623  0.45890358  0.02212894  1
  H+  H26  1  0.11528831  0.90301381  0.32939572  1
  H+  H27  1  0.15353157  0.65308419  0.01292202  1
  H+  H28  1  0.70059855  0.18664190  0.22966109  1
  H+  H29  1  0.82415418  0.83919757  0.74625159  1
  H+  H30  1  0.97799068  0.46983391  0.74573254  1
  H+  H31  1  0.44591971  0.65181225  0.03005841  1
  H+  H32  1  0.95737775  0.46778038  0.24235009  1
  H+  H33  1  0.36128538  0.17538190  0.02225044  1
  H+  H34  1  0.52230825  0.37934160  0.49181036  1
  H+  H35  1  0.18526376  1.01491247  -0.00181110  1
  H+  H36  1  0.30660157  0.48870137  0.49187598  1
  H+  H37  1  0.97833411  0.48316466  0.98082918  1
  H+  H38  1  0.48875216  -0.03365817  0.99609289  1
  H+  H39  1  0.82132800  0.28657824  0.20935312  1
  H+  H40  1  0.28792555  0.81457002  0.75454577  1
  H+  H41  1  0.64607542  0.47426114  0.86902551  1
  H+  H42  1  0.63958857  0.14579202  1.00008894  1
  H+  H43  1  0.33633185  0.48099706  0.75043995  1
  H+  H44  1  0.84643600  0.47510508  0.52447780  1
  H+  H45  1  0.17674639  0.82115992  0.97956631  1
  H+  H46  1  1.01596017  0.84048020  0.99267325  1
  H+  H47  1  0.50821702  0.81727406  0.49947068  1
  H+  H48  1  0.46913895  0.86849657  0.72923008  1
  H+  H49  1  0.18221731  0.47877672  0.25989328  1
  H+  H50  1  0.18073204  0.33378401  0.98924604  1
  H+  H51  1  0.80125905  0.51377375  0.24089048  1
  H+  H52  1  0.12438230  0.60443549  0.24618457  1
  H+  H53  1  0.11187716  0.22558199  0.64991460  1
  H+  H54  1  1.03824477  0.51660364  0.52143058  1
  H+  H55  1  0.16759375  0.51493940  0.73850667  1
  H+  H56  1  0.48164614  0.63756420  0.52303047  1
  H+  H57  1  0.80361492  0.94335306  0.20989793  1
  H+  H58  1  0.03599271  0.18259455  0.74226363  1
  H+  H59  1  0.53157450  0.04594356  0.74496227  1
  H+  H60  1  0.54193477  0.06959895  0.27913848  1
  H+  H61  1  0.86498204  0.04675687  1.00792223  1
  H+  H62  1  0.77808811  0.98347190  0.54336768  1
  H+  H63  1  0.74128509  0.85912095  1.05811466  1
  H+  H64  1  0.58904461  0.74726283  0.92790874  1
  H+  H65  1  0.39309252  0.16539461  0.81064290  1
  H+  H66  1  0.16108366  0.63088821  0.74005365  1
  H+  H67  1  0.33238291  0.52839209  0.02449288  1
  H+  H68  1  0.13290503  0.93954242  0.72966136  1
  H+  H69  1  0.29956915  0.82485571  -0.02709056  1
  H+  H70  1  0.93810730  0.81194428  0.28082387  1
  H+  H71  1  0.65198100  0.78349962  0.76534062  1
  H+  H72  1  0.47585436  0.29867213  0.01047723  1
  H+  H73  1  0.70401772  0.52047854  0.51030954  1
  H+  H74  1  0.82891147  0.18900097  -0.00277391  1
  H+  H75  1  0.82939806  0.69055032  0.76358601  1
  H+  H76  1  0.18288113  0.15281191  0.52187303  1
  H+  H77  1  0.52150655  0.14590609  0.01194879  1
  H+  H78  1  0.16031659  0.79813560  0.26088649  1
  H+  H79  1  0.13158382  0.41280592  0.96230391  1
  H+  H80  1  1.03395406  0.84627463  0.47953863  1
  H+  H81  1  0.47812356  0.64141669  0.25477996  1
  H+  H82  1  0.52848858  0.16523096  0.51414642  1
  H+  H83  1  0.24337337  0.10001063  0.91419945  1
  H+  H84  1  0.12873834  0.82158483  0.73655460  1
  H+  H85  1  0.82746411  0.68939962  0.28264925  1
  H+  H86  1  0.62542338  0.49042667  0.25245311  1
  H+  H87  1  0.04723757  0.19837708  0.49926606  1
  H+  H88  1  0.18965079  0.34909427  0.75440868  1
  H+  H89  1  0.95398452  0.09562595  0.32414647  1
  H+  H90  1  0.82942389  0.63003931  0.51593784  1
  H+  H91  1  0.66928409  0.50153758  0.72036793  1
  H+  H92  1  0.72581779  0.51436598  0.00491428  1
  H+  H93  1  0.89550550  0.43277793  0.83056090  1
  H+  H94  1  0.62819130  0.82040963  0.49711713  1
  H+  H95  1  0.95748340  0.80103404  0.75566518  1
  H+  H96  1  0.16178739  0.16732849  0.01159454  1
  H+  H97  1  0.50609321  0.49332626  0.25430426  1
  H+  H98  1  0.45539721  0.46116600  0.97437089  1
  H+  H99  1  0.21885537  0.75982990  0.39767274  1
  H+  H100  1  0.81944653  0.28701244  0.51431876  1
  H+  H101  1  0.16652868  -0.02395230  0.49252060  1
  H+  H102  1  0.38593969  0.20416572  0.55162380  1
  H+  H103  1  0.66023648  0.15226915  0.75086181  1
  H+  H104  1  0.82280467  0.95556309  0.45799781  1
  H+  H105  1  0.48729951  0.60360855  0.74774911  1
  H+  H106  1  0.77830334  0.21760491  0.08354863  1
  H+  H107  1  0.44734787  0.89973768  0.22072953  1
  H+  H108  1  0.77478858  0.56428101  0.15440803  1
  H+  H109  1  0.88722369  0.77606110  0.89867518  1
  H+  H110  1  0.79674475  0.20513326  0.64605849  1
  H+  H111  1  0.34899335  0.20798523  0.22610700  1
  H+  H112  1  0.18695938  0.48676555  0.48889748  1
  H+  H113  1  0.90574747  0.10816109  0.90917176  1
  H+  H114  1  0.09013482  0.86509001  0.08333808  1
  H+  H115  1  0.23246747  0.42446065  0.84942006  1
  H+  H116  1  0.23133329  0.45107517  0.35522779  1
  H+  H117  1  0.55738968  0.13260358  0.41752623  1
  H+  H118  1  0.43316976  0.85609069  0.05935467  1
  H+  H119  1  0.84479874  0.52660172  0.01324466  1
  H+  H120  1  0.78269567  0.87973610  0.65851577  1
  H+  H121  1  0.51791189  0.17812985  0.80327194  1
  H+  H122  1  0.55459429  0.45626695  0.40186330  1
  H+  H123  1  0.04436597  0.17179746  0.01635104  1
  H+  H124  1  0.49112516  0.29360051  0.61196004  1
  H+  H125  1  0.89057598  0.77096759  0.41057203  1
  H+  H126  1  0.56767375  0.96459462  0.17603730  1
  H+  H127  1  0.44181570  0.24459891  0.13901707  1
  H+  H128  1  0.42699782  0.89845407  0.63981179  1
  H+  H129  1  0.89351535  0.45482843  0.43581555  1
  H+  H130  1  0.13477071  0.96326960  0.23557087  1
  H+  H131  1  0.20674038  0.12122194  0.30432261  1
  H+  H132  1  0.13030613  0.56127895  0.60021584  1
  H+  H133  1  0.11920450  0.04586557  0.82459505  1
  H+  H134  1  0.77627891  0.56077841  0.66039480  1
  H+  H135  1  0.13773818  0.18684539  0.15607815  1
  H+  H136  1  0.86017515  0.39073074  0.31303044  1
  H+  H137  1  0.48341579  0.41998412  0.71338913  1
  H+  H138  1  0.41529902  0.57433819  0.15913800  1
  H+  H139  1  0.21138437  0.76681248  0.84500335  1
  H+  H140  1  0.26331724  0.14699194  0.44925880  1
  H+  H141  1  0.50874343  0.32329748  0.75215051  1
  H+  H142  1  0.54912991  0.75764711  0.36590057  1
  H+  H143  1  0.10456965  0.54271148  0.15144266  1
  O2-  O144  1  0.14139527  0.18075346  0.22408083  1
  O2-  O145  1  0.11715356  0.22531196  0.71802570  1
  O2-  O146  1  0.09704716  0.52781565  0.21882899  1
  O2-  O147  1  0.12800492  0.55243360  0.71201679  1
  O2-  O148  1  0.10237467  0.88662554  0.26391113  1
  O2-  O149  1  0.08743204  0.85923606  0.71092084  1
  O2-  O150  1  0.43452107  0.24814016  0.21259601  1
  O2-  O151  1  0.47380076  0.21911028  0.82230013  1
  O2-  O152  1  0.42901630  0.56098743  0.22523439  1
  O2-  O153  1  0.43082034  0.52880135  0.71749732  1
  O2-  O154  1  0.52873432  0.94107525  0.23482827  1
  O2-  O155  1  0.42346139  0.90138345  0.70826440  1
  O2-  O156  1  0.77096710  0.20488349  0.19657154  1
  O2-  O157  1  0.79839880  0.20853836  0.71339644  1
  O2-  O158  1  0.76314842  0.55716860  0.22213209  1
  O2-  O159  1  0.75122517  0.56011208  0.72359230  1
  O2-  O160  1  0.84558139  0.93232612  0.16038776  1
  O2-  O161  1  0.77878177  0.87794632  0.72493694  1
  O2-  O162  1  0.21067897  0.12269601  0.23760405  1
  O2-  O163  1  0.19204465  0.08729445  0.79232777  1
  O2-  O164  1  0.23551813  0.45386708  0.28579873  1
  O2-  O165  1  0.23933662  0.43065649  0.78053791  1
  O2-  O166  1  0.19276704  0.74822500  0.27804396  1
  O2-  O167  1  0.20902286  0.76215126  0.77693021  1
  O2-  O168  1  0.56769149  0.14852108  0.30029101  1
  O2-  O169  1  0.58200389  0.11713645  0.77760352  1
  O2-  O170  1  0.54305979  0.44859304  0.27443141  1
  O2-  O171  1  0.52931967  0.38315724  0.70283261  1
  O2-  O172  1  0.55600293  0.75428393  0.29857151  1
  O2-  O173  1  0.57600093  0.72857810  0.79510799  1
  O2-  O174  1  0.89709654  0.07135522  0.37327985  1
  O2-  O175  1  0.90519521  0.10741641  0.78700075  1
  O2-  O176  1  0.87401671  0.43452737  0.25721441  1
  O2-  O177  1  0.89735780  0.42221842  0.76427543  1
  O2-  O178  1  0.86660834  0.76467177  0.31442668  1
  O2-  O179  1  0.87926104  0.77236999  0.78319003  1
  O2-  O180  1  0.23006010  0.11459961  0.50836158  1
  O2-  O181  1  0.23690639  0.09833844  0.98107613  1
  O2-  O182  1  0.22789708  0.44717524  0.46541421  1
  O2-  O183  1  0.20245560  0.41017487  0.95855792  1
  O2-  O184  1  0.21912262  0.77257643  0.46434080  1
  O2-  O185  1  0.21589821  0.77832739  0.95954165  1
  O2-  O186  1  0.55697227  0.11818344  0.48416000  1
  O2-  O187  1  0.55476513  0.09653853  1.00475290  1
  O2-  O188  1  0.55946565  0.45994168  0.46907787  1
  O2-  O189  1  0.61888891  0.42353014  0.92181051  1
  O2-  O190  1  0.54570589  0.77198861  0.48257186  1
  O2-  O191  1  0.57272539  0.76306170  0.98980414  1
  O2-  O192  1  0.94389486  0.17944799  0.42486183  1
  O2-  O193  1  0.91253133  0.12134169  0.97601227  1
  O2-  O194  1  0.89041187  0.43820413  0.50048223  1
  O2-  O195  1  0.89914022  0.44898048  0.95894319  1
  O2-  O196  1  0.91618604  0.78054298  0.48046812  1
  O2-  O197  1  0.89559616  0.78130243  0.96627459  1
  O2-  O198  1  0.12675325  0.21078660  0.03734913  1
  O2-  O199  1  0.12039958  0.22889656  0.53495937  1
  O2-  O200  1  0.12645326  0.57394210  0.03823269  1
  O2-  O201  1  0.12248996  0.56146956  0.53184417  1
  O2-  O202  1  0.10103061  0.88067684  0.01826108  1
  O2-  O203  1  0.12596310  0.89508466  0.46659947  1
  O2-  O204  1  0.44196586  0.22786380  0.04632069  1
  O2-  O205  1  0.46987507  0.25225470  0.55208749  1
  O2-  O206  1  0.37348168  0.59723195  0.06250664  1
  O2-  O207  1  0.44160211  0.55502198  0.54246628  1
  O2-  O208  1  0.44412272  0.87818271  -0.00446201  1
  O2-  O209  1  0.44077470  0.89350273  0.52874161  1
  O2-  O210  1  0.78499563  0.22685813  0.01555005  1
  O2-  O211  1  0.78573517  0.20307929  0.52164067  1
  O2-  O212  1  0.79901673  0.56068174  0.03751544  1
  O2-  O213  1  0.78147150  0.55060828  0.53743209  1
  O2-  O214  1  0.78088201  0.93798124  0.08128832  1
  O2-  O215  1  0.77999916  0.91918121  0.51459379  1
