# generated using pymatgen
data_H2O
_symmetry_space_group_name_H-M   'P 1'
_cell_length_a   13.49276930
_cell_length_b   13.50071254
_cell_length_c   14.68606066
_cell_angle_alpha   90.02989637
_cell_angle_beta   89.97069402
_cell_angle_gamma   119.94283571
_symmetry_Int_Tables_number   1
_chemical_formula_structural   H2O
_chemical_formula_sum   'H144 O72'
_cell_volume   2318.16067115
_cell_formula_units_Z   72
loop_
 _symmetry_equiv_pos_site_id
 _symmetry_equiv_pos_as_xyz
  1  'x, y, z'
loop_
 _atom_type_symbol
 _atom_type_oxidation_number
  H+  1.0
  O2-  -2.0
loop_
 _atom_site_type_symbol
 _atom_site_label
 _atom_site_symmetry_multiplicity
 _atom_site_fract_x
 _atom_site_fract_y
 _atom_site_fract_z
 _atom_site_occupancy
  H+  H0  1  0.13484608  0.51581186  1.00672536  1
  H+  H1  1  0.96309812  0.48436746  0.99546010  1
  H+  H2  1  -0.02781332  0.16267039  0.77468246  1
  H+  H3  1  0.51073952  0.14463352  0.48589247  1
  H+  H4  1  0.46184850  0.62978827  0.51790479  1
  H+  H5  1  -0.01956455  0.17485799  0.01111347  1
  H+  H6  1  0.44568986  0.23320105  0.14848543  1
  H+  H7  1  0.81637479  0.84559367  0.76275116  1
  H+  H8  1  0.85708374  0.35617082  0.24991999  1
  H+  H9  1  0.83714933  0.99376010  0.01355066  1
  H+  H10  1  0.85451715  0.16683210  0.48394422  1
  H+  H11  1  0.16135323  0.52928457  0.25216404  1
  H+  H12  1  0.29053540  0.49496644  -0.04607828  1
  H+  H13  1  0.04039611  0.19405107  0.50885414  1
  H+  H14  1  0.61525497  0.48443579  0.75306103  1
  H+  H15  1  1.03115086  0.84531572  0.53209360  1
  H+  H16  1  0.53223320  0.74624358  0.12335707  1
  H+  H17  1  0.44382939  0.50731941  0.73477696  1
  H+  H18  1  0.20304542  0.37611436  0.27355638  1
  H+  H19  1  0.15833082  0.20540762  1.01703525  1
  H+  H20  1  0.35694090  0.85196595  0.53030382  1
  H+  H21  1  0.35249246  0.16503086  0.50671739  1
  H+  H22  1  0.03721455  0.51483983  0.24983442  1
  H+  H23  1  0.79959396  0.49722486  0.74093631  1
  H+  H24  1  0.63238477  0.49067479  0.98560424  1
  H+  H25  1  0.56477727  0.80022647  0.46531717  1
  H+  H26  1  0.55017310  0.23969853  0.71200756  1
  H+  H27  1  0.52778154  0.84242976  0.77554229  1
  H+  H28  1  0.48713031  0.18785923  0.23572238  1
  H+  H29  1  0.15566764  0.32299942  0.00902140  1
  H+  H30  1  0.47456397  0.64406437  -0.03458525  1
  H+  H31  1  0.18926400  1.05065186  0.25029149  1
  H+  H32  1  0.49239253  0.51210058  0.28006355  1
  H+  H33  1  0.62048045  0.80813965  0.20298025  1
  H+  H34  1  0.81631884  0.51331480  0.00783719  1
  H+  H35  1  0.32835826  0.18676681  0.76578761  1
  H+  H36  1  0.17738229  0.02577958  0.47948254  1
  H+  H37  1  0.77970162  0.55278490  0.45972116  1
  H+  H38  1  0.83068384  0.86895623  1.01066845  1
  H+  H39  1  0.47535947  0.97236909  0.52088817  1
  H+  H40  1  0.15042540  0.18055148  0.51326202  1
  H+  H41  1  0.50144667  0.36778620  0.75379522  1
  H+  H42  1  0.34776145  0.50664957  0.29298046  1
  H+  H43  1  0.81723732  0.61608279  0.23295301  1
  H+  H44  1  0.95637232  0.48144716  0.75078631  1
  H+  H45  1  0.63361609  0.47239056  0.26636487  1
  H+  H46  1  0.46347236  0.95586816  0.77414778  1
  H+  H47  1  0.65687371  0.84410260  0.78171970  1
  H+  H48  1  0.81691288  0.87721474  0.55253567  1
  H+  H49  1  0.04402801  0.86216125  0.21847333  1
  H+  H50  1  0.53182954  0.04303075  0.95930657  1
  H+  H51  1  0.27012407  0.48356192  0.73932493  1
  H+  H52  1  0.46645110  0.28626648  0.50618028  1
  H+  H53  1  0.15475712  0.19806889  0.74277495  1
  H+  H54  1  0.47424448  0.52674068  -0.04132412  1
  H+  H55  1  0.60478612  0.46250253  0.49991561  1
  H+  H56  1  0.45887311  0.51197116  0.49900434  1
  H+  H57  1  0.86141576  1.05535359  0.48473142  1
  H+  H58  1  0.65216007  0.84751179  -0.00206656  1
  H+  H59  1  0.51117908  0.35586642  0.26085151  1
  H+  H60  1  0.85852474  0.04458656  0.78998543  1
  H+  H61  1  -0.15299929  0.69260183  0.00420767  1
  H+  H62  1  0.35918300  0.85638960  0.23644949  1
  H+  H63  1  0.70136455  0.88063007  0.55547293  1
  H+  H64  1  0.84516483  0.81710822  0.21968450  1
  H+  H65  1  0.15125332  0.36330772  0.74035896  1
  H+  H66  1  0.85415542  0.68161963  0.56057553  1
  H+  H67  1  0.38747332  0.87822147  -0.00418392  1
  H+  H68  1  0.46289536  0.11802235  0.82412228  1
  H+  H69  1  0.81408874  0.66502402  0.76412176  1
  H+  H70  1  0.45441467  0.90356488  0.67183967  1
  H+  H71  1  0.17839778  0.69260503  0.51226516  1
  H+  H72  1  0.82897416  0.19343762  0.06404880  1
  H+  H73  1  0.36085850  0.19861224  1.01876534  1
  H+  H74  1  0.31036362  0.16535716  0.25536537  1
  H+  H75  1  0.13462868  0.50284755  0.70863321  1
  H+  H76  1  0.08759885  0.90034598  0.73513173  1
  H+  H77  1  0.85959527  0.76332964  0.48601858  1
  H+  H78  1  0.84956595  0.34054689  0.49947267  1
  H+  H79  1  0.53223052  0.85340739  0.99802084  1
  H+  H80  1  0.84406504  0.36899452  1.00315901  1
  H+  H81  1  0.88137447  0.76847838  0.13899951  1
  H+  H82  1  0.17528295  0.21421121  0.24419065  1
  H+  H83  1  0.96952651  0.45882375  0.50798742  1
  H+  H84  1  0.46981623  0.84626418  0.21459151  1
  H+  H85  1  0.80981215  0.97381911  0.24001121  1
  H+  H86  1  0.89650082  0.13903626  0.92538141  1
  H+  H87  1  0.18052822  0.70403849  0.26343506  1
  H+  H88  1  0.69291305  0.17458529  0.51333171  1
  H+  H89  1  0.17529560  0.80791830  0.49856213  1
  H+  H90  1  0.18301658  1.04634973  -0.01083469  1
  H+  H91  1  0.51938580  1.03564623  0.25208785  1
  H+  H92  1  0.93909464  0.75935830  0.78068662  1
  H+  H93  1  0.29478962  0.48972496  0.43158094  1
  H+  H94  1  0.18425572  0.86556869  0.72908690  1
  H+  H95  1  0.22296459  1.06417458  0.75668355  1
  H+  H96  1  0.16104158  0.86307934  0.23802846  1
  H+  H97  1  0.51044337  0.83208416  0.54528096  1
  H+  H98  1  0.47979978  0.31479838  1.01618597  1
  H+  H99  1  0.04709403  0.85627289  0.00602065  1
  H+  H100  1  0.21384589  0.84609348  0.97746636  1
  H+  H101  1  0.48577875  0.62729693  0.24662374  1
  H+  H102  1  0.63806136  0.15121786  0.24456344  1
  H+  H103  1  0.81789759  0.49803084  0.24659483  1
  H+  H104  1  0.15123683  0.51442443  0.56781336  1
  H+  H105  1  0.83220616  0.18878494  0.20688432  1
  H+  H106  1  0.17526797  0.69286143  0.72722212  1
  H+  H107  1  0.81360113  0.18147507  0.74469435  1
  H+  H108  1  0.75939342  0.52834975  0.64855342  1
  H+  H109  1  0.89202508  0.41746081  0.34861458  1
  H+  H110  1  0.18627561  0.44298597  0.88635100  1
  H+  H111  1  0.57072280  0.80834252  0.87603786  1
  H+  H112  1  -0.01643334  0.17447328  0.25308756  1
  H+  H113  1  0.54158326  0.43122641  0.40383727  1
  H+  H114  1  0.45401025  0.21726428  0.64054611  1
  H+  H115  1  0.88779646  0.44412159  0.84675976  1
  H+  H116  1  0.53591986  0.76479829  0.35546550  1
  H+  H117  1  0.87572854  0.82255397  0.37586139  1
  H+  H118  1  0.40080917  0.53142565  0.64114612  1
  H+  H119  1  0.45675747  0.92119049  0.08997365  1
  H+  H120  1  0.13937969  0.90823233  0.59464399  1
  H+  H121  1  0.77077833  0.53921173  0.09991888  1
  H+  H122  1  0.22769403  0.13229732  0.90473699  1
  H+  H123  1  0.82759121  0.48318587  0.50881919  1
  H+  H124  1  0.80683644  0.29401589  0.73798780  1
  H+  H125  1  0.78220320  0.90986539  0.14510716  1
  H+  H126  1  0.47436167  0.74958412  0.36134289  1
  H+  H127  1  0.44066094  0.51698501  0.11450652  1
  H+  H128  1  0.87773471  0.76761301  0.91648130  1
  H+  H129  1  0.10420528  0.21849119  0.65015588  1
  H+  H130  1  0.13277042  0.90387671  0.08998160  1
  H+  H131  1  0.14128178  0.26624441  0.15828263  1
  H+  H132  1  0.55243549  0.44588414  0.89662671  1
  H+  H133  1  0.22251777  0.11381246  0.39486545  1
  H+  H134  1  0.10000334  0.55175065  0.09923590  1
  H+  H135  1  0.77211930  0.21140060  0.60514235  1
  H+  H136  1  0.22218430  0.78147627  0.35215251  1
  H+  H137  1  0.37964808  0.50365861  0.11646721  1
  H+  H138  1  0.89225510  0.77643766  0.37382589  1
  H+  H139  1  0.24700470  0.79682849  0.89227890  1
  H+  H140  1  0.78824203  0.91008299  0.68280047  1
  H+  H141  1  0.30026945  0.79991914  0.74789984  1
  H+  H142  1  0.89803739  0.13541122  0.33663725  1
  H+  H143  1  0.55624591  0.10556447  0.40012457  1
  O2-  O144  1  0.14291836  0.26484867  0.22708371  1
  O2-  O145  1  0.10329848  0.22479434  0.71940260  1
  O2-  O146  1  0.11744852  0.56376108  0.22796088  1
  O2-  O147  1  0.09492837  0.55019529  0.68051383  1
  O2-  O148  1  0.12795090  0.90704614  0.20874249  1
  O2-  O149  1  0.16286500  0.92514321  0.70932777  1
  O2-  O150  1  0.44664747  0.22984185  0.21886075  1
  O2-  O151  1  0.47329774  0.22924484  0.70790226  1
  O2-  O152  1  0.45330423  0.55919021  0.28803610  1
  O2-  O153  1  0.39802263  0.53859713  0.70790648  1
  O2-  O154  1  0.43808700  0.89825108  0.21005727  1
  O2-  O155  1  0.45070838  0.88677492  0.73852852  1
  O2-  O156  1  0.78681593  0.22670266  0.18795822  1
  O2-  O157  1  0.77190423  0.21523885  0.71380836  1
  O2-  O158  1  0.77215243  0.53253607  0.22318471  1
  O2-  O159  1  0.75766113  0.53559727  0.71510641  1
  O2-  O160  1  0.76989865  0.89629684  0.21252818  1
  O2-  O161  1  0.78374092  0.89601848  0.75050542  1
  O2-  O162  1  0.22838977  0.12939394  0.27641712  1
  O2-  O163  1  0.24759971  0.14063766  0.78334623  1
  O2-  O164  1  0.24615884  0.46197173  0.30104873  1
  O2-  O165  1  0.18485149  0.44686506  0.75568900  1
  O2-  O166  1  0.22184105  0.78553552  0.28482486  1
  O2-  O167  1  0.21685337  0.76948528  0.75689190  1
  O2-  O168  1  0.56295015  0.11592685  0.27539926  1
  O2-  O169  1  0.46053135  0.04945955  0.84889398  1
  O2-  O170  1  0.55341197  0.43530148  0.28989982  1
  O2-  O171  1  0.53586628  0.44692038  0.77712621  1
  O2-  O172  1  0.53738942  0.75554815  0.18965719  1
  O2-  O173  1  0.57397740  0.80821173  0.80486449  1
  O2-  O174  1  0.90101428  0.13259465  0.26850716  1
  O2-  O175  1  0.89532736  0.12693548  0.80487977  1
  O2-  O176  1  0.89376489  0.43141968  0.28211906  1
  O2-  O177  1  0.87949876  0.44342814  0.77903670  1
  O2-  O178  1  0.88711901  0.77543375  0.20523676  1
  O2-  O179  1  0.86132593  0.74342672  0.79187618  1
  O2-  O180  1  0.22157921  0.10821115  0.46288609  1
  O2-  O181  1  0.21882178  0.12873586  0.97202608  1
  O2-  O182  1  0.21837219  0.45230515  0.39951958  1
  O2-  O183  1  0.20398689  0.44877806  0.95211652  1
  O2-  O184  1  0.21906132  0.76830607  0.48253586  1
  O2-  O185  1  0.26309490  0.81511552  0.95703299  1
  O2-  O186  1  0.55234852  0.10359921  0.46790229  1
  O2-  O187  1  0.56218499  0.10064997  0.90856820  1
  O2-  O188  1  0.52892263  0.42914288  0.47177314  1
  O2-  O189  1  0.55178571  0.45132557  0.96429149  1
  O2-  O190  1  0.55878467  0.79552422  0.53192821  1
  O2-  O191  1  0.56987616  0.80676656  0.97830689  1
  O2-  O192  1  0.89734723  0.13142346  0.45584349  1
  O2-  O193  1  0.89741052  0.13282962  0.99331024  1
  O2-  O194  1  0.89541942  0.42233063  0.47562018  1
  O2-  O195  1  0.88102647  0.44243190  0.97011667  1
  O2-  O196  1  0.87865519  0.76323794  0.55063847  1
  O2-  O197  1  0.88710240  0.77506554  0.98339002  1
  O2-  O198  1  0.12235790  0.24854241  0.04331389  1
  O2-  O199  1  0.11367444  0.22084860  0.54134477  1
  O2-  O200  1  0.08809921  0.54705730  0.03282645  1
  O2-  O201  1  0.10291815  0.54886443  0.57903097  1
  O2-  O202  1  0.12887228  0.90406633  0.02196044  1
  O2-  O203  1  0.11593551  0.88905321  0.52949889  1
  O2-  O204  1  0.43971786  0.23711961  0.04369933  1
  O2-  O205  1  0.43423953  0.20647376  0.52919803  1
  O2-  O206  1  0.43010902  0.56533134  -0.05656294  1
  O2-  O207  1  0.41058501  0.54618361  0.51402815  1
  O2-  O208  1  0.46816095  0.91959872  0.02315842  1
  O2-  O209  1  0.43616525  0.89838306  0.55544020  1
  O2-  O210  1  0.79539545  0.24019398  0.08731471  1
  O2-  O211  1  0.77350770  0.21392816  0.53553329  1
  O2-  O212  1  0.77708094  0.55454160  0.03328712  1
  O2-  O213  1  0.78278117  0.52526248  0.52059869  1
  O2-  O214  1  0.79090317  0.91024883  0.03135069  1
  O2-  O215  1  0.78539037  0.92608300  0.56970286  1
