# generated using pymatgen
data_H2O
_symmetry_space_group_name_H-M   'P 1'
_cell_length_a   13.52557376
_cell_length_b   13.51639178
_cell_length_c   14.69523005
_cell_angle_alpha   89.99508015
_cell_angle_beta   90.02301596
_cell_angle_gamma   120.00162541
_symmetry_Int_Tables_number   1
_chemical_formula_structural   H2O
_chemical_formula_sum   'H144 O72'
_cell_volume   2326.57114512
_cell_formula_units_Z   72
loop_
 _symmetry_equiv_pos_site_id
 _symmetry_equiv_pos_as_xyz
  1  'x, y, z'
loop_
 _atom_type_symbol
 _atom_type_oxidation_number
  H+  1.0
  O2-  -2.0
loop_
 _atom_site_type_symbol
 _atom_site_label
 _atom_site_symmetry_multiplicity
 _atom_site_fract_x
 _atom_site_fract_y
 _atom_site_fract_z
 _atom_site_occupancy
  H+  H0  1  0.50716590  1.03275005  0.49096502  1
  H+  H1  1  0.02125307  0.80536677  0.23339652  1
  H+  H2  1  0.16985337  0.01110275  1.00026737  1
  H+  H3  1  0.53646393  0.16098972  0.77564351  1
  H+  H4  1  0.01640295  0.50892347  0.50871525  1
  H+  H5  1  0.94819299  0.13542495  0.48581789  1
  H+  H6  1  0.35525025  0.51031506  0.55010696  1
  H+  H7  1  0.52281593  0.68501129  0.00915870  1
  H+  H8  1  0.13773741  0.00542765  0.75652211  1
  H+  H9  1  0.52475579  0.76202714  0.25438805  1
  H+  H10  1  0.29408096  0.81404393  0.49021628  1
  H+  H11  1  0.64051490  0.50612918  0.73957053  1
  H+  H12  1  0.83220096  0.63124358  0.25091081  1
  H+  H13  1  0.21278595  0.09523586  0.90924991  1
  H+  H14  1  0.52360771  0.35888469  0.49498791  1
  H+  H15  1  0.84219481  0.69246227  0.76008132  1
  H+  H16  1  0.53443954  0.70872513  0.75697091  1
  H+  H17  1  0.14119231  0.62882723  0.49997977  1
  H+  H18  1  0.48256765  0.89326076  0.22294802  1
  H+  H19  1  0.80159235  0.18157256  -0.01122258  1
  H+  H20  1  0.70848888  0.18416686  0.75273474  1
  H+  H21  1  0.47598486  0.45693943  1.01344348  1
  H+  H22  1  0.40806232  0.93826887  -0.03808416  1
  H+  H23  1  0.41262796  0.21533194  0.74583463  1
  H+  H24  1  0.53027892  0.51369806  0.01559357  1
  H+  H25  1  0.88746999  0.11757790  0.34336888  1
  H+  H26  1  0.27025121  0.46930316  0.24958248  1
  H+  H27  1  0.84843457  0.48117890  0.50019576  1
  H+  H28  1  0.29525805  0.82082465  0.25723118  1
  H+  H29  1  -0.04475087  0.46252553  0.23869514  1
  H+  H30  1  0.53531427  0.86501417  0.95600767  1
  H+  H31  1  0.34362069  0.85458453  0.74389451  1
  H+  H32  1  0.13586679  0.85839260  0.00630993  1
  H+  H33  1  0.86837244  0.78690640  0.25345762  1
  H+  H34  1  0.25857731  0.10908090  0.75422703  1
  H+  H35  1  0.36861717  0.56938444  0.53497580  1
  H+  H36  1  0.49390212  0.53179294  0.75214192  1
  H+  H37  1  0.82766849  0.64518631  0.49726144  1
  H+  H38  1  0.67048163  0.83204931  0.73816053  1
  H+  H39  1  0.64365200  0.87663550  0.25168664  1
  H+  H40  1  0.53847776  0.45808811  0.26500888  1
  H+  H41  1  0.84433419  0.35899827  0.50319989  1
  H+  H42  1  0.17711487  0.02903858  0.50225937  1
  H+  H43  1  0.47797824  0.17423390  0.51362595  1
  H+  H44  1  0.82285542  0.52143359  0.00886508  1
  H+  H45  1  0.36571457  0.18176752  -0.00288446  1
  H+  H46  1  0.48469308  0.58161422  0.21559504  1
  H+  H47  1  0.65652796  0.87089086  0.96553273  1
  H+  H48  1  0.36464705  0.19215953  0.22447751  1
  H+  H49  1  0.11258126  0.27980305  0.49586437  1
  H+  H50  1  0.84120822  0.46366651  0.25329765  1
  H+  H51  1  0.13980581  0.15000506  0.01043479  1
  H+  H52  1  0.82979497  1.01662744  -0.00801715  1
  H+  H53  1  0.21802312  0.77565506  0.39861484  1
  H+  H54  1  0.70940190  0.52123628  0.50071631  1
  H+  H55  1  0.63046265  0.81924539  0.48923300  1
  H+  H56  1  0.66516360  0.47602257  0.26241374  1
  H+  H57  1  0.85166954  0.81147788  0.47569092  1
  H+  H58  1  0.49412713  0.66323092  0.96340015  1
  H+  H59  1  0.14104979  0.18544557  0.73274688  1
  H+  H60  1  0.22005259  0.43746917  1.00258114  1
  H+  H61  1  0.45290436  0.54961659  0.31750462  1
  H+  H62  1  -0.02801985  0.15409918  0.25540585  1
  H+  H63  1  0.81454741  0.84066860  0.01018159  1
  H+  H64  1  0.13811859  0.46883522  0.47168955  1
  H+  H65  1  0.66064795  0.45274089  0.96983935  1
  H+  H66  1  0.84231607  0.13337266  0.76258229  1
  H+  H67  1  0.82587559  0.30047181  0.74392502  1
  H+  H68  1  0.75259390  0.45939107  0.69667598  1
  H+  H69  1  0.13816285  0.52124008  0.21751687  1
  H+  H70  1  0.53365231  0.38261708  0.74058275  1
  H+  H71  1  0.14513612  0.64236706  0.22967012  1
  H+  H72  1  0.97777669  0.83077272  0.99745464  1
  H+  H73  1  0.79675421  0.88155893  0.25360981  1
  H+  H74  1  0.16253430  0.31291372  0.72259563  1
  H+  H75  1  0.44681277  0.23492013  0.09351263  1
  H+  H76  1  0.78383577  0.55897309  0.62685923  1
  H+  H77  1  0.12918583  0.84068610  0.73440606  1
  H+  H78  1  0.17307439  0.14547243  0.50034442  1
  H+  H79  1  0.87590195  0.50243654  0.76977017  1
  H+  H80  1  0.81104289  0.96030179  0.49801292  1
  H+  H81  1  0.68706419  0.17553815  0.51056241  1
  H+  H82  1  0.47882191  0.85439539  0.51798965  1
  H+  H83  1  0.17003932  0.80333052  0.25068680  1
  H+  H84  1  0.96381168  0.48940079  0.99158917  1
  H+  H85  1  0.16174239  0.69258282  0.75800027  1
  H+  H86  1  0.83111987  0.22945568  0.24420151  1
  H+  H87  1  0.11521999  0.25569718  0.01118571  1
  H+  H88  1  1.02902165  0.51262239  0.73162932  1
  H+  H89  1  0.82169259  1.00900113  0.23727250  1
  H+  H90  1  0.52326356  0.07270584  0.25702396  1
  H+  H91  1  0.49634122  0.29384294  0.22778443  1
  H+  H92  1  0.64888451  0.18112214  0.26730729  1
  H+  H93  1  0.02537102  0.84332463  0.50053708  1
  H+  H94  1  0.82162255  0.84675610  0.73514857  1
  H+  H95  1  0.95883373  0.80961025  0.75294274  1
  H+  H96  1  0.18969787  0.14120879  0.26674414  1
  H+  H97  1  0.57218345  0.54796915  0.54255448  1
  H+  H98  1  0.14489822  0.84491057  0.50586152  1
  H+  H99  1  0.39063806  0.57552342  0.04758582  1
  H+  H100  1  0.13665292  0.28635798  0.22707048  1
  H+  H101  1  0.13128511  0.52573041  1.00101495  1
  H+  H102  1  0.84450040  0.36393552  0.98184949  1
  H+  H103  1  0.69361787  0.19010497  -0.04322376  1
  H+  H104  1  0.83060672  0.13719536  0.48400753  1
  H+  H105  1  0.81695331  0.63667386  0.00942025  1
  H+  H106  1  0.95078190  0.12691042  0.99325614  1
  H+  H107  1  0.35961319  0.17749118  0.52375714  1
  H+  H108  1  0.57240913  0.42972594  0.40189900  1
  H+  H109  1  0.58626222  0.82389954  0.82847651  1
  H+  H110  1  0.09399825  0.86363890  0.13982304  1
  H+  H111  1  0.42048235  0.90833554  0.13641320  1
  H+  H112  1  0.24008071  0.11776816  0.35565973  1
  H+  H113  1  0.58572508  0.41873747  0.87730220  1
  H+  H114  1  0.53582734  0.62459825  0.59547831  1
  H+  H115  1  0.15515243  0.38571042  0.90749067  1
  H+  H116  1  0.21947289  0.72594757  0.99278327  1
  H+  H117  1  0.24368190  0.45032471  0.46059536  1
  H+  H118  1  0.50879285  0.29466543  0.98234718  1
  H+  H119  1  0.20591961  0.77401792  0.84710685  1
  H+  H120  1  0.55943410  0.81572067  0.40322631  1
  H+  H121  1  0.89079705  0.78092375  0.90911189  1
  H+  H122  1  0.24862775  0.49662789  0.81004012  1
  H+  H123  1  0.43263842  0.89288608  0.60464308  1
  H+  H124  1  0.46435654  0.22613558  0.64520728  1
  H+  H125  1  0.78206610  0.55371297  0.15551267  1
  H+  H126  1  0.89380089  0.76373885  0.38704299  1
  H+  H127  1  0.89893541  0.44889629  0.85820759  1
  H+  H128  1  0.78115666  0.88322126  0.58720625  1
  H+  H129  1  0.09458711  0.21626420  0.59211828  1
  H+  H130  1  0.77066072  0.88611569  0.09498684  1
  H+  H131  1  0.76927602  0.20989632  0.59774293  1
  H+  H132  1  0.82143186  0.96877204  0.74052644  1
  H+  H133  1  0.09324758  0.87860533  0.64070173  1
  H+  H134  1  0.46845553  0.96184727  0.75438023  1
  H+  H135  1  0.09815182  0.19107001  0.14927993  1
  H+  H136  1  0.37984417  0.53941913  0.73160842  1
  H+  H137  1  0.11001144  0.58034230  0.08973509  1
  H+  H138  1  0.35212795  0.46315225  0.10204992  1
  H+  H139  1  0.55471443  0.11940326  0.40344585  1
  H+  H140  1  0.17498949  0.42652037  0.32617937  1
  H+  H141  1  0.10088069  0.55738914  0.63589555  1
  H+  H142  1  0.17775147  0.50018546  0.72670808  1
  H+  H143  1  0.86754993  0.08689196  0.85448154  1
  O2-  O144  1  0.10221598  0.20279894  0.21699882  1
  O2-  O145  1  0.11805574  0.23417937  0.69961111  1
  O2-  O146  1  0.10245515  0.56629468  0.19729760  1
  O2-  O147  1  0.10712698  0.55973165  0.70479986  1
  O2-  O148  1  0.09932229  0.84569294  0.20546486  1
  O2-  O149  1  0.08761178  0.87867597  0.70959289  1
  O2-  O150  1  0.43633801  0.23614808  0.18758706  1
  O2-  O151  1  0.48426726  0.24042227  0.71404594  1
  O2-  O152  1  0.43322175  0.51957873  0.25566469  1
  O2-  O153  1  0.45921318  0.58205362  0.75351087  1
  O2-  O154  1  0.43042963  0.92060749  0.20225543  1
  O2-  O155  1  0.42220885  0.89110567  0.71972398  1
  O2-  O156  1  0.78151796  0.25595628  0.21630329  1
  O2-  O157  1  0.78290007  0.22130743  0.72039328  1
  O2-  O158  1  0.78453918  0.54663298  0.22263520  1
  O2-  O159  1  0.77691801  0.54064076  0.69630821  1
  O2-  O160  1  0.77095741  0.92326331  0.21561630  1
  O2-  O161  1  0.78454723  0.88882595  0.70922114  1
  O2-  O162  1  0.24769361  0.12316137  0.28884201  1
  O2-  O163  1  0.18457372  0.08588052  0.78108643  1
  O2-  O164  1  0.18732070  0.43081347  0.25852424  1
  O2-  O165  1  0.22547351  0.46519502  0.74909050  1
  O2-  O166  1  0.21718277  0.77053735  0.28120752  1
  O2-  O167  1  0.19460020  0.77262003  0.78060913  1
  O2-  O168  1  0.57170754  0.13751903  0.29674645  1
  O2-  O169  1  0.56644950  0.11165766  0.79945272  1
  O2-  O170  1  0.58371036  0.42569555  0.28854322  1
  O2-  O171  1  0.56441663  0.45957420  0.76879560  1
  O2-  O172  1  0.56242766  0.84048134  0.27580661  1
  O2-  O173  1  0.58459322  0.79648408  0.76282098  1
  O2-  O174  1  0.89046168  0.12449285  0.27532178  1
  O2-  O175  1  0.86889538  0.08240019  0.78660836  1
  O2-  O176  1  0.88241169  0.42243319  0.27303920  1
  O2-  O177  1  0.90278747  0.45006850  0.78823977  1
  O2-  O178  1  0.89455857  0.74366844  0.28842126  1
  O2-  O179  1  0.88016595  0.77200106  0.78092544  1
  O2-  O180  1  0.22218346  0.11177665  0.48564662  1
  O2-  O181  1  0.22407721  0.10041935  0.97573200  1
  O2-  O182  1  0.16459451  0.41777468  0.44080513  1
  O2-  O183  1  0.14386286  0.39488445  0.97168684  1
  O2-  O184  1  0.21371956  0.77250533  0.46698589  1
  O2-  O185  1  0.25617549  0.80552538  0.96603435  1
  O2-  O186  1  0.54831923  0.11502644  0.47284614  1
  O2-  O187  1  0.55529395  0.11276861  0.89630462  1
  O2-  O188  1  0.56842456  0.43720158  0.46958806  1
  O2-  O189  1  0.60144566  0.38739298  0.93318914  1
  O2-  O190  1  0.55108650  0.79308599  0.46767035  1
  O2-  O191  1  0.60309169  0.87795306  0.92269314  1
  O2-  O192  1  0.86985930  0.09706646  0.45816438  1
  O2-  O193  1  0.87166897  0.09733529  0.97016768  1
  O2-  O194  1  0.89267236  0.44162924  0.48965511  1
  O2-  O195  1  0.88652623  0.44858707  0.96419965  1
  O2-  O196  1  0.89460081  0.77214448  0.45874403  1
  O2-  O197  1  0.89057838  0.78155574  0.97634414  1
  O2-  O198  1  0.08826888  0.17821011  0.03533150  1
  O2-  O199  1  0.08461478  0.20362901  0.52376773  1
  O2-  O200  1  0.11471818  0.58562879  0.02034340  1
  O2-  O201  1  0.10308170  0.54891055  0.52442154  1
  O2-  O202  1  0.09730612  0.89855852  0.02802964  1
  O2-  O203  1  0.10388596  0.88416599  0.52952591  1
  O2-  O204  1  0.44692717  0.22475467  0.02092069  1
  O2-  O205  1  0.44194163  0.21660812  0.54310246  1
  O2-  O206  1  0.32455102  0.51202986  0.07760465  1
  O2-  O207  1  0.59632284  0.60594420  0.59097122  1
  O2-  O208  1  0.37773594  0.86500901  -0.00484939  1
  O2-  O209  1  0.43438857  0.89232153  0.53630121  1
  O2-  O210  1  0.76565558  0.22971029  -0.00789513  1
  O2-  O211  1  0.76894723  0.21063366  0.53013757  1
  O2-  O212  1  0.77584570  0.55509820  0.03017213  1
  O2-  O213  1  0.78957578  0.56455919  0.52389035  1
  O2-  O214  1  0.76773668  0.87732941  0.02812692  1
  O2-  O215  1  0.77619873  0.87937340  0.51966622  1
