# generated using pymatgen
data_H2O
_symmetry_space_group_name_H-M   'P 1'
_cell_length_a   13.49381930
_cell_length_b   13.50586095
_cell_length_c   14.68719863
_cell_angle_alpha   90.02112965
_cell_angle_beta   89.95971415
_cell_angle_gamma   120.00438706
_symmetry_Int_Tables_number   1
_chemical_formula_structural   H2O
_chemical_formula_sum   'H144 O72'
_cell_volume   2317.96810670
_cell_formula_units_Z   72
loop_
 _symmetry_equiv_pos_site_id
 _symmetry_equiv_pos_as_xyz
  1  'x, y, z'
loop_
 _atom_type_symbol
 _atom_type_oxidation_number
  H+  1.0
  O2-  -2.0
loop_
 _atom_site_type_symbol
 _atom_site_label
 _atom_site_symmetry_multiplicity
 _atom_site_fract_x
 _atom_site_fract_y
 _atom_site_fract_z
 _atom_site_occupancy
  H+  H0  1  0.82474493  0.96320463  0.51668385  1
  H+  H1  1  0.14870516  0.87556746  0.72644975  1
  H+  H2  1  0.82585852  0.52250446  0.24189635  1
  H+  H3  1  0.19058477  0.49385602  0.27066423  1
  H+  H4  1  0.70556188  0.51082488  0.49607699  1
  H+  H5  1  0.11787493  0.90856004  0.60601839  1
  H+  H6  1  0.03554246  0.84901688  0.24179093  1
  H+  H7  1  -0.00642633  0.85040705  0.75223956  1
  H+  H8  1  0.16042964  0.85227478  1.01669446  1
  H+  H9  1  0.49175298  -0.04121960  0.25214314  1
  H+  H10  1  0.49535780  0.00664552  0.53131159  1
  H+  H11  1  0.82554609  0.51321852  0.00664406  1
  H+  H12  1  0.49659898  0.65066043  0.25956805  1
  H+  H13  1  0.98537387  0.01126815  0.29442041  1
  H+  H14  1  1.03948429  0.51493504  0.25037496  1
  H+  H15  1  0.04479841  0.85904195  0.51073437  1
  H+  H16  1  0.49241239  0.51832244  0.00423003  1
  H+  H17  1  0.12218530  0.23053583  0.09459574  1
  H+  H18  1  0.31683532  0.81460889  1.00595347  1
  H+  H19  1  0.44022182  0.22981867  0.61027157  1
  H+  H20  1  0.76008368  0.07212185  0.80182892  1
  H+  H21  1  0.31565817  0.52077080  0.76557376  1
  H+  H22  1  0.68217389  0.29028902  0.17258716  1
  H+  H23  1  0.48711523  0.32045051  0.73396056  1
  H+  H24  1  0.89491543  0.78103649  0.40471550  1
  H+  H25  1  0.37904583  0.52570491  0.51665956  1
  H+  H26  1  0.91069951  0.20439540  0.20186432  1
  H+  H27  1  0.36856793  0.51921966  0.26626951  1
  H+  H28  1  0.52160425  0.68972828  -0.00568197  1
  H+  H29  1  0.11589122  0.89100918  0.15298726  1
  H+  H30  1  0.62676292  0.81309510  0.76277178  1
  H+  H31  1  0.64137281  0.51033393  0.76291318  1
  H+  H32  1  0.02755590  0.18432344  0.01516367  1
  H+  H33  1  0.89835584  0.45707888  0.84589605  1
  H+  H34  1  0.49290346  0.29984037  0.24222989  1
  H+  H35  1  0.83176989  0.63560175  0.00577966  1
  H+  H36  1  0.69714628  0.17975442  0.49473532  1
  H+  H37  1  0.84838559  0.16285866  1.00752213  1
  H+  H38  1  0.49491238  0.51745786  0.25986913  1
  H+  H39  1  0.37547201  0.18211777  0.24291962  1
  H+  H40  1  0.81694003  0.17715471  0.49669119  1
  H+  H41  1  0.51211492  0.80882074  0.26108718  1
  H+  H42  1  0.15321277  0.51320868  1.02071274  1
  H+  H43  1  0.18723837  0.19953493  0.23991778  1
  H+  H44  1  0.18233817  0.36727247  0.98944223  1
  H+  H45  1  0.51744294  0.47711912  0.49157836  1
  H+  H46  1  0.82111401  0.54026202  0.75727883  1
  H+  H47  1  0.86270654  0.82302518  0.98958727  1
  H+  H48  1  0.53677140  0.69768175  0.49478577  1
  H+  H49  1  0.51003805  0.81818938  0.76848493  1
  H+  H50  1  0.29981764  0.15257773  0.49577896  1
  H+  H51  1  0.79200099  -0.05401134  0.75668958  1
  H+  H52  1  0.55752503  0.77425298  0.90719718  1
  H+  H53  1  0.37016276  0.84284272  0.24732521  1
  H+  H54  1  0.91079164  0.79488755  0.89913348  1
  H+  H55  1  0.37326362  0.19622627  0.73806042  1
  H+  H56  1  0.81923095  0.94592912  0.23419756  1
  H+  H57  1  0.15065083  0.29992831  0.49874161  1
  H+  H58  1  0.15327199  0.63104843  0.02324603  1
  H+  H59  1  0.36790807  0.19567630  1.00613894  1
  H+  H60  1  0.85970963  0.39885357  0.74790659  1
  H+  H61  1  0.17607664  0.31299172  0.24563718  1
  H+  H62  1  0.18205145  0.03104370  0.49314781  1
  H+  H63  1  0.19393325  0.03241167  0.26108131  1
  H+  H64  1  0.65889012  0.13081581  0.76139379  1
  H+  H65  1  0.48607066  0.52656905  0.74415119  1
  H+  H66  1  0.85412993  0.69502106  0.25830404  1
  H+  H67  1  0.18001539  0.14978933  0.98708922  1
  H+  H68  1  0.66797072  0.14554702  -0.01272116  1
  H+  H69  1  0.70160594  0.84730253  1.00960571  1
  H+  H70  1  0.82889595  0.66106437  0.76063978  1
  H+  H71  1  0.96354475  0.47452360  0.99267816  1
  H+  H72  1  0.18820128  0.69989754  0.26578421  1
  H+  H73  1  0.37906825  0.88655183  0.52357526  1
  H+  H74  1  0.16011272  0.55833480  0.72660636  1
  H+  H75  1  0.18845518  0.81877750  0.25793015  1
  H+  H76  1  0.04885519  0.53166476  0.46706897  1
  H+  H77  1  0.46332049  0.16769221  0.52478195  1
  H+  H78  1  0.19705688  0.83929363  0.49495306  1
  H+  H79  1  0.37426860  0.51892602  1.00962842  1
  H+  H80  1  0.51063915  0.35534463  0.49010772  1
  H+  H81  1  0.21319709  0.45185880  0.57350921  1
  H+  H82  1  0.89269907  0.11362309  0.76226411  1
  H+  H83  1  0.24272837  0.29992864  0.75437220  1
  H+  H84  1  0.54839822  1.02347389  -0.00713145  1
  H+  H85  1  0.04070166  -0.14912016  1.01079376  1
  H+  H86  1  0.84407636  0.80676035  0.25445875  1
  H+  H87  1  0.18816199  0.03850951  0.74662353  1
  H+  H88  1  0.64366957  0.48856089  -0.01331220  1
  H+  H89  1  0.63286251  0.80781686  0.25388534  1
  H+  H90  1  0.50733902  0.12635391  0.27048077  1
  H+  H91  1  0.84047509  0.37996023  0.25866317  1
  H+  H92  1  0.66967933  0.19610738  0.24148010  1
  H+  H93  1  0.48389457  0.64494068  0.74180073  1
  H+  H94  1  0.48732106  0.83166552  1.01724794  1
  H+  H95  1  0.64093207  0.49117096  0.25933173  1
  H+  H96  1  0.15406094  0.18091761  0.49454453  1
  H+  H97  1  0.86401499  0.83225059  0.76432747  1
  H+  H98  1  0.85720447  0.81734098  0.49690067  1
  H+  H99  1  0.83584625  0.23237828  0.71915746  1
  H+  H100  1  0.85268988  0.19629304  0.21298414  1
  H+  H101  1  -0.03123718  0.14413605  0.47801341  1
  H+  H102  1  0.58221601  0.20932379  0.45723404  1
  H+  H103  1  0.04207623  0.55290625  0.72176922  1
  H+  H104  1  0.01184772  0.07134380  0.68370439  1
  H+  H105  1  0.84683129  0.35010341  0.98849694  1
  H+  H106  1  0.82349587  0.62963798  0.50053696  1
  H+  H107  1  0.18939253  0.28156423  0.72643813  1
  H+  H108  1  0.22590664  0.45274789  0.36063690  1
  H+  H109  1  0.70820443  0.84323855  0.51497947  1
  H+  H110  1  0.23141973  0.10961727  0.84077209  1
  H+  H111  1  0.78583906  0.55735701  0.14947617  1
  H+  H112  1  0.45147227  0.87478591  0.10749936  1
  H+  H113  1  0.78617896  0.24860735  0.62761522  1
  H+  H114  1  0.56093570  0.10453394  0.36412763  1
  H+  H115  1  0.85582792  0.48475173  0.48476389  1
  H+  H116  1  0.03677188  0.17173678  0.61845701  1
  H+  H117  1  0.85951426  0.36629306  0.48403574  1
  H+  H118  1  0.23315090  0.11050863  0.35189081  1
  H+  H119  1  0.89546160  0.45078807  0.35160422  1
  H+  H120  1  0.87862514  0.10114245  0.92522465  1
  H+  H121  1  0.52160277  0.37189170  0.98764758  1
  H+  H122  1  0.23816708  0.77765946  0.91752874  1
  H+  H123  1  0.18590325  0.03447217  0.99291334  1
  H+  H124  1  0.44852269  0.23147745  0.09333737  1
  H+  H125  1  0.22697047  0.46249760  0.90923966  1
  H+  H126  1  0.11813202  0.55154960  0.16123867  1
  H+  H127  1  0.81695534  0.97126909  0.02053236  1
  H+  H128  1  0.24294727  0.80619333  0.40565046  1
  H+  H129  1  0.76848387  0.87323105  0.14306118  1
  H+  H130  1  0.42940882  0.89640735  0.65831204  1
  H+  H131  1  0.45775485  0.56090677  0.60402980  1
  H+  H132  1  0.78373507  0.23398102  0.08727614  1
  H+  H133  1  0.61852771  0.07352468  0.86028008  1
  H+  H134  1  0.16801437  0.65320925  0.47333570  1
  H+  H135  1  1.01398648  0.12989108  0.25558085  1
  H+  H136  1  0.18769962  0.50923782  0.48851104  1
  H+  H137  1  0.19047983  0.41561984  0.76712006  1
  H+  H138  1  0.77127724  0.88001246  0.65987282  1
  H+  H139  1  0.24715097  0.73321069  0.69735814  1
  H+  H140  1  0.57373255  0.77656597  0.40696217  1
  H+  H141  1  0.55593836  0.45838069  0.84649963  1
  H+  H142  1  0.89496049  0.08170480  0.39304310  1
  H+  H143  1  0.56093308  0.44482247  0.34990702  1
  O2-  O144  1  0.14276138  0.23599538  0.21761415  1
  O2-  O145  1  -0.00547421  0.13255320  0.67464977  1
  O2-  O146  1  0.12139090  0.55341016  0.22985813  1
  O2-  O147  1  0.11822665  0.58814934  0.69182533  1
  O2-  O148  1  0.11726153  0.89169425  0.22157310  1
  O2-  O149  1  0.10832685  0.91343917  0.70349150  1
  O2-  O150  1  0.45609738  0.21979512  0.22030515  1
  O2-  O151  1  0.45171626  0.24113381  0.71011097  1
  O2-  O152  1  0.45123181  0.55999940  0.24437956  1
  O2-  O153  1  0.44276008  0.56401127  0.71833858  1
  O2-  O154  1  0.45197487  0.87808476  0.22727275  1
  O2-  O155  1  0.40442341  0.85993542  0.72346393  1
  O2-  O156  1  0.72791341  0.26495462  0.20580852  1
  O2-  O157  1  0.79017971  0.26379253  0.69541905  1
  O2-  O158  1  0.78113714  0.55821861  0.21784611  1
  O2-  O159  1  0.77666551  0.57930909  0.74529677  1
  O2-  O160  1  0.76465253  0.86766619  0.21260873  1
  O2-  O161  1  0.76111024  0.86877447  0.72729222  1
  O2-  O162  1  0.23629394  0.11335087  0.28325234  1
  O2-  O163  1  0.23811014  0.11757591  0.77389085  1
  O2-  O164  1  0.23490870  0.45586799  0.29441988  1
  O2-  O165  1  0.23627968  0.49251695  0.79175235  1
  O2-  O166  1  0.23155071  0.78250332  0.28278995  1
  O2-  O167  1  0.32417929  0.74120892  0.70109410  1
  O2-  O168  1  0.55315269  0.09196143  0.29170357  1
  O2-  O169  1  0.64332085  0.06266783  0.79629915  1
  O2-  O170  1  0.55960392  0.45168130  0.28142990  1
  O2-  O171  1  0.55645802  0.46514197  0.77864981  1
  O2-  O172  1  0.55340843  0.76623369  0.28083160  1
  O2-  O173  1  0.54719436  0.77490275  0.78917082  1
  O2-  O174  1  0.94996023  0.05756455  0.28269206  1
  O2-  O175  1  0.83570860  0.07025415  0.80978266  1
  O2-  O176  1  0.89745442  0.45715368  0.28263065  1
  O2-  O177  1  0.90404620  0.47387875  0.77921703  1
  O2-  O178  1  0.89281955  0.77674923  0.27944907  1
  O2-  O179  1  0.91627236  0.80620773  0.78783898  1
  O2-  O180  1  0.22201564  0.11219382  0.46648412  1
  O2-  O181  1  0.22458630  0.11303814  0.96712637  1
  O2-  O182  1  0.22572333  0.45968876  0.50774846  1
  O2-  O183  1  0.22436883  0.45141329  0.97645367  1
  O2-  O184  1  0.24196145  0.80270101  0.47316005  1
  O2-  O185  1  0.23373011  0.77757317  0.98378867  1
  O2-  O186  1  0.57438309  0.13360530  0.46071132  1
  O2-  O187  1  0.59028210  0.09408834  0.95725836  1
  O2-  O188  1  0.55204272  0.43403203  0.46322189  1
  O2-  O189  1  0.56395581  0.45313794  0.96356792  1
  O2-  O190  1  0.58198678  0.77820481  0.47358711  1
  O2-  O191  1  0.56259060  0.77387971  0.97508492  1
  O2-  O192  1  0.88733952  0.09737433  0.45762466  1
  O2-  O193  1  0.88810371  0.11211873  0.99236866  1
  O2-  O194  1  0.90070942  0.44720497  0.46219282  1
  O2-  O195  1  0.88554092  0.43652139  0.96680228  1
  O2-  O196  1  0.89873455  0.77886762  0.47201348  1
  O2-  O197  1  0.90585707  0.78562991  0.96792833  1
  O2-  O198  1  0.11309227  0.22689347  0.02751143  1
  O2-  O199  1  0.10648995  0.21708395  0.51136232  1
  O2-  O200  1  0.11168826  0.55137877  0.04654752  1
  O2-  O201  1  0.13299972  0.57096038  0.45589903  1
  O2-  O202  1  0.11976440  0.89235641  0.03811323  1
  O2-  O203  1  0.12472714  0.90526573  0.53319839  1
  O2-  O204  1  0.44830602  0.24305351  0.02713676  1
  O2-  O205  1  0.43348982  0.21933304  0.53881707  1
  O2-  O206  1  0.45568625  0.56162888  0.02811348  1
  O2-  O207  1  0.45993393  0.55697374  0.53546876  1
  O2-  O208  1  0.44557259  0.87135535  0.03984939  1
  O2-  O209  1  0.44969807  0.93071361  0.56040077  1
  O2-  O210  1  0.79403274  0.22994080  0.02173718  1
  O2-  O211  1  0.78169735  0.22211913  0.51781469  1
  O2-  O212  1  0.78919589  0.55714517  0.03186463  1
  O2-  O213  1  0.78694577  0.54651203  0.51319628  1
  O2-  O214  1  0.78119859  0.88725310  0.03563584  1
  O2-  O215  1  0.78842003  0.88439528  0.54201287  1
