# generated using pymatgen
data_H2O
_symmetry_space_group_name_H-M   'P 1'
_cell_length_a   13.52585107
_cell_length_b   13.51625832
_cell_length_c   14.71799979
_cell_angle_alpha   89.94288857
_cell_angle_beta   90.01430474
_cell_angle_gamma   120.00191521
_symmetry_Int_Tables_number   1
_chemical_formula_structural   H2O
_chemical_formula_sum   'H144 O72'
_cell_volume   2330.19299863
_cell_formula_units_Z   72
loop_
 _symmetry_equiv_pos_site_id
 _symmetry_equiv_pos_as_xyz
  1  'x, y, z'
loop_
 _atom_type_symbol
 _atom_type_oxidation_number
  H+  1.0
  O2-  -2.0
loop_
 _atom_site_type_symbol
 _atom_site_label
 _atom_site_symmetry_multiplicity
 _atom_site_fract_x
 _atom_site_fract_y
 _atom_site_fract_z
 _atom_site_occupancy
  H+  H0  1  0.88128268  0.42907437  0.82447328  1
  H+  H1  1  0.74431183  0.18057521  0.23818652  1
  H+  H2  1  0.46148635  0.96654542  0.74489148  1
  H+  H3  1  0.17868667  0.64837525  0.23165968  1
  H+  H4  1  0.29327979  0.82289755  0.23154749  1
  H+  H5  1  0.37175269  0.19182234  0.02440855  1
  H+  H6  1  0.49488070  0.63632455  0.74665984  1
  H+  H7  1  0.83503400  0.18066320  0.50169706  1
  H+  H8  1  0.30335479  0.47350415  0.75985833  1
  H+  H9  1  0.71753176  0.52454343  1.00282279  1
  H+  H10  1  0.69411270  0.84517572  1.00319683  1
  H+  H11  1  0.52138505  0.81633400  0.98123119  1
  H+  H12  1  0.46528562  0.95114929  0.22479461  1
  H+  H13  1  0.14179131  0.85916052  0.22582783  1
  H+  H14  1  0.36614165  0.85032181  -0.00020145  1
  H+  H15  1  0.08744217  0.52450396  0.26069266  1
  H+  H16  1  0.50816073  0.52979014  1.00182098  1
  H+  H17  1  0.14086402  0.83246265  0.73324225  1
  H+  H18  1  0.22079804  0.78622606  0.32234246  1
  H+  H19  1  0.20613206  0.46889865  0.25729219  1
  H+  H20  1  0.64522265  0.80616302  0.75688177  1
  H+  H21  1  0.18952890  0.83102922  -0.01281224  1
  H+  H22  1  0.86001887  0.49285360  0.97679110  1
  H+  H23  1  0.85633457  0.82904883  -0.00955816  1
  H+  H24  1  0.37391797  0.85563663  0.50056852  1
  H+  H25  1  0.02533598  0.18947021  0.73646406  1
  H+  H26  1  0.48519439  0.96883151  0.00420228  1
  H+  H27  1  0.84222825  0.14667996  0.75082632  1
  H+  H28  1  0.51875577  0.37362439  0.76248744  1
  H+  H29  1  0.80781589  0.17876438  0.00186762  1
  H+  H30  1  0.17401460  0.14198373  0.49656951  1
  H+  H31  1  0.46249694  0.56655972  0.08628132  1
  H+  H32  1  0.80963799  0.65303141  0.76863921  1
  H+  H33  1  0.83544682  0.31310182  0.23946898  1
  H+  H34  1  0.49335042  0.97213068  0.51339881  1
  H+  H35  1  0.82821103  1.02086052  -0.01732203  1
  H+  H36  1  0.48943288  0.63648260  0.23077200  1
  H+  H37  1  0.03073981  0.52388320  0.00235466  1
  H+  H38  1  0.83534266  0.29889895  0.49956095  1
  H+  H39  1  0.13420570  0.18695479  0.01772852  1
  H+  H40  1  0.80895620  0.62815073  0.24861282  1
  H+  H41  1  0.45049287  0.61304325  0.51129871  1
  H+  H42  1  0.17203320  0.48989207  -0.02764409  1
  H+  H43  1  1.02833027  0.18754883  0.51135482  1
  H+  H44  1  0.20521379  0.34935068  0.26910412  1
  H+  H45  1  0.96956397  0.80904648  0.75575785  1
  H+  H46  1  0.49781700  0.19691148  0.53877609  1
  H+  H47  1  0.63212950  0.15362347  0.99443416  1
  H+  H48  1  0.49300783  0.80685360  0.48919470  1
  H+  H49  1  0.68463687  0.50960480  0.25449056  1
  H+  H50  1  0.14329608  -0.04835420  0.71661907  1
  H+  H51  1  0.87872996  1.04171701  0.48799717  1
  H+  H52  1  0.77092227  0.20390106  0.64696735  1
  H+  H53  1  0.29577668  0.46477647  0.49857101  1
  H+  H54  1  0.83426313  0.70112859  0.47393296  1
  H+  H55  1  0.93456491  0.48795430  0.23096909  1
  H+  H56  1  0.55282779  0.11392836  0.90543532  1
  H+  H57  1  -0.03216251  0.46165474  0.74291704  1
  H+  H58  1  0.28485976  0.81489506  0.75553288  1
  H+  H59  1  0.50789378  0.36429546  0.25705703  1
  H+  H60  1  0.85655812  0.37283836  -0.01849342  1
  H+  H61  1  0.51609031  0.15877024  0.76733309  1
  H+  H62  1  0.20449998  0.69072771  0.45921416  1
  H+  H63  1  0.69229117  0.84841503  0.23940854  1
  H+  H64  1  0.58778530  0.77139878  0.47253423  1
  H+  H65  1  0.50457414  0.81111271  0.24327343  1
  H+  H66  1  0.52685972  0.69904773  0.98419596  1
  H+  H67  1  1.02718682  0.84608596  0.49492418  1
  H+  H68  1  0.99253653  0.13437185  0.26532483  1
  H+  H69  1  0.66010350  0.15717685  0.50684429  1
  H+  H70  1  0.15537690  0.31319494  0.51278549  1
  H+  H71  1  0.12406150  0.96880249  0.23371878  1
  H+  H72  1  0.86892804  0.58881968  0.57231034  1
  H+  H73  1  0.74471785  0.49024714  0.55070219  1
  H+  H74  1  1.04796639  0.52384359  0.48397283  1
  H+  H75  1  0.18280200  0.70867175  0.98908712  1
  H+  H76  1  0.66394097  0.51688213  0.76701584  1
  H+  H77  1  0.86931723  0.47655069  0.47120898  1
  H+  H78  1  0.15241616  0.30904616  0.73764623  1
  H+  H79  1  0.61330178  0.50543319  0.47081521  1
  H+  H80  1  0.16354102  1.01907886  0.48234833  1
  H+  H81  1  0.84083457  0.86018920  0.50347155  1
  H+  H82  1  0.57298682  0.13265330  0.29090692  1
  H+  H83  1  0.89082597  0.16283562  0.25604795  1
  H+  H84  1  0.16102317  0.52059051  0.49908213  1
  H+  H85  1  0.81741349  0.48715776  0.25873033  1
  H+  H86  1  0.31284247  0.73786533  0.39799293  1
  H+  H87  1  0.45173066  0.23998310  0.66401229  1
  H+  H88  1  0.48603030  0.18286077  0.01441236  1
  H+  H89  1  0.48863691  0.30814455  0.51946668  1
  H+  H90  1  0.83219880  0.97730048  0.74659527  1
  H+  H91  1  0.81591335  0.96284827  0.24053282  1
  H+  H92  1  0.83411601  0.64321029  0.00278310  1
  H+  H93  1  0.52839678  0.36918852  0.99502665  1
  H+  H94  1  0.51790109  0.48932748  0.25324131  1
  H+  H95  1  0.44332718  0.18149860  0.24790470  1
  H+  H96  1  0.04053384  0.87137712  -0.00158399  1
  H+  H97  1  0.14084143  0.62136544  0.74177056  1
  H+  H98  1  0.36830804  0.19632072  0.74965166  1
  H+  H99  1  0.95914651  0.81281790  0.24598043  1
  H+  H100  1  0.18202086  0.04618914  1.00132642  1
  H+  H101  1  0.37843980  0.51210634  0.23331521  1
  H+  H102  1  0.83936037  0.81061357  0.24908019  1
  H+  H103  1  0.51197351  0.49398110  0.76059499  1
  H+  H104  1  0.85919351  0.82608905  0.76325725  1
  H+  H105  1  0.15182724  0.50966499  0.73973643  1
  H+  H106  1  0.74074363  0.88493958  0.53029299  1
  H+  H107  1  0.16907575  0.14907359  0.74140781  1
  H+  H108  1  0.24061695  0.15224353  0.93047272  1
  H+  H109  1  0.77204927  0.88689930  0.09380215  1
  H+  H110  1  0.10268289  0.87682759  0.58374652  1
  H+  H111  1  0.11526439  0.55950836  0.08953178  1
  H+  H112  1  0.76873991  0.56366051  0.68383082  1
  H+  H113  1  0.91423529  0.11669274  0.39509143  1
  H+  H114  1  0.21447206  0.43523037  0.84418160  1
  H+  H115  1  0.46329393  0.50121070  0.50769921  1
  H+  H116  1  0.10339267  0.23038299  0.61589389  1
  H+  H117  1  0.81262897  0.28741080  0.73260112  1
  H+  H118  1  0.78950542  0.22978220  0.09320254  1
  H+  H119  1  0.89444710  0.43818521  0.37830876  1
  H+  H120  1  0.11452421  0.90652141  0.08878236  1
  H+  H121  1  0.88201038  0.11198001  0.84251712  1
  H+  H122  1  0.43853089  0.87919332  0.13156398  1
  H+  H123  1  0.87923395  0.77769413  0.38263852  1
  H+  H124  1  0.46884527  0.05252847  0.35147114  1
  H+  H125  1  0.17136012  0.10427090  0.36259827  1
  H+  H126  1  0.53509776  0.44025614  0.38725856  1
  H+  H127  1  0.58349862  0.17140946  0.43568644  1
  H+  H128  1  0.15826745  0.36621825  0.97496166  1
  H+  H129  1  0.56293564  0.44504364  0.90483056  1
  H+  H130  1  0.42790753  0.88755000  0.65738463  1
  H+  H131  1  0.81256801  0.90231167  0.65825559  1
  H+  H132  1  0.20780595  0.77643590  0.84484969  1
  H+  H133  1  0.44691536  0.23720294  0.15231770  1
  H+  H134  1  0.56530956  0.77042620  0.84414588  1
  H+  H135  1  0.94474593  0.14036261  0.97976710  1
  H+  H136  1  0.53138353  0.76782087  0.33645027  1
  H+  H137  1  0.44408945  0.55015216  0.65934448  1
  H+  H138  1  0.07514994  0.23473540  0.08568447  1
  H+  H139  1  0.89952807  0.79180354  0.90225324  1
  H+  H140  1  0.22437986  0.42243340  0.40417558  1
  H+  H141  1  0.17408131  0.19086657  0.19450765  1
  H+  H142  1  0.62663798  0.14476622  0.76015807  1
  H+  H143  1  0.16806710  0.06577107  0.81668415  1
  O2-  O144  1  0.14174298  0.18869160  0.25477361  1
  O2-  O145  1  0.10525598  0.22702793  0.71005079  1
  O2-  O146  1  0.15178838  0.56494103  0.21929342  1
  O2-  O147  1  0.10451554  0.54207463  0.71864899  1
  O2-  O148  1  0.09526819  0.89302955  0.20383264  1
  O2-  O149  1  0.09714533  0.86901740  0.70482872  1
  O2-  O150  1  0.43383262  0.24138590  0.21884359  1
  O2-  O151  1  0.45002736  0.23984225  0.73315499  1
  O2-  O152  1  0.45695219  0.55627098  0.20873419  1
  O2-  O153  1  0.44892749  0.55109518  0.72660323  1
  O2-  O154  1  0.43141326  0.87259686  0.20095096  1
  O2-  O155  1  0.41429114  0.88710093  0.72298987  1
  O2-  O156  1  0.82079169  0.23568314  0.21759647  1
  O2-  O157  1  0.76575268  0.20268840  0.71402118  1
  O2-  O158  1  0.76727157  0.54418177  0.23687640  1
  O2-  O159  1  0.75974416  0.56746118  0.75016917  1
  O2-  O160  1  0.77233878  0.88388116  0.21642989  1
  O2-  O161  1  0.79979284  0.89612418  0.72469717  1
  O2-  O162  1  0.15096489  0.09152216  0.29156451  1
  O2-  O163  1  0.20824011  0.10626486  0.76184087  1
  O2-  O164  1  0.24276372  0.43021161  0.28823489  1
  O2-  O165  1  0.22056440  0.42905789  0.77501180  1
  O2-  O166  1  0.21253876  0.78502874  0.25471135  1
  O2-  O167  1  0.20236687  0.77153311  0.77737649  1
  O2-  O168  1  0.49164873  0.07710552  0.28870536  1
  O2-  O169  1  0.54937549  0.11177453  0.78856372  1
  O2-  O170  1  0.55083543  0.44518966  0.28374195  1
  O2-  O171  1  0.55795847  0.45593566  0.78441715  1
  O2-  O172  1  0.54726535  0.77499398  0.27040436  1
  O2-  O173  1  0.56530612  0.75971242  0.77690481  1
  O2-  O174  1  0.91198530  0.10816092  0.28256291  1
  O2-  O175  1  0.89132385  0.11496762  0.77466523  1
  O2-  O176  1  0.87013476  0.44344278  0.27141263  1
  O2-  O177  1  0.88374767  0.41735636  0.75846739  1
  O2-  O178  1  0.88047472  0.77153706  0.27318297  1
  O2-  O179  1  0.89202393  0.77740305  0.78528150  1
  O2-  O180  1  0.19777859  0.09959606  0.45683517  1
  O2-  O181  1  0.22216924  0.13393590  0.99452653  1
  O2-  O182  1  0.21567225  0.42230803  0.47175871  1
  O2-  O183  1  0.20363226  0.44277197  0.94834327  1
  O2-  O184  1  0.26529735  0.76407766  0.42725606  1
  O2-  O185  1  0.22744059  0.78878488  0.96526403  1
  O2-  O186  1  0.57675325  0.12553396  0.48894548  1
  O2-  O187  1  0.55075562  0.11191439  0.97369444  1
  O2-  O188  1  0.53587175  0.44502759  0.45756297  1
  O2-  O189  1  0.57088386  0.44910889  0.97170576  1
  O2-  O190  1  0.50882901  0.74822695  0.45861327  1
  O2-  O191  1  0.56688620  0.78154996  0.96026206  1
  O2-  O192  1  0.91280747  0.12157592  0.46364542  1
  O2-  O193  1  0.86465225  0.10104220  0.95747315  1
  O2-  O194  1  0.90274717  0.43322248  0.44657311  1
  O2-  O195  1  0.90065785  0.45079866  0.95574893  1
  O2-  O196  1  0.87734986  0.77991508  0.45185980  1
  O2-  O197  1  0.90468113  0.79640843  0.96980881  1
  O2-  O198  1  0.08239487  0.22011460  0.02201586  1
  O2-  O199  1  0.10766635  0.22981897  0.54201522  1
  O2-  O200  1  0.11300566  0.56859682  0.02339407  1
  O2-  O201  1  0.12841918  0.57143719  0.50241258  1
  O2-  O202  1  0.12224296  0.91426719  0.02098915  1
  O2-  O203  1  0.10651079  0.88812122  0.51687906  1
  O2-  O204  1  0.45415290  0.23058148  0.03912825  1
  O2-  O205  1  0.45737592  0.23757012  0.55606826  1
  O2-  O206  1  0.47043883  0.57385346  0.01961157  1
  O2-  O207  1  0.42124374  0.53579781  0.53823586  1
  O2-  O208  1  0.44619607  0.88702206  0.02426130  1
  O2-  O209  1  0.45057893  0.89042882  0.53040471  1
  O2-  O210  1  0.77491625  0.22505512  0.02722507  1
  O2-  O211  1  0.79418831  0.22002896  0.52499345  1
  O2-  O212  1  0.80002200  0.56129067  0.01753100  1
  O2-  O213  1  0.79032526  0.57206827  0.56340042  1
  O2-  O214  1  0.77596242  0.88934556  0.02637009  1
  O2-  O215  1  0.82214501  0.91429849  0.53799090  1
