# generated using pymatgen
data_H2O
_symmetry_space_group_name_H-M   'P 1'
_cell_length_a   13.50698812
_cell_length_b   13.50603647
_cell_length_c   14.70764227
_cell_angle_alpha   89.96313737
_cell_angle_beta   90.02032520
_cell_angle_gamma   119.95473065
_symmetry_Int_Tables_number   1
_chemical_formula_structural   H2O
_chemical_formula_sum   'H144 O72'
_cell_volume   2324.65208618
_cell_formula_units_Z   72
loop_
 _symmetry_equiv_pos_site_id
 _symmetry_equiv_pos_as_xyz
  1  'x, y, z'
loop_
 _atom_type_symbol
 _atom_type_oxidation_number
  H+  1.0
  O2-  -2.0
loop_
 _atom_site_type_symbol
 _atom_site_label
 _atom_site_symmetry_multiplicity
 _atom_site_fract_x
 _atom_site_fract_y
 _atom_site_fract_z
 _atom_site_occupancy
  H+  H0  1  0.86254808  0.71189720  0.99031708  1
  H+  H1  1  1.03915613  0.18859902  0.74180635  1
  H+  H2  1  0.34460281  0.51543053  0.51740040  1
  H+  H3  1  0.19428065  0.50375301  -0.01014106  1
  H+  H4  1  0.51174455  0.67115023  0.25774464  1
  H+  H5  1  0.19596669  0.74807831  0.35332003  1
  H+  H6  1  0.85207362  0.50409886  0.26530996  1
  H+  H7  1  0.75642724  0.84945876  0.65968288  1
  H+  H8  1  0.81669546  0.18056724  0.74786891  1
  H+  H9  1  0.31490033  0.50758203  -0.01012268  1
  H+  H10  1  0.82551535  0.53858072  -0.00661256  1
  H+  H11  1  0.10598978  0.75477343  0.48214878  1
  H+  H12  1  0.81845519  0.21540982  0.93114347  1
  H+  H13  1  0.16734215  0.02834525  0.77893167  1
  H+  H14  1  0.13873854  0.49343484  0.22956111  1
  H+  H15  1  0.63428531  0.80238965  0.26542017  1
  H+  H16  1  0.50646566  0.32330905  0.73394419  1
  H+  H17  1  0.15514317  0.81675594  0.74478046  1
  H+  H18  1  0.16453506  0.86851979  0.01607686  1
  H+  H19  1  0.62899924  0.81724767  -0.00925840  1
  H+  H20  1  0.51752713  0.13781617  0.50486305  1
  H+  H21  1  0.43941137  0.57312389  0.66291552  1
  H+  H22  1  0.73964083  0.69972456  0.55378826  1
  H+  H23  1  0.51131189  0.20607083  0.74095856  1
  H+  H24  1  0.54289193  0.43788224  0.31164987  1
  H+  H25  1  0.19677640  0.72168140  0.98960466  1
  H+  H26  1  0.02891735  0.41289261  0.17447204  1
  H+  H27  1  0.84226191  0.80997424  0.26092302  1
  H+  H28  1  0.36759365  0.52742665  0.75353587  1
  H+  H29  1  0.62124628  0.48742996  0.55946729  1
  H+  H30  1  0.98320145  0.83148917  0.99597612  1
  H+  H31  1  0.87068991  1.04668142  0.52970536  1
  H+  H32  1  0.62864193  0.77254090  0.49081881  1
  H+  H33  1  0.48522779  0.84703057  0.75427302  1
  H+  H34  1  0.83775264  0.37440581  0.50237294  1
  H+  H35  1  0.84841919  0.16847416  0.24876251  1
  H+  H36  1  0.96813556  0.49938439  0.27078769  1
  H+  H37  1  0.82856622  0.52693840  0.75838388  1
  H+  H38  1  0.50524094  0.36713803  0.55895810  1
  H+  H39  1  0.70633754  0.19035082  0.51613560  1
  H+  H40  1  0.81692942  0.81891717  0.51335441  1
  H+  H41  1  0.22417766  0.11473916  -0.08401435  1
  H+  H42  1  0.80588929  0.54001219  0.52970860  1
  H+  H43  1  0.47827123  0.51129097  0.21387490  1
  H+  H44  1  0.51930269  -0.00917684  0.23295106  1
  H+  H45  1  0.87792213  0.11550167  0.16691691  1
  H+  H46  1  0.50015922  0.84387565  -0.00377251  1
  H+  H47  1  0.18307656  1.02876486  0.25846158  1
  H+  H48  1  0.85737889  0.40643558  -0.00646038  1
  H+  H49  1  0.04250540  0.19429126  0.24082857  1
  H+  H50  1  0.01861750  0.85471111  0.73317429  1
  H+  H51  1  0.77544075  0.15729132  -0.04940672  1
  H+  H52  1  0.50955222  1.00228225  -0.01681696  1
  H+  H53  1  0.36501361  0.84228809  0.73978132  1
  H+  H54  1  0.51193342  0.85768606  0.51378592  1
  H+  H55  1  0.84403480  0.82163187  0.76795806  1
  H+  H56  1  0.50084141  0.34665147  0.23113879  1
  H+  H57  1  0.64168926  0.50310585  0.76794377  1
  H+  H58  1  0.42914393  0.18194251  0.62014477  1
  H+  H59  1  0.70238790  0.53245931  -0.00247066  1
  H+  H60  1  0.52141497  0.50092596  0.76167024  1
  H+  H61  1  0.49760831  0.67864734  0.49360169  1
  H+  H62  1  0.63859454  0.17504267  0.28070926  1
  H+  H63  1  0.51358705  0.03055250  0.75231462  1
  H+  H64  1  0.55227807  0.12268432  0.36226947  1
  H+  H65  1  0.15228801  0.67186309  0.49992550  1
  H+  H66  1  0.16885674  0.14741321  0.78545773  1
  H+  H67  1  0.17446527  0.32330801  0.01569024  1
  H+  H68  1  0.16806323  0.19629146  0.49100480  1
  H+  H69  1  0.16522185  0.79360388  0.26822141  1
  H+  H70  1  0.46130022  0.51440064  0.54342821  1
  H+  H71  1  0.69079614  0.50701826  0.21860502  1
  H+  H72  1  0.14665081  0.62556367  0.71844765  1
  H+  H73  1  0.49802216  0.17426414  1.00460250  1
  H+  H74  1  0.13786932  0.49072202  0.50468975  1
  H+  H75  1  0.11818657  0.56790117  0.09097360  1
  H+  H76  1  0.22671666  0.45637808  0.85195085  1
  H+  H77  1  0.68601006  0.84287657  0.74987323  1
  H+  H78  1  0.16208275  -0.01494808  1.02214981  1
  H+  H79  1  0.32051769  0.16337129  0.99552764  1
  H+  H80  1  0.36125720  0.05483165  0.58214300  1
  H+  H81  1  0.69809557  0.18151913  0.74735466  1
  H+  H82  1  0.30789021  0.49708177  0.25061118  1
  H+  H83  1  0.02707535  0.85174371  0.24749429  1
  H+  H84  1  0.82597158  0.33137646  0.27702079  1
  H+  H85  1  0.83085722  0.64905795  0.76214355  1
  H+  H86  1  0.84294228  1.02188295  0.75169280  1
  H+  H87  1  0.66268141  0.28401779  0.06303855  1
  H+  H88  1  0.83856961  0.96540195  0.02210930  1
  H+  H89  1  0.62883776  0.11731911  0.95591724  1
  H+  H90  1  0.29808853  0.13621970  0.49297371  1
  H+  H91  1  0.19533572  0.37510420  0.26231449  1
  H+  H92  1  0.54255105  0.03670349  0.49474058  1
  H+  H93  1  0.79540491  0.95806497  0.24589493  1
  H+  H94  1  0.36091312  0.17366767  0.23105666  1
  H+  H95  1  0.52994067  0.38034572  -0.01098083  1
  H+  H96  1  -0.02657190  0.48123534  0.75244128  1
  H+  H97  1  0.38032725  0.85352831  0.00416803  1
  H+  H98  1  1.04809729  0.54562121  1.00003081  1
  H+  H99  1  0.51548095  0.70856751  0.77221138  1
  H+  H100  1  0.48452511  0.18244616  0.24449537  1
  H+  H101  1  0.55774893  0.45712026  -0.10055815  1
  H+  H102  1  0.01463643  0.15243661  -0.00812768  1
  H+  H103  1  0.19117272  0.15232161  0.25824735  1
  H+  H104  1  0.84585617  0.69526558  0.25088392  1
  H+  H105  1  0.18405606  0.35924519  0.48296423  1
  H+  H106  1  0.18572031  0.48696437  0.75809274  1
  H+  H107  1  0.89476098  0.14166233  0.97632866  1
  H+  H108  1  0.47353888  0.89735564  0.60264150  1
  H+  H109  1  0.55706384  0.78652120  0.86527597  1
  H+  H110  1  0.55421706  0.74672150  0.36419689  1
  H+  H111  1  0.23833180  0.11884948  0.39527416  1
  H+  H112  1  0.90218901  0.46121998  0.89368968  1
  H+  H113  1  0.78326363  0.23042205  0.60603591  1
  H+  H114  1  0.78070411  0.55769413  0.13749480  1
  H+  H115  1  0.87889067  0.46226632  0.41860362  1
  H+  H116  1  0.90221232  0.09504209  0.83964498  1
  H+  H117  1  0.76948135  0.26746371  0.18667236  1
  H+  H118  1  0.10301536  0.53286683  0.63814353  1
  H+  H119  1  0.57693737  0.55111878  0.40298173  1
  H+  H120  1  0.63699560  0.56120690  0.40347935  1
  H+  H121  1  0.73874062  0.22869890  0.04838180  1
  H+  H122  1  0.22980005  0.45521594  0.40082998  1
  H+  H123  1  0.18493253  0.20817561  0.01955344  1
  H+  H124  1  0.44762073  0.57373521  0.13336610  1
  H+  H125  1  0.12946528  0.23804790  0.15786232  1
  H+  H126  1  0.10641532  0.71146801  0.80921607  1
  H+  H127  1  0.54410473  0.10117231  0.84369391  1
  H+  H128  1  0.15771870  0.30453501  0.75308749  1
  H+  H129  1  0.48914509  0.53962888  0.00452316  1
  H+  H130  1  0.23425770  0.80415989  0.90312198  1
  H+  H131  1  0.82439531  0.84428112  0.02323529  1
  H+  H132  1  0.77943399  0.57069815  0.62809494  1
  H+  H133  1  0.76526547  0.87916777  0.15877118  1
  H+  H134  1  0.08886044  0.89958875  0.64108182  1
  H+  H135  1  0.85628611  0.15199031  0.50623567  1
  H+  H136  1  0.49546388  0.91938463  0.14331417  1
  H+  H137  1  0.49464614  0.66621341  1.00019583  1
  H+  H138  1  0.46658324  0.21980745  0.09756779  1
  H+  H139  1  0.04747141  0.19358939  0.49787997  1
  H+  H140  1  0.10978241  0.89254811  0.16112125  1
  H+  H141  1  0.01613978  0.49296981  0.51221247  1
  H+  H142  1  0.90041042  0.79694011  0.85627554  1
  H+  H143  1  0.85153360  0.36574644  0.76207629  1
  O2-  O144  1  0.12509578  0.23493427  0.22596210  1
  O2-  O145  1  0.12248840  0.22251897  0.73740788  1
  O2-  O146  1  0.07368848  0.49197805  0.19454094  1
  O2-  O147  1  0.10713820  0.54250733  0.70781941  1
  O2-  O148  1  0.10948931  0.89565620  0.22847030  1
  O2-  O149  1  0.09771043  0.89082244  0.70654127  1
  O2-  O150  1  0.44325106  0.21597605  0.20925227  1
  O2-  O151  1  0.47478484  0.24459329  0.70970474  1
  O2-  O152  1  0.44568150  0.56233565  0.20278914  1
  O2-  O153  1  0.44832224  0.57229281  0.73038640  1
  O2-  O154  1  0.52952585  0.93088640  0.20432030  1
  O2-  O155  1  0.44601301  0.88665301  0.72462416  1
  O2-  O156  1  0.78493416  0.25224665  0.24934297  1
  O2-  O157  1  0.78031484  0.22580198  0.72824167  1
  O2-  O158  1  0.77403369  0.54966849  0.20519821  1
  O2-  O159  1  0.78697161  0.56768257  0.74078829  1
  O2-  O160  1  0.75823829  0.87708856  0.22727534  1
  O2-  O161  1  0.76587840  0.87661429  0.72329742  1
  O2-  O162  1  0.23362155  0.11256189  0.27479874  1
  O2-  O163  1  0.19769656  0.09874654  0.81486957  1
  O2-  O164  1  0.23014843  0.45789011  0.27843792  1
  O2-  O165  1  0.22983043  0.45255909  0.78429085  1
  O2-  O166  1  0.18185488  0.73362624  0.28747903  1
  O2-  O167  1  0.17730661  0.76496430  0.77847980  1
  O2-  O168  1  0.55554376  0.13243135  0.29432821  1
  O2-  O169  1  0.55644002  0.11029238  0.77635987  1
  O2-  O170  1  0.54226653  0.43262602  0.24546602  1
  O2-  O171  1  0.55983603  0.45953462  0.78639127  1
  O2-  O172  1  0.55572271  0.74746393  0.29289459  1
  O2-  O173  1  0.55739057  0.78989884  0.79357606  1
  O2-  O174  1  0.88384297  0.12064310  0.23298013  1
  O2-  O175  1  0.88351104  0.10166952  0.77586469  1
  O2-  O176  1  0.89202218  0.46987272  0.29947920  1
  O2-  O177  1  0.89613079  0.44779926  0.78203615  1
  O2-  O178  1  0.88751997  0.77331949  0.27649846  1
  O2-  O179  1  0.89347957  0.78954838  0.78814012  1
  O2-  O180  1  0.22791968  0.12298370  0.46152883  1
  O2-  O181  1  0.23752414  0.12632478  0.98537740  1
  O2-  O182  1  0.22246454  0.44757340  0.46791453  1
  O2-  O183  1  0.23219513  0.46014630  0.97035070  1
  O2-  O184  1  0.17613970  0.75121416  0.48048878  1
  O2-  O185  1  0.23841613  0.80392179  0.96998675  1
  O2-  O186  1  0.57181924  0.11860588  0.47427691  1
  O2-  O187  1  0.54687601  0.08967264  0.95714902  1
  O2-  O188  1  0.53588571  0.44899144  0.56314196  1
  O2-  O189  1  0.56305727  0.46040150  0.96800859  1
  O2-  O190  1  0.55375067  0.75538485  0.46434237  1
  O2-  O191  1  0.55078240  0.77960846  0.96642502  1
  O2-  O192  1  0.89428036  0.10881224  0.48626355  1
  O2-  O193  1  0.93543198  0.09976330  0.96687798  1
  O2-  O194  1  0.87689199  0.45750041  0.48615038  1
  O2-  O195  1  0.90731848  0.47821361  0.96107508  1
  O2-  O196  1  0.96192148  0.84708490  0.47239909  1
  O2-  O197  1  0.90369361  0.79381501  0.97028133  1
  O2-  O198  1  0.13849241  0.24365508  0.04077260  1
  O2-  O199  1  0.13033912  0.24121768  0.50996748  1
  O2-  O200  1  0.12774814  0.58345501  0.02421492  1
  O2-  O201  1  0.09680493  0.52811874  0.53405907  1
  O2-  O202  1  0.11845940  0.90226859  0.03914980  1
  O2-  O203  1  0.04399820  0.91725190  0.52027824  1
  O2-  O204  1  0.48673683  0.23594491  0.03123763  1
  O2-  O205  1  0.40398650  0.13393885  0.56151258  1
  O2-  O206  1  0.44903612  0.57956339  0.02669668  1
  O2-  O207  1  0.42351757  0.56215248  0.54578512  1
  O2-  O208  1  0.46298388  0.89414106  0.01915820  1
  O2-  O209  1  0.48725445  0.91048560  0.53664795  1
  O2-  O210  1  0.74048775  0.29660945  0.07301382  1
  O2-  O211  1  0.78755019  0.23353352  0.53841691  1
  O2-  O212  1  0.78315421  0.57358442  0.02144872  1
  O2-  O213  1  0.76312649  0.57171429  0.56161400  1
  O2-  O214  1  0.78763823  0.88781956  0.04674532  1
  O2-  O215  1  0.74491236  0.77529433  0.54730442  1
