# generated using pymatgen
data_H2O
_symmetry_space_group_name_H-M   'P 1'
_cell_length_a   13.52047874
_cell_length_b   13.50896201
_cell_length_c   14.70524884
_cell_angle_alpha   90.04544422
_cell_angle_beta   89.90789299
_cell_angle_gamma   119.88568994
_symmetry_Int_Tables_number   1
_chemical_formula_structural   H2O
_chemical_formula_sum   'H144 O72'
_cell_volume   2328.71100190
_cell_formula_units_Z   72
loop_
 _symmetry_equiv_pos_site_id
 _symmetry_equiv_pos_as_xyz
  1  'x, y, z'
loop_
 _atom_type_symbol
 _atom_type_oxidation_number
  H+  1.0
  O2-  -2.0
loop_
 _atom_site_type_symbol
 _atom_site_label
 _atom_site_symmetry_multiplicity
 _atom_site_fract_x
 _atom_site_fract_y
 _atom_site_fract_z
 _atom_site_occupancy
  H+  H0  1  0.48307548  0.22110220  0.12739219  1
  H+  H1  1  0.62384167  0.45296584  -0.00342994  1
  H+  H2  1  0.16004340  0.19425298  0.23825212  1
  H+  H3  1  0.17617093  0.48572333  0.48471005  1
  H+  H4  1  0.28139673  0.18062587  0.47224268  1
  H+  H5  1  0.04948578  0.19231182  0.73827766  1
  H+  H6  1  0.20130774  0.36542019  0.26520248  1
  H+  H7  1  0.81783660  0.84775064  0.51806421  1
  H+  H8  1  0.10747460  0.55121709  0.59321144  1
  H+  H9  1  0.52637519  0.76414796  0.86925168  1
  H+  H10  1  0.88455832  0.78517568  0.41460031  1
  H+  H11  1  0.46767077  0.48809944  0.52434819  1
  H+  H12  1  0.31924931  0.80390732  0.45220075  1
  H+  H13  1  0.47651468  0.83196211  0.75668439  1
  H+  H14  1  0.18544483  0.00417767  0.50229291  1
  H+  H15  1  0.80466803  0.85589281  0.24603090  1
  H+  H16  1  0.83485035  0.20228455  0.73256631  1
  H+  H17  1  0.13209754  0.61421573  0.24677714  1
  H+  H18  1  0.64640841  0.83409108  0.49508493  1
  H+  H19  1  0.87746517  0.18526523  0.29042517  1
  H+  H20  1  1.02595304  0.51070773  0.50614615  1
  H+  H21  1  0.52530138  0.36492027  0.25330428  1
  H+  H22  1  0.17937792  0.68894591  0.74691102  1
  H+  H23  1  0.96160506  0.81909528  0.25857898  1
  H+  H24  1  0.48309660  0.15955684  0.50640402  1
  H+  H25  1  0.81297092  0.97558656  0.25894175  1
  H+  H26  1  0.32337424  0.14953492  0.97970970  1
  H+  H27  1  0.15317606  0.51662354  0.74428386  1
  H+  H28  1  0.85642032  0.49473852  0.75868559  1
  H+  H29  1  0.60777400  0.79590731  0.78228147  1
  H+  H30  1  0.50700788  0.82388920  0.00755108  1
  H+  H31  1  0.11402234  0.22815451  0.09639758  1
  H+  H32  1  0.70880422  0.52629974  0.74389676  1
  H+  H33  1  0.17319861  0.81550667  0.24297449  1
  H+  H34  1  0.16637740  0.30930899  0.74405653  1
  H+  H35  1  0.23381975  0.44299001  0.36717959  1
  H+  H36  1  0.30026395  0.47955066  0.76823208  1
  H+  H37  1  0.52473596  0.86769889  0.52597073  1
  H+  H38  1  0.69154448  0.85514344  -0.04061310  1
  H+  H39  1  0.04891829  0.86062379  0.71965252  1
  H+  H40  1  0.13454433  0.96460895  0.23351383  1
  H+  H41  1  0.55286300  1.04595117  0.50020479  1
  H+  H42  1  0.33140134  0.48860946  0.27417100  1
  H+  H43  1  0.88271061  0.73375453  0.96914540  1
  H+  H44  1  0.84123083  0.86217416  0.74149815  1
  H+  H45  1  0.51410470  0.14331730  0.26059906  1
  H+  H46  1  0.50331754  0.34072838  0.49059553  1
  H+  H47  1  0.11499143  0.68312659  0.47054013  1
  H+  H48  1  0.99567585  0.85209812  0.97435605  1
  H+  H49  1  0.18276803  0.37838341  1.00069922  1
  H+  H50  1  0.15971110  0.17203057  0.48733826  1
  H+  H51  1  0.16827301  0.36241807  0.49033432  1
  H+  H52  1  0.13890224  0.81010451  0.47132452  1
  H+  H53  1  0.50779298  1.02137657  0.26631370  1
  H+  H54  1  -0.12719170  0.05342323  0.74980854  1
  H+  H55  1  0.19862742  0.04099562  0.75420831  1
  H+  H56  1  0.17250757  0.69365094  0.99566553  1
  H+  H57  1  0.86640426  0.70573952  0.74405855  1
  H+  H58  1  0.85329701  0.69837634  0.27294603  1
  H+  H59  1  0.11232096  0.23148310  0.60438684  1
  H+  H60  1  0.36024548  0.86634138  1.02763146  1
  H+  H61  1  1.02256042  0.52910258  1.00838531  1
  H+  H62  1  0.34990843  0.84717322  0.25318892  1
  H+  H63  1  0.78485339  0.58932152  0.05317918  1
  H+  H64  1  0.85187749  0.04204249  0.95632871  1
  H+  H65  1  0.52146794  0.48276866  0.76616676  1
  H+  H66  1  0.81325860  0.85936979  0.95080825  1
  H+  H67  1  1.01838809  0.18379782  0.52137845  1
  H+  H68  1  0.84802087  0.02949439  0.50274772  1
  H+  H69  1  0.68932224  0.50664366  0.51541745  1
  H+  H70  1  0.49263070  0.63960392  0.25463573  1
  H+  H71  1  0.83957373  0.70170351  0.49921394  1
  H+  H72  1  0.35339834  0.09358754  0.53533023  1
  H+  H73  1  0.50093694  0.52311520  0.25325032  1
  H+  H74  1  0.84284654  0.36149065  0.98234043  1
  H+  H75  1  0.78070975  0.89909468  0.81287066  1
  H+  H76  1  0.51349692  0.27898571  0.98350012  1
  H+  H77  1  0.16147798  0.86346464  -0.00096995  1
  H+  H78  1  0.85201230  0.37236628  0.48375485  1
  H+  H79  1  0.53101098  0.37095612  0.75622235  1
  H+  H80  1  0.85809762  0.37660166  0.75780567  1
  H+  H81  1  0.13988246  0.53002387  0.01908716  1
  H+  H82  1  0.46865869  0.61481612  0.74959765  1
  H+  H83  1  0.69358964  0.18748706  0.26513959  1
  H+  H84  1  0.62705236  0.82312148  0.26800517  1
  H+  H85  1  0.50770300  0.70358346  1.00940988  1
  H+  H86  1  0.50307881  0.81190630  0.26843145  1
  H+  H87  1  1.00497295  0.52262209  0.24700412  1
  H+  H88  1  0.37821486  0.19291108  0.73679308  1
  H+  H89  1  0.38407362  0.21134597  0.18556153  1
  H+  H90  1  0.80555017  0.48742798  0.02121617  1
  H+  H91  1  0.19836132  0.15968261  0.75663593  1
  H+  H92  1  0.85028635  0.15179913  0.50072502  1
  H+  H93  1  0.17901935  0.93889239  0.59377129  1
  H+  H94  1  0.53910331  0.17762723  0.75280923  1
  H+  H95  1  0.96924085  0.15819349  0.98319038  1
  H+  H96  1  0.03560908  0.52011384  0.74379087  1
  H+  H97  1  0.24094117  0.12195583  0.89495857  1
  H+  H98  1  0.04829185  0.20547471  0.24880781  1
  H+  H99  1  0.16460764  0.85735378  0.72270897  1
  H+  H100  1  0.35649737  0.83727137  0.73849270  1
  H+  H101  1  0.71613504  0.19746210  0.50675644  1
  H+  H102  1  0.15839720  0.19436365  0.00755586  1
  H+  H103  1  0.28625750  0.11528203  0.28349165  1
  H+  H104  1  0.47288267  0.98685980  0.02331238  1
  H+  H105  1  0.31949707  0.86014984  0.45312918  1
  H+  H106  1  0.48433429  0.51501352  0.01870417  1
  H+  H107  1  0.80887884  0.17802699  0.98044833  1
  H+  H108  1  0.80586150  0.38887606  0.26739530  1
  H+  H109  1  0.55731504  0.79763124  0.41092586  1
  H+  H110  1  0.78231205  0.51095416  0.17646362  1
  H+  H111  1  0.56837812  0.10970491  0.40349220  1
  H+  H112  1  0.79468957  0.24169628  0.59610990  1
  H+  H113  1  0.10286754  0.89440672  0.14056458  1
  H+  H114  1  0.45405200  0.55626585  0.11116845  1
  H+  H115  1  0.43467397  0.89152777  0.16734812  1
  H+  H116  1  0.78009749  0.55848613  0.65106457  1
  H+  H117  1  0.54471387  0.42385218  0.40556516  1
  H+  H118  1  0.20478558  0.77783271  0.82879895  1
  H+  H119  1  0.71566603  0.20322386  0.73924746  1
  H+  H120  1  0.17060772  0.98653232  -0.00123374  1
  H+  H121  1  0.88163776  0.46299141  0.40203802  1
  H+  H122  1  0.44976806  0.22088916  0.64515688  1
  H+  H123  1  0.56852529  0.14273007  0.84573151  1
  H+  H124  1  0.19467442  0.11034824  0.34985483  1
  H+  H125  1  0.29936502  0.49593957  1.00245472  1
  H+  H126  1  0.91031727  0.13682560  0.83512591  1
  H+  H127  1  0.43276918  0.53235803  0.66099271  1
  H+  H128  1  0.91466684  0.13081941  0.36762878  1
  H+  H129  1  0.41468827  0.88619775  0.53337273  1
  H+  H130  1  0.35476593  0.49694291  0.52370111  1
  H+  H131  1  0.18052690  0.76521202  0.33665023  1
  H+  H132  1  0.88119889  0.44870517  0.89835949  1
  H+  H133  1  0.79917771  0.24420725  0.19689742  1
  H+  H134  1  0.91848788  0.79332472  0.82766479  1
  H+  H135  1  0.46522006  0.89294101  0.65576535  1
  H+  H136  1  0.77355776  0.88845974  0.60539120  1
  H+  H137  1  0.64450905  0.47240420  0.27558255  1
  H+  H138  1  0.81174394  0.51589760  0.51236315  1
  H+  H139  1  0.75292874  0.18796056  0.06926792  1
  H+  H140  1  0.55864783  0.42992167  0.90010738  1
  H+  H141  1  0.61221795  0.17800716  0.99013893  1
  H+  H142  1  0.22088098  0.44990100  0.85694097  1
  H+  H143  1  0.28054891  0.76055442  0.93104502  1
  O2-  O144  1  0.12662888  0.24223775  0.22001056  1
  O2-  O145  1  0.13116695  0.23074838  0.71733919  1
  O2-  O146  1  0.08103865  0.53097340  0.24661483  1
  O2-  O147  1  0.11564309  0.55897017  0.71932546  1
  O2-  O148  1  0.09608964  0.88631330  0.20776394  1
  O2-  O149  1  0.13228252  0.90609175  0.70440931  1
  O2-  O150  1  0.46308206  0.22902491  0.19173274  1
  O2-  O151  1  0.45763314  0.23503143  0.71187396  1
  O2-  O152  1  0.45484080  0.55785686  0.23198354  1
  O2-  O153  1  0.43417490  0.53431842  0.73070459  1
  O2-  O154  1  0.43375085  0.88794813  0.23482995  1
  O2-  O155  1  0.44222315  0.87651555  0.72649759  1
  O2-  O156  1  0.77703429  0.24643647  0.25949414  1
  O2-  O157  1  0.79508080  0.24379424  0.71226789  1
  O2-  O158  1  0.78498917  0.52397397  0.24409572  1
  O2-  O159  1  0.78840563  0.56523991  0.71928424  1
  O2-  O160  1  0.76528638  0.89930159  0.23226495  1
  O2-  O161  1  0.79330336  0.89994902  0.74588104  1
  O2-  O162  1  0.20880592  0.10300493  0.28266460  1
  O2-  O163  1  0.23918748  0.11999276  0.78014371  1
  O2-  O164  1  0.24826044  0.44314588  0.29613389  1
  O2-  O165  1  0.21865959  0.44527001  0.78915331  1
  O2-  O166  1  0.21272034  0.77905561  0.27287084  1
  O2-  O167  1  0.22244338  0.77426227  0.76438311  1
  O2-  O168  1  0.55293038  0.10439453  0.28662219  1
  O2-  O169  1  0.58383954  0.14491485  0.78032294  1
  O2-  O170  1  0.56082516  0.43846254  0.28659152  1
  O2-  O171  1  0.56861099  0.44811424  0.78578086  1
  O2-  O172  1  0.54643958  0.77480220  0.29084723  1
  O2-  O173  1  0.52720819  0.76098165  0.80009785  1
  O2-  O174  1  0.91824387  0.14270290  0.30001987  1
  O2-  O175  1  0.91238519  0.13573923  0.76702893  1
  O2-  O176  1  0.85090760  0.47291962  0.28068861  1
  O2-  O177  1  0.89695731  0.45588141  0.78451630  1
  O2-  O178  1  0.88365889  0.77972198  0.28615940  1
  O2-  O179  1  0.91323626  0.78925275  0.76023356  1
  O2-  O180  1  0.20084119  0.13538767  0.45505742  1
  O2-  O181  1  0.24270350  0.12153854  0.96355641  1
  O2-  O182  1  0.21463189  0.44146255  0.46425186  1
  O2-  O183  1  0.22030310  0.45876102  0.97876413  1
  O2-  O184  1  0.10765236  0.74033329  0.43401276  1
  O2-  O185  1  0.22807161  0.77480718  0.96691373  1
  O2-  O186  1  0.57867640  0.12139576  0.47078052  1
  O2-  O187  1  0.53026034  0.13575888  0.97135836  1
  O2-  O188  1  0.54277185  0.42159212  0.47339902  1
  O2-  O189  1  0.54750672  0.41333572  0.96747716  1
  O2-  O190  1  0.56501760  0.80655502  0.47836594  1
  O2-  O191  1  0.54084468  0.78028672  0.97976598  1
  O2-  O192  1  0.89193240  0.11102920  0.48128385  1
  O2-  O193  1  0.89427454  0.12719328  0.95148050  1
  O2-  O194  1  0.88763794  0.45552698  0.46837812  1
  O2-  O195  1  0.87755251  0.44372353  0.96695792  1
  O2-  O196  1  0.87796490  0.78341206  0.48166858  1
  O2-  O197  1  0.91606541  0.81173654  0.94707449  1
  O2-  O198  1  0.11181349  0.22790970  0.02871012  1
  O2-  O199  1  0.10261739  0.23149889  0.53643120  1
  O2-  O200  1  0.10232221  0.57595047  0.02962596  1
  O2-  O201  1  0.10770480  0.55062895  0.52576924  1
  O2-  O202  1  0.12222183  0.90457688  0.01930329  1
  O2-  O203  1  0.21579037  0.95931583  0.53240463  1
  O2-  O204  1  0.47713713  0.19847511  0.01215062  1
  O2-  O205  1  0.42057195  0.17245047  0.53013407  1
  O2-  O206  1  0.45110620  0.56013302  0.04337855  1
  O2-  O207  1  0.42935011  0.52590818  0.55377030  1
  O2-  O208  1  0.44165350  0.90785831  0.04635161  1
  O2-  O209  1  0.49017169  0.91535666  0.56151527  1
  O2-  O210  1  0.76190754  0.21126675  0.00587832  1
  O2-  O211  1  0.79723654  0.23804240  0.52787294  1
  O2-  O212  1  0.75521904  0.50771294  0.06024353  1
  O2-  O213  1  0.76900717  0.55273286  0.53741047  1
  O2-  O214  1  0.76954879  0.89726623  -0.06749723  1
  O2-  O215  1  0.77872679  0.89301309  0.53896642  1
