# generated using pymatgen
data_H2O
_symmetry_space_group_name_H-M   'P 1'
_cell_length_a   13.51877600
_cell_length_b   13.52487074
_cell_length_c   14.68970824
_cell_angle_alpha   89.98309186
_cell_angle_beta   90.03505234
_cell_angle_gamma   120.01941136
_symmetry_Int_Tables_number   1
_chemical_formula_structural   H2O
_chemical_formula_sum   'H144 O72'
_cell_volume   2325.56902141
_cell_formula_units_Z   72
loop_
 _symmetry_equiv_pos_site_id
 _symmetry_equiv_pos_as_xyz
  1  'x, y, z'
loop_
 _atom_type_symbol
 _atom_type_oxidation_number
  H+  1.0
  O2-  -2.0
loop_
 _atom_site_type_symbol
 _atom_site_label
 _atom_site_symmetry_multiplicity
 _atom_site_fract_x
 _atom_site_fract_y
 _atom_site_fract_z
 _atom_site_occupancy
  H+  H0  1  0.19232941  0.04477430  0.73750262  1
  H+  H1  1  0.81878892  0.85577043  0.50744123  1
  H+  H2  1  0.41850900  0.49590807  0.24259675  1
  H+  H3  1  0.80826797  0.17601096  0.24064029  1
  H+  H4  1  0.81744041  -0.02863023  1.01020056  1
  H+  H5  1  0.88019612  0.76900004  0.90827368  1
  H+  H6  1  0.30953353  0.83412679  0.25203059  1
  H+  H7  1  0.46245425  -0.00802836  0.23499695  1
  H+  H8  1  0.56463998  0.78729243  0.86141578  1
  H+  H9  1  0.51976383  1.04509142  0.77339041  1
  H+  H10  1  0.70247945  0.51285772  1.01857430  1
  H+  H11  1  0.36720334  0.52969616  0.51843645  1
  H+  H12  1  0.14956827  0.86190616  0.23569302  1
  H+  H13  1  0.52052565  0.36284901  0.98745024  1
  H+  H14  1  0.17328191  0.30560543  0.74611601  1
  H+  H15  1  0.70452210  0.51497705  0.73972295  1
  H+  H16  1  0.38527315  0.52529834  0.74789364  1
  H+  H17  1  0.59576672  0.79621011  0.24532022  1
  H+  H18  1  0.22326419  0.78686991  0.38849807  1
  H+  H19  1  0.25356853  0.42944769  0.86268892  1
  H+  H20  1  0.16767376  0.31856782  0.23731659  1
  H+  H21  1  0.07556344  0.91135163  0.46370345  1
  H+  H22  1  -0.02226752  0.15123183  0.75298887  1
  H+  H23  1  0.23783299  0.10356440  0.89689013  1
  H+  H24  1  0.64046026  0.82644855  -0.00526293  1
  H+  H25  1  -0.02773792  0.15083027  0.50732955  1
  H+  H26  1  0.38315781  0.20211165  0.50151571  1
  H+  H27  1  0.81660893  0.29861652  0.74368207  1
  H+  H28  1  0.26031094  0.50314405  0.16868709  1
  H+  H29  1  0.52640384  0.04544745  0.48196896  1
  H+  H30  1  0.20090834  0.46869678  0.78694800  1
  H+  H31  1  0.42212181  0.90869075  0.14506407  1
  H+  H32  1  0.35998530  0.85566790  0.47667123  1
  H+  H33  1  0.48420966  0.84697607  0.01438139  1
  H+  H34  1  0.82656484  0.68331920  0.49842795  1
  H+  H35  1  0.50220024  0.20069865  0.50311249  1
  H+  H36  1  0.84406943  0.36368387  0.49682911  1
  H+  H37  1  0.20234678  0.47019742  0.99875339  1
  H+  H38  1  -0.05535338  0.79188896  0.51944282  1
  H+  H39  1  0.50455804  0.51722676  1.00270457  1
  H+  H40  1  0.07633066  0.55081530  0.15759357  1
  H+  H41  1  0.79591576  0.28909856  0.24096374  1
  H+  H42  1  0.68394748  0.51357910  0.50642668  1
  H+  H43  1  0.48325002  0.52690835  0.51079008  1
  H+  H44  1  0.47761984  0.31242487  0.23486220  1
  H+  H45  1  0.56609153  0.44262232  0.89772688  1
  H+  H46  1  0.84259674  0.69554162  1.00030715  1
  H+  H47  1  -0.03876437  0.47487528  0.78522553  1
  H+  H48  1  0.48354322  0.18357823  1.01349807  1
  H+  H49  1  -0.03327410  0.81974934  0.26445590  1
  H+  H50  1  0.27327838  0.71190976  0.29387372  1
  H+  H51  1  0.85737203  0.03264341  0.75317475  1
  H+  H52  1  0.70166650  0.85833976  0.49793252  1
  H+  H53  1  0.84408353  1.02004872  0.50232728  1
  H+  H54  1  0.18596287  0.74921535  0.74109340  1
  H+  H55  1  0.30858505  0.15884335  0.25923816  1
  H+  H56  1  0.84629137  0.47828748  0.76532981  1
  H+  H57  1  0.15894753  0.86540865  0.49170351  1
  H+  H58  1  0.52118520  0.37305216  0.75067431  1
  H+  H59  1  0.30954964  0.85005289  0.76342037  1
  H+  H60  1  0.15510081  0.18997414  0.50727570  1
  H+  H61  1  0.80779619  -0.02768475  0.26561051  1
  H+  H62  1  0.10299674  0.89982699  0.15160649  1
  H+  H63  1  0.93241143  0.22168833  0.96294176  1
  H+  H64  1  0.54138415  0.46110507  0.39448736  1
  H+  H65  1  0.49390742  0.85593156  0.76943107  1
  H+  H66  1  0.48765388  0.18793898  0.73434072  1
  H+  H67  1  0.79208747  0.64035304  0.25709984  1
  H+  H68  1  0.32800698  0.16818425  0.73718712  1
  H+  H69  1  0.30851287  0.77931172  0.97590576  1
  H+  H70  1  0.16595790  0.60818147  0.84265749  1
  H+  H71  1  -0.03275302  0.82290342  0.75836343  1
  H+  H72  1  0.63109041  0.15236450  0.26062533  1
  H+  H73  1  0.63764215  0.16149451  0.76218396  1
  H+  H74  1  0.19829280  0.17285913  0.74460133  1
  H+  H75  1  0.52974813  0.49559580  0.75598897  1
  H+  H76  1  0.19358280  0.14513730  -0.01823294  1
  H+  H77  1  0.51371870  0.37850486  0.48119603  1
  H+  H78  1  0.10512747  0.64024209  0.23677968  1
  H+  H79  1  0.14440726  0.96539022  0.01434672  1
  H+  H80  1  0.51998083  0.16748681  0.26509327  1
  H+  H81  1  1.05237548  0.17460049  0.99789404  1
  H+  H82  1  0.21097156  0.06394685  0.48937840  1
  H+  H83  1  0.15710962  0.60287634  0.01454952  1
  H+  H84  1  0.17379866  0.71132562  0.47769469  1
  H+  H85  1  0.84655522  0.81380329  0.75832944  1
  H+  H86  1  0.52432316  0.70548035  0.48767090  1
  H+  H87  1  0.70149656  0.85652770  0.74500359  1
  H+  H88  1  0.46843643  0.95625021  0.00416748  1
  H+  H89  1  0.84057198  0.35077525  0.00760366  1
  H+  H90  1  0.15977378  0.19852127  0.25432782  1
  H+  H91  1  0.81915342  0.18125100  0.74007771  1
  H+  H92  1  0.02047790  0.85384682  0.01989987  1
  H+  H93  1  0.52575152  0.70375295  0.99538610  1
  H+  H94  1  0.81256855  0.85185056  0.00836975  1
  H+  H95  1  0.84352332  0.15267454  0.51026889  1
  H+  H96  1  0.17201386  0.29131885  0.00192488  1
  H+  H97  1  0.52540620  0.71264287  0.76863260  1
  H+  H98  1  0.14309916  0.30174283  0.51441189  1
  H+  H99  1  -0.02102017  0.17322822  0.26580598  1
  H+  H100  1  0.83314543  0.47728795  0.49297886  1
  H+  H101  1  0.78250447  0.15579885  0.02072443  1
  H+  H102  1  0.32750577  0.48028988  0.99985636  1
  H+  H103  1  0.18669025  0.04185096  0.26309792  1
  H+  H104  1  0.01328806  0.51644964  0.48855283  1
  H+  H105  1  0.61795963  0.14111312  0.99928380  1
  H+  H106  1  0.70410021  0.17674443  0.50976097  1
  H+  H107  1  0.16986745  0.48515239  0.48623389  1
  H+  H108  1  0.15959988  0.88515492  0.72822384  1
  H+  H109  1  0.44482846  0.22827997  0.14978101  1
  H+  H110  1  0.62594882  0.50298676  0.25869081  1
  H+  H111  1  0.52893742  0.82101256  0.45625843  1
  H+  H112  1  0.89584693  0.13228936  0.35081232  1
  H+  H113  1  0.52483202  0.73667853  0.32716977  1
  H+  H114  1  0.88052545  0.42932417  0.91966872  1
  H+  H115  1  0.57089026  0.13103486  0.39883549  1
  H+  H116  1  0.89861880  0.12659202  0.88877711  1
  H+  H117  1  0.89284377  0.77782850  0.35608871  1
  H+  H118  1  0.20014999  0.76800867  0.92654688  1
  H+  H119  1  0.77916206  0.21556285  0.60391372  1
  H+  H120  1  0.77345308  0.88947038  0.65191254  1
  H+  H121  1  0.80600023  0.85508480  0.26991150  1
  H+  H122  1  0.11285879  0.91640909  0.63857823  1
  H+  H123  1  0.28675564  0.54685064  0.26708165  1
  H+  H124  1  0.91577261  0.46802243  0.25602793  1
  H+  H125  1  0.21881839  0.43712043  0.41141726  1
  H+  H126  1  0.46868393  0.91033174  0.68400392  1
  H+  H127  1  0.75797339  0.55087352  0.17601438  1
  H+  H128  1  0.84701704  0.41643976  0.34672517  1
  H+  H129  1  0.03808882  0.48728183  0.02063568  1
  H+  H130  1  0.36724694  0.18438984  0.00923788  1
  H+  H131  1  0.44419658  0.86194822  0.55162459  1
  H+  H132  1  0.47983174  0.55095603  0.09852470  1
  H+  H133  1  0.76417600  0.54614657  0.59724894  1
  H+  H134  1  0.45858469  0.57378158  0.65649144  1
  H+  H135  1  0.75468376  0.20370656  0.11138417  1
  H+  H136  1  0.15532732  0.58210985  0.73658905  1
  H+  H137  1  0.23904061  0.13524364  0.39688994  1
  H+  H138  1  0.54849274  0.11643440  0.90620154  1
  H+  H139  1  0.82356540  0.63197233  0.73732416  1
  H+  H140  1  0.12791511  0.23048410  0.65186142  1
  H+  H141  1  0.09495671  0.56631750  0.57249137  1
  H+  H142  1  0.45319627  0.22901779  0.63973407  1
  H+  H143  1  0.82059873  0.51579246  0.02977647  1
  O2-  O144  1  0.11449829  0.23653558  0.24290556  1
  O2-  O145  1  0.13146856  0.22534880  0.71986704  1
  O2-  O146  1  0.05016474  0.56222034  0.21729495  1
  O2-  O147  1  0.12511144  0.54811731  0.79597246  1
  O2-  O148  1  0.10751333  0.90128894  0.22182451  1
  O2-  O149  1  0.11587486  0.92288531  0.70584862  1
  O2-  O150  1  0.44447899  0.23029299  0.21818157  1
  O2-  O151  1  0.44414074  0.22449456  0.70848037  1
  O2-  O152  1  0.49565898  0.51928597  0.21945534  1
  O2-  O153  1  0.46454127  0.57365165  0.72443911  1
  O2-  O154  1  0.39754121  0.92611297  0.20373608  1
  O2-  O155  1  0.45361146  0.89972238  0.74910350  1
  O2-  O156  1  0.75943135  0.20663047  0.21670671  1
  O2-  O157  1  0.77647543  0.21918133  0.71779272  1
  O2-  O158  1  0.74127116  0.55843183  0.24035839  1
  O2-  O159  1  0.78446347  0.55129701  0.71510905  1
  O2-  O160  1  0.75716357  0.88971465  0.27471004  1
  O2-  O161  1  0.78073347  0.89240136  0.71923443  1
  O2-  O162  1  0.23057471  0.12126693  0.28794678  1
  O2-  O163  1  0.24143083  0.12765714  0.76199912  1
  O2-  O164  1  0.27208382  0.48146366  0.22946804  1
  O2-  O165  1  0.24756621  0.43152348  0.79379499  1
  O2-  O166  1  0.24206507  0.76283311  0.28732894  1
  O2-  O167  1  0.22633550  0.82320055  0.77107574  1
  O2-  O168  1  0.55340441  0.12162871  0.28978497  1
  O2-  O169  1  0.55725733  0.12887807  0.78435056  1
  O2-  O170  1  0.53411596  0.45343668  0.27465953  1
  O2-  O171  1  0.56650652  0.45085000  0.77647005  1
  O2-  O172  1  0.51485752  0.74406820  0.26191256  1
  O2-  O173  1  0.56406608  0.79286103  0.79208082  1
  O2-  O174  1  0.89581966  0.13220500  0.28431702  1
  O2-  O175  1  0.89714547  0.11465996  0.77339538  1
  O2-  O176  1  0.84052169  0.40851246  0.28014852  1
  O2-  O177  1  0.87765325  0.43160058  0.79291137  1
  O2-  O178  1  0.88741390  0.77740240  0.28924939  1
  O2-  O179  1  0.88778968  0.77391421  0.77902346  1
  O2-  O180  1  0.24257861  0.14282883  0.46641438  1
  O2-  O181  1  0.23549579  0.10255730  0.96343879  1
  O2-  O182  1  0.21262493  0.44309069  0.47718843  1
  O2-  O183  1  0.24786862  0.43645973  0.97397675  1
  O2-  O184  1  0.21747793  0.79247754  0.45764121  1
  O2-  O185  1  0.23400735  0.72228277  0.94583675  1
  O2-  O186  1  0.57338494  0.12825318  0.46832382  1
  O2-  O187  1  0.53879967  0.10283964  0.97285934  1
  O2-  O188  1  0.54802018  0.46007690  0.46239099  1
  O2-  O189  1  0.56567210  0.44397753  0.96540145  1
  O2-  O190  1  0.57290069  0.78091132  0.45759006  1
  O2-  O191  1  0.55815148  0.78288492  0.97168217  1
  O2-  O192  1  0.88841503  0.11015361  0.48747314  1
  O2-  O193  1  0.90392228  0.14002698  0.95634574  1
  O2-  O194  1  0.87862466  0.44170270  0.47124352  1
  O2-  O195  1  0.89100181  0.43093074  0.98653652  1
  O2-  O196  1  0.87464784  0.76803489  0.48456067  1
  O2-  O197  1  0.87908473  0.77493460  0.97527128  1
  O2-  O198  1  0.13262639  0.20854268  0.01663413  1
  O2-  O199  1  0.10757358  0.22057689  0.53558687  1
  O2-  O200  1  0.11865550  0.52548021  0.04299203  1
  O2-  O201  1  0.09793570  0.56099481  0.50648960  1
  O2-  O202  1  0.09913306  0.89072578  0.04534154  1
  O2-  O203  1  0.12219369  0.91072353  0.51442212  1
  O2-  O204  1  0.44734984  0.22907412  0.03337431  1
  O2-  O205  1  0.46237656  0.24094019  0.52740591  1
  O2-  O206  1  0.46560376  0.55562069  0.03297935  1
  O2-  O207  1  0.44798307  0.57044992  0.53798446  1
  O2-  O208  1  0.43136995  0.87672673  0.02855390  1
  O2-  O209  1  0.44373440  0.89179062  0.49149195  1
  O2-  O210  1  0.75231829  0.20466208  0.04125841  1
  O2-  O211  1  0.78461721  0.21198844  0.53544237  1
  O2-  O212  1  0.77947835  0.55628403  0.04740305  1
  O2-  O213  1  0.76462935  0.54872054  0.52900677  1
  O2-  O214  1  0.77011560  0.89126030  0.02680586  1
  O2-  O215  1  0.78159563  0.90104131  0.52572904  1
