# generated using pymatgen
data_H2O
_symmetry_space_group_name_H-M   'P 1'
_cell_length_a   13.50499504
_cell_length_b   13.50997414
_cell_length_c   14.67742885
_cell_angle_alpha   90.01019061
_cell_angle_beta   89.98389167
_cell_angle_gamma   119.97751427
_symmetry_Int_Tables_number   1
_chemical_formula_structural   H2O
_chemical_formula_sum   'H144 O72'
_cell_volume   2319.67906426
_cell_formula_units_Z   72
loop_
 _symmetry_equiv_pos_site_id
 _symmetry_equiv_pos_as_xyz
  1  'x, y, z'
loop_
 _atom_type_symbol
 _atom_type_oxidation_number
  H+  1.0
  O2-  -2.0
loop_
 _atom_site_type_symbol
 _atom_site_label
 _atom_site_symmetry_multiplicity
 _atom_site_fract_x
 _atom_site_fract_y
 _atom_site_fract_z
 _atom_site_occupancy
  H+  H0  1  0.82082904  0.96988685  0.50829631  1
  H+  H1  1  0.23796183  0.78342865  0.84595447  1
  H+  H2  1  0.51071310  0.36781544  -0.00382089  1
  H+  H3  1  0.15106368  0.52774552  0.23947280  1
  H+  H4  1  0.47416555  0.18526864  0.01090439  1
  H+  H5  1  0.16762680  1.00200061  0.51039379  1
  H+  H6  1  0.96904985  0.49289003  0.25567740  1
  H+  H7  1  0.81669164  0.52396637  0.23913319  1
  H+  H8  1  0.63322940  0.48196754  -0.00732772  1
  H+  H9  1  0.48449710  0.98497736  0.01168459  1
  H+  H10  1  0.47377849  0.18934101  0.24671842  1
  H+  H11  1  0.80467865  0.19289048  0.00721704  1
  H+  H12  1  0.14226493  0.20218343  0.51629197  1
  H+  H13  1  0.18060902  0.34597245  0.75135299  1
  H+  H14  1  0.83005800  0.76700189  0.85487620  1
  H+  H15  1  1.03706398  0.53270215  0.75414301  1
  H+  H16  1  0.62374075  0.48350019  0.75960912  1
  H+  H17  1  0.48156779  0.51588032  0.74126828  1
  H+  H18  1  0.37085623  0.52927604  -0.00153140  1
  H+  H19  1  0.80491790  -0.03187815  0.26300544  1
  H+  H20  1  0.14544519  0.18885847  0.00899722  1
  H+  H21  1  0.46076617  0.15227907  0.51720847  1
  H+  H22  1  0.77198512  0.25360426  0.72529694  1
  H+  H23  1  0.19930318  0.71348954  0.98766959  1
  H+  H24  1  0.78456847  0.63418646  0.73973640  1
  H+  H25  1  0.96617191  0.16481691  0.98707291  1
  H+  H26  1  0.82132127  0.51418034  0.00619609  1
  H+  H27  1  0.17359415  0.15816993  0.75596381  1
  H+  H28  1  0.71877820  -0.12979898  1.01732039  1
  H+  H29  1  0.30061709  0.49268623  0.50060274  1
  H+  H30  1  0.82441000  0.18516996  0.49391978  1
  H+  H31  1  0.80105378  0.30939188  0.99695874  1
  H+  H32  1  1.04152457  0.55524243  1.01286867  1
  H+  H33  1  0.85085298  0.04567148  0.99528695  1
  H+  H34  1  0.58457084  0.77580640  0.85569067  1
  H+  H35  1  0.52751722  0.71987158  0.99531395  1
  H+  H36  1  0.86883450  -0.00102963  0.73396226  1
  H+  H37  1  0.48643329  0.97119099  0.50975587  1
  H+  H38  1  0.29856831  0.81300763  0.48591858  1
  H+  H39  1  0.71219917  0.74730501  0.80141013  1
  H+  H40  1  0.35592899  0.18526082  1.01312449  1
  H+  H41  1  0.14332080  0.64202885  0.23383309  1
  H+  H42  1  0.83196387  0.12843648  0.75844095  1
  H+  H43  1  0.62365664  0.16150782  0.26290399  1
  H+  H44  1  0.48209335  0.52739271  0.23015034  1
  H+  H45  1  0.17499595  0.03373864  0.99209431  1
  H+  H46  1  0.35058750  0.83652858  0.73315315  1
  H+  H47  1  0.19282579  0.83029322  0.48912180  1
  H+  H48  1  0.83902716  0.85709263  0.74035357  1
  H+  H49  1  0.17957524  0.46760071  0.75787702  1
  H+  H50  1  0.47280312  0.96658042  0.73763477  1
  H+  H51  1  0.51204759  0.37381681  0.25358761  1
  H+  H52  1  0.53799123  0.68643642  0.77172646  1
  H+  H53  1  0.50333781  0.70398853  0.25425286  1
  H+  H54  1  0.62899680  0.82093040  0.49223776  1
  H+  H55  1  0.82666006  0.16572915  0.24098682  1
  H+  H56  1  0.69687657  0.52257779  0.23334789  1
  H+  H57  1  0.17969265  0.37518144  0.50267660  1
  H+  H58  1  0.31532964  0.83460364  -0.01127336  1
  H+  H59  1  0.84978852  0.48424641  0.49309132  1
  H+  H60  1  0.84743942  0.69425123  0.98553188  1
  H+  H61  1  0.81521879  0.84945460  0.50496661  1
  H+  H62  1  0.04533805  0.19188453  0.73882295  1
  H+  H63  1  0.60196725  0.11874296  0.75085996  1
  H+  H64  1  0.17419513  0.82400877  0.25351127  1
  H+  H65  1  0.02563004  0.85321905  0.23624049  1
  H+  H66  1  0.33564779  0.07763691  0.55271987  1
  H+  H67  1  0.82336285  0.30343386  0.50213594  1
  H+  H68  1  0.83318942  0.86693454  0.01408654  1
  H+  H69  1  0.14226365  0.63211536  0.51447950  1
  H+  H70  1  0.82295805  0.64089322  0.50777467  1
  H+  H71  1  0.96767151  0.48266697  0.49585524  1
  H+  H72  1  0.48017808  0.12167747  0.75922482  1
  H+  H73  1  0.15430306  0.85256453  1.00377323  1
  H+  H74  1  0.35844817  0.86045921  0.24009591  1
  H+  H75  1  0.15245435  0.31048182  0.00538070  1
  H+  H76  1  0.11724631  0.56901645  0.09947610  1
  H+  H77  1  0.15079271  0.51829575  0.51793962  1
  H+  H78  1  0.30247748  0.50916355  0.25990098  1
  H+  H79  1  0.10844516  0.55530695  0.66115945  1
  H+  H80  1  0.97070106  0.82596568  0.48306872  1
  H+  H81  1  0.98354271  0.16132759  0.50434821  1
  H+  H82  1  0.14260488  -0.02714729  0.23451751  1
  H+  H83  1  0.68979966  0.84940457  0.27231478  1
  H+  H84  1  0.36228130  0.51464966  0.73971112  1
  H+  H85  1  0.82057920  0.53728028  0.74496606  1
  H+  H86  1  0.84397533  0.82065680  0.27503833  1
  H+  H87  1  0.62685649  0.16023101  -0.01512912  1
  H+  H88  1  0.54801098  0.45060172  0.84955738  1
  H+  H89  1  0.96618976  0.81168186  0.97751771  1
  H+  H90  1  0.16326713  0.14807592  0.25177344  1
  H+  H91  1  0.48332550  0.84975121  0.51067262  1
  H+  H92  1  0.28293375  0.16802609  0.47775888  1
  H+  H93  1  0.55207351  0.11214687  0.40385229  1
  H+  H94  1  0.16628992  1.03324025  0.76499921  1
  H+  H95  1  0.50793784  1.03946646  0.26538196  1
  H+  H96  1  0.52558519  0.38908814  0.48491566  1
  H+  H97  1  0.22363279  0.44239710  0.89123821  1
  H+  H98  1  0.03509033  0.83331607  0.73088514  1
  H+  H99  1  0.80635129  0.31782780  0.23457787  1
  H+  H100  1  1.01550525  0.17775318  0.23246192  1
  H+  H101  1  0.86715495  0.41457360  0.76244509  1
  H+  H102  1  0.64626839  0.50229330  0.48702813  1
  H+  H103  1  0.43692838  0.22695396  0.15488998  1
  H+  H104  1  0.47620043  0.85884253  0.24267071  1
  H+  H105  1  0.48892823  0.53386010  0.51295752  1
  H+  H106  1  0.18977408  0.69475648  0.76014855  1
  H+  H107  1  0.18812426  0.49143939  0.97818390  1
  H+  H108  1  0.78223963  0.55620521  0.09446608  1
  H+  H109  1  0.89088289  0.78029876  0.39469637  1
  H+  H110  1  0.22648150  0.47095823  0.35044592  1
  H+  H111  1  0.93682927  0.08551471  0.41504281  1
  H+  H112  1  0.43571716  0.88637058  0.63756086  1
  H+  H113  1  0.15676655  0.84380769  0.74140060  1
  H+  H114  1  0.20343860  0.12620161  0.38895145  1
  H+  H115  1  0.21381196  0.11303979  0.90366922  1
  H+  H116  1  0.21293043  0.78182831  0.34230842  1
  H+  H117  1  0.89190725  0.46404610  0.87179071  1
  H+  H118  1  0.75752547  0.19045156  0.63296830  1
  H+  H119  1  0.41993187  0.18917502  0.66821634  1
  H+  H120  1  0.51062662  0.70272833  0.49756305  1
  H+  H121  1  0.44240523  0.56803193  0.14199617  1
  H+  H122  1  0.86362270  0.13728646  0.33347964  1
  H+  H123  1  0.48878118  0.52918616  0.00414584  1
  H+  H124  1  0.28694654  0.15531876  0.25726085  1
  H+  H125  1  0.44684381  0.56525471  0.60616897  1
  H+  H126  1  0.34328040  0.15759155  0.75759453  1
  H+  H127  1  0.84585728  0.70239087  0.25855047  1
  H+  H128  1  0.10109378  0.22075200  0.14881435  1
  H+  H129  1  0.89178781  0.45309591  0.34649114  1
  H+  H130  1  0.63606708  0.15254501  0.48976073  1
  H+  H131  1  0.87977947  0.10387542  0.85223258  1
  H+  H132  1  0.55757772  0.46039335  0.33786017  1
  H+  H133  1  0.10530526  0.88420042  0.09209729  1
  H+  H134  1  0.14841801  0.92570186  0.60293644  1
  H+  H135  1  0.53487271  0.77569325  0.34761463  1
  H+  H136  1  0.82725623  0.91402991  0.63702508  1
  H+  H137  1  0.54315879  0.10637277  0.89800177  1
  H+  H138  1  0.75865870  0.23983374  0.14395624  1
  H+  H139  1  0.44551207  0.90419498  0.10061809  1
  H+  H140  1  0.77802336  0.56283851  0.59786082  1
  H+  H141  1  0.10945945  0.23111074  0.61966435  1
  H+  H142  1  0.52629381  0.83713112  -0.00737872  1
  H+  H143  1  0.95256730  0.42637355  0.96160975  1
  O2-  O144  1  0.09596581  0.20637273  0.21551768  1
  O2-  O145  1  0.12278300  0.22720607  0.71352857  1
  O2-  O146  1  0.10478716  0.56147425  0.21148070  1
  O2-  O147  1  0.11617617  0.56080766  0.72893763  1
  O2-  O148  1  0.10525755  0.89218474  0.21146355  1
  O2-  O149  1  0.11582190  0.88368370  0.71802653  1
  O2-  O150  1  0.43552268  0.23107501  0.22310938  1
  O2-  O151  1  0.42285357  0.18243412  0.73505075  1
  O2-  O152  1  0.44257961  0.56925502  0.21029928  1
  O2-  O153  1  0.44313045  0.55945087  0.71746771  1
  O2-  O154  1  0.44036079  0.90411333  0.22049105  1
  O2-  O155  1  0.43341278  0.88299645  0.70822722  1
  O2-  O156  1  0.75926448  0.23728651  0.21214884  1
  O2-  O157  1  0.74366577  0.17731048  0.70061544  1
  O2-  O158  1  0.77861404  0.56478782  0.21299807  1
  O2-  O159  1  0.76977565  0.56066770  0.71239144  1
  O2-  O160  1  0.77359589  0.88830189  0.28287971  1
  O2-  O161  1  0.86929414  0.93193287  0.69826304  1
  O2-  O162  1  0.20635187  0.11024927  0.27869677  1
  O2-  O163  1  0.20859181  0.11262422  0.78706161  1
  O2-  O164  1  0.22388348  0.47882806  0.28375758  1
  O2-  O165  1  0.22203271  0.42978631  0.77868256  1
  O2-  O166  1  0.21537494  0.78349483  0.27446719  1
  O2-  O167  1  0.23292284  0.77918957  0.77719252  1
  O2-  O168  1  0.54571975  0.11926939  0.29074787  1
  O2-  O169  1  0.52450795  0.07749460  0.77798935  1
  O2-  O170  1  0.55618400  0.45698481  0.27032750  1
  O2-  O171  1  0.54496518  0.45344027  0.78217046  1
  O2-  O172  1  0.53870061  0.78330498  0.28020798  1
  O2-  O173  1  0.60525011  0.75765505  0.79533922  1
  O2-  O174  1  0.86593391  0.12581716  0.26802158  1
  O2-  O175  1  0.88108736  0.09986974  0.78334921  1
  O2-  O176  1  0.88802279  0.45436804  0.27879616  1
  O2-  O177  1  0.90186877  0.48785744  0.79314172  1
  O2-  O178  1  0.88960879  0.78065246  0.28566169  1
  O2-  O179  1  0.79336979  0.75682124  0.79312631  1
  O2-  O180  1  0.20237442  0.13120397  0.45801300  1
  O2-  O181  1  0.21670698  0.11516708  0.97206647  1
  O2-  O182  1  0.22036700  0.45505323  0.47786744  1
  O2-  O183  1  0.22780693  0.44983259  0.96012312  1
  O2-  O184  1  0.21787925  0.77736654  0.46509585  1
  O2-  O185  1  0.23645123  0.79199819  0.96093412  1
  O2-  O186  1  0.55374208  0.10934972  0.47256701  1
  O2-  O187  1  0.54453462  0.11677470  0.96516966  1
  O2-  O188  1  0.56573905  0.46749825  0.46248617  1
  O2-  O189  1  0.55223031  0.44783528  0.97255948  1
  O2-  O190  1  0.54834008  0.78277300  0.47170128  1
  O2-  O191  1  0.57018369  0.79990369  0.97216267  1
  O2-  O192  1  0.90795020  0.10809872  0.46749510  1
  O2-  O193  1  0.88449669  0.12385847  0.96618970  1
  O2-  O194  1  0.88806900  0.44222944  0.46992731  1
  O2-  O195  1  0.88805947  0.43957341  0.95526108  1
  O2-  O196  1  0.89042336  0.78297887  0.46453118  1
  O2-  O197  1  0.88403943  0.77315267  0.95940710  1
  O2-  O198  1  0.10558027  0.23069532  0.02868350  1
  O2-  O199  1  0.09993483  0.23659161  0.54529185  1
  O2-  O200  1  0.11952261  0.57480629  0.03034140  1
  O2-  O201  1  0.10424683  0.55352664  0.54015748  1
  O2-  O202  1  0.10657517  0.88588244  0.02394273  1
  O2-  O203  1  0.17484487  0.93847538  0.53861321  1
  O2-  O204  1  0.43604410  0.22570377  0.03746190  1
  O2-  O205  1  0.39648653  0.15805185  0.54551715  1
  O2-  O206  1  0.44971959  0.57169622  0.02450720  1
  O2-  O207  1  0.44570508  0.56976406  0.53698341  1
  O2-  O208  1  0.44713486  0.90330450  0.03250327  1
  O2-  O209  1  0.44236941  0.89064568  0.53349187  1
  O2-  O210  1  0.76038752  0.23059917  0.02591506  1
  O2-  O211  1  0.78197788  0.22013074  0.52052832  1
  O2-  O212  1  0.78041619  0.55430162  0.02629880  1
  O2-  O213  1  0.77994898  0.56015032  0.52917796  1
  O2-  O214  1  0.80004654  0.91332089  0.03604508  1
  O2-  O215  1  0.77995053  0.89107179  0.53482855  1
