# generated using pymatgen
data_H2O
_symmetry_space_group_name_H-M   'P 1'
_cell_length_a   13.52905859
_cell_length_b   13.53152882
_cell_length_c   14.70013343
_cell_angle_alpha   89.94164871
_cell_angle_beta   89.99258314
_cell_angle_gamma   120.00066987
_symmetry_Int_Tables_number   1
_chemical_formula_structural   H2O
_chemical_formula_sum   'H144 O72'
_cell_volume   2330.57497203
_cell_formula_units_Z   72
loop_
 _symmetry_equiv_pos_site_id
 _symmetry_equiv_pos_as_xyz
  1  'x, y, z'
loop_
 _atom_type_symbol
 _atom_type_oxidation_number
  H+  1.0
  O2-  -2.0
loop_
 _atom_site_type_symbol
 _atom_site_label
 _atom_site_symmetry_multiplicity
 _atom_site_fract_x
 _atom_site_fract_y
 _atom_site_fract_z
 _atom_site_occupancy
  H+  H0  1  0.62557346  0.49573455  0.76491694  1
  H+  H1  1  0.20262217  0.74713926  0.29757994  1
  H+  H2  1  0.45408363  0.57866992  0.33201944  1
  H+  H3  1  0.86212390  0.81854349  0.49067262  1
  H+  H4  1  0.70023694  0.85474547  0.00207185  1
  H+  H5  1  0.79039904  0.56188685  -0.12694953  1
  H+  H6  1  0.17271651  0.65571787  -0.01456934  1
  H+  H7  1  0.04172953  0.20120781  0.52262063  1
  H+  H8  1  0.19026120  0.35670108  0.79933619  1
  H+  H9  1  0.05456566  0.86157881  0.00833425  1
  H+  H10  1  0.71046607  0.85528204  0.51401620  1
  H+  H11  1  0.51301826  0.37076799  0.74989440  1
  H+  H12  1  0.86309950  0.70810846  0.97523898  1
  H+  H13  1  0.81001991  0.30271816  0.50386595  1
  H+  H14  1  0.32622775  0.82199973  0.98127534  1
  H+  H15  1  0.49449018  0.26589858  0.99225347  1
  H+  H16  1  0.52455241  0.70993510  0.97664304  1
  H+  H17  1  0.62720115  0.48223461  0.57398073  1
  H+  H18  1  0.00088850  0.17308602  0.78278054  1
  H+  H19  1  0.64599690  0.11064631  -0.02634212  1
  H+  H20  1  0.35673849  0.85538200  0.20966874  1
  H+  H21  1  0.86110267  0.65033326  0.55088494  1
  H+  H22  1  0.84555781  0.15869199  0.48840428  1
  H+  H23  1  0.62775587  0.15166840  0.25372230  1
  H+  H24  1  0.50917025  0.99634752  0.50251851  1
  H+  H25  1  0.78117280  0.89034376  0.35325577  1
  H+  H26  1  0.51610575  0.45701031  0.98227835  1
  H+  H27  1  0.19991304  0.82177949  0.99132997  1
  H+  H28  1  0.49070379  0.13935591  0.49523205  1
  H+  H29  1  0.11779624  0.55698051  0.60976103  1
  H+  H30  1  0.51123719  0.82298551  0.98227531  1
  H+  H31  1  0.17077431  0.19014273  0.74920216  1
  H+  H32  1  0.14713168  0.85437205  0.74876694  1
  H+  H33  1  0.19024260  0.38733024  0.49991215  1
  H+  H34  1  0.46853644  0.63705302  0.72242599  1
  H+  H35  1  0.31890346  0.82502053  0.53402364  1
  H+  H36  1  0.15771022  0.52672381  0.51675316  1
  H+  H37  1  0.85947581  0.82303689  -0.00073121  1
  H+  H38  1  0.80474943  0.29890929  0.23286163  1
  H+  H39  1  0.53010249  0.83591777  0.47572339  1
  H+  H40  1  0.81113299  0.63103312  0.23679056  1
  H+  H41  1  -0.02467644  0.48027555  -0.02786443  1
  H+  H42  1  0.17396937  0.55908537  0.04998340  1
  H+  H43  1  0.65063788  0.51457931  0.53054844  1
  H+  H44  1  0.42519781  0.53961310  -0.10030803  1
  H+  H45  1  0.52256489  0.71335015  0.47052664  1
  H+  H46  1  0.98066344  0.82144923  0.49160280  1
  H+  H47  1  0.31656617  0.33085782  0.29151125  1
  H+  H48  1  0.82744798  0.27890147  -0.00914461  1
  H+  H49  1  0.22750326  0.11845787  0.84425140  1
  H+  H50  1  0.17134664  0.03859937  0.50185970  1
  H+  H51  1  0.68760423  0.18622554  0.49552874  1
  H+  H52  1  1.02939671  0.84183456  0.23482682  1
  H+  H53  1  0.08607496  0.65023683  0.18654930  1
  H+  H54  1  0.29412353  0.83216295  0.76719121  1
  H+  H55  1  0.79932963  0.90715967  0.59814952  1
  H+  H56  1  0.85900311  0.53337254  0.55287472  1
  H+  H57  1  0.81021021  0.27775001  0.72921251  1
  H+  H58  1  0.45601771  0.57462084  0.57925069  1
  H+  H59  1  0.88634424  0.14443010  0.92905627  1
  H+  H60  1  0.11391985  0.46292543  0.26806899  1
  H+  H61  1  0.63098105  0.15436170  0.75297058  1
  H+  H62  1  1.01710590  0.16962100  0.23479197  1
  H+  H63  1  0.85418147  0.04457875  0.48968508  1
  H+  H64  1  0.47752347  0.99812508  0.74779916  1
  H+  H65  1  0.84881539  0.80659767  0.27052436  1
  H+  H66  1  0.14499556  0.96385794  0.25049058  1
  H+  H67  1  0.51669362  0.99445786  0.97131944  1
  H+  H68  1  0.48892273  0.19389694  0.74484065  1
  H+  H69  1  0.46645839  0.34311743  0.45645478  1
  H+  H70  1  0.97645654  0.48482146  0.49704218  1
  H+  H71  1  0.84628013  0.04155464  0.27290445  1
  H+  H72  1  -0.02259036  0.84085621  0.77020445  1
  H+  H73  1  0.15852241  0.86037032  0.53238708  1
  H+  H74  1  0.84100850  0.88141819  0.73996244  1
  H+  H75  1  0.29563280  0.14494173  0.50009867  1
  H+  H76  1  0.80855784  0.18409390  0.23680268  1
  H+  H77  1  0.20447345  0.04725894  0.97533985  1
  H+  H78  1  0.15147535  0.11611185  0.26689317  1
  H+  H79  1  0.47968790  0.52494782  0.72042752  1
  H+  H80  1  0.15169321  0.26174873  0.22976205  1
  H+  H81  1  0.13059775  0.27673123  0.00117339  1
  H+  H82  1  0.70670617  0.50908662  0.95563467  1
  H+  H83  1  0.83993304  0.99738601  0.73634233  1
  H+  H84  1  0.17101034  0.64625229  0.75189860  1
  H+  H85  1  0.75181456  0.20739814  0.63999121  1
  H+  H86  1  0.17521922  0.14729023  0.97507785  1
  H+  H87  1  0.50562587  0.03881392  0.24919381  1
  H+  H88  1  -0.01088109  0.46005924  0.74961223  1
  H+  H89  1  0.50400240  0.15360832  1.00029609  1
  H+  H90  1  0.17020356  0.81903290  0.22976354  1
  H+  H91  1  0.93417473  0.48695026  0.24422232  1
  H+  H92  1  0.10344051  0.89589304  0.60988197  1
  H+  H93  1  0.31006264  0.15874107  0.75423939  1
  H+  H94  1  0.78401873  0.55135654  0.14996060  1
  H+  H95  1  0.47106362  0.51979473  0.48553252  1
  H+  H96  1  0.18758593  0.53666198  0.75919723  1
  H+  H97  1  0.56001035  0.10844365  0.84896283  1
  H+  H98  1  0.16972957  0.51312336  0.25342713  1
  H+  H99  1  0.52419035  0.72593736  0.24958728  1
  H+  H100  1  0.14855019  0.45406665  0.93268353  1
  H+  H101  1  0.48995807  0.19642989  0.22949782  1
  H+  H102  1  0.47924828  0.81481492  0.76226025  1
  H+  H103  1  0.62213658  0.48112791  0.23789547  1
  H+  H104  1  0.47999663  0.86724611  0.21997538  1
  H+  H105  1  0.19614497  0.70989457  0.53760612  1
  H+  H106  1  0.90480142  0.81306671  0.86217150  1
  H+  H107  1  0.81286925  0.67032967  0.76871373  1
  H+  H108  1  0.09990469  0.19994202  0.09203222  1
  H+  H109  1  0.15744203  0.19839742  0.52125663  1
  H+  H110  1  0.40819272  0.91642086  0.66258344  1
  H+  H111  1  0.32292551  0.44362927  0.25974605  1
  H+  H112  1  0.12903889  0.24305071  0.66935824  1
  H+  H113  1  0.15734596  0.97895613  0.74463034  1
  H+  H114  1  0.89139143  0.13167106  0.35166286  1
  H+  H115  1  0.33015320  0.89341877  0.38219610  1
  H+  H116  1  0.79147095  0.20331784  0.07872404  1
  H+  H117  1  0.80315833  0.57432174  0.70271939  1
  H+  H118  1  0.90557537  0.41591954  0.83347379  1
  H+  H119  1  0.30464988  0.50641661  0.48960639  1
  H+  H120  1  0.55591936  0.80670034  0.33374346  1
  H+  H121  1  0.70089204  0.85862617  0.26861507  1
  H+  H122  1  0.21752070  0.78140321  0.85553944  1
  H+  H123  1  0.79659227  0.93640479  0.07230013  1
  H+  H124  1  0.50514764  0.41596850  0.36433205  1
  H+  H125  1  0.35382163  0.50659330  -0.01394520  1
  H+  H126  1  0.81686987  0.46554907  0.27164258  1
  H+  H127  1  0.44169625  0.21303268  0.64964218  1
  H+  H128  1  0.54100744  0.11425761  0.39665905  1
  H+  H129  1  0.19809596  0.09287688  0.36117300  1
  H+  H130  1  0.44178031  0.88536535  0.06955858  1
  H+  H131  1  0.50556810  0.35805931  0.22420427  1
  H+  H132  1  0.34171495  0.84460264  0.38438347  1
  H+  H133  1  0.03312380  0.56570506  0.10447115  1
  H+  H134  1  0.54583530  0.42376346  0.88901214  1
  H+  H135  1  0.36583119  0.07842414  0.57116185  1
  H+  H136  1  0.53224793  0.93346687  0.58610459  1
  H+  H137  1  0.13153405  0.90237979  0.09581561  1
  H+  H138  1  0.53207228  0.77892890  0.84375772  1
  H+  H139  1  0.85664695  0.47686036  0.95546069  1
  H+  H140  1  0.89418744  0.76234897  0.34993496  1
  H+  H141  1  0.46001769  0.21918604  0.12952390  1
  H+  H142  1  0.89491378  0.45071845  0.40899512  1
  H+  H143  1  0.49559318  0.53171723  0.25257003  1
  O2-  O144  1  0.09095205  0.18528049  0.20737340  1
  O2-  O145  1  0.13189987  0.23733469  0.73701500  1
  O2-  O146  1  0.01302011  0.58636094  0.16273743  1
  O2-  O147  1  0.14291685  0.56649736  0.72917697  1
  O2-  O148  1  0.11045642  0.88717997  0.21546258  1
  O2-  O149  1  0.10919532  0.89690790  0.72531692  1
  O2-  O150  1  0.45824590  0.23813113  0.19615640  1
  O2-  O151  1  0.44949292  0.23280971  0.71716988  1
  O2-  O152  1  0.45803376  0.57918788  0.26566739  1
  O2-  O153  1  0.44451126  0.56435437  0.68882379  1
  O2-  O154  1  0.43924268  0.90626968  0.19701635  1
  O2-  O155  1  0.42783610  0.91419540  0.72609269  1
  O2-  O156  1  0.76730294  0.21981328  0.20772337  1
  O2-  O157  1  0.74937453  0.20158832  0.70721728  1
  O2-  O158  1  0.76458949  0.55030121  0.21389553  1
  O2-  O159  1  0.77187608  0.58505813  0.76113693  1
  O2-  O160  1  0.78364483  0.89161593  0.28675008  1
  O2-  O161  1  0.81063017  0.92367876  0.70493298  1
  O2-  O162  1  0.19181967  0.07886808  0.29432643  1
  O2-  O163  1  0.22796689  0.11725859  0.77354657  1
  O2-  O164  1  0.26882698  0.36295280  0.27443961  1
  O2-  O165  1  0.22709514  0.43502241  0.82950939  1
  O2-  O166  1  0.20526964  0.76641279  0.23349682  1
  O2-  O167  1  0.21300253  0.78205914  0.78670907  1
  O2-  O168  1  0.54856832  0.11535162  0.27894021  1
  O2-  O169  1  0.55105376  0.11889876  0.78144540  1
  O2-  O170  1  0.53938083  0.43996946  0.25233222  1
  O2-  O171  1  0.54217168  0.44794185  0.77845423  1
  O2-  O172  1  0.56125877  0.80866156  0.26527847  1
  O2-  O173  1  0.50461448  0.76080344  0.77980954  1
  O2-  O174  1  0.88469855  0.12518505  0.28338808  1
  O2-  O175  1  0.91757025  0.13685222  0.80150245  1
  O2-  O176  1  0.86924121  0.43611019  0.28534878  1
  O2-  O177  1  0.90816816  0.41118286  0.76643757  1
  O2-  O178  1  0.88729739  0.76143878  0.28165556  1
  O2-  O179  1  0.89772967  0.80926834  0.79421872  1
  O2-  O180  1  0.21422276  0.11831412  0.47795469  1
  O2-  O181  1  0.22455072  0.12046183  0.94583370  1
  O2-  O182  1  0.22181619  0.46556920  0.47519898  1
  O2-  O183  1  0.18953997  0.41101552  0.92492770  1
  O2-  O184  1  0.23689939  0.79508229  0.54258483  1
  O2-  O185  1  0.23371315  0.77757419  0.96423898  1
  O2-  O186  1  0.54622179  0.11368876  0.46446925  1
  O2-  O187  1  0.56652975  0.08032990  0.95272298  1
  O2-  O188  1  0.47056936  0.40882825  0.42597218  1
  O2-  O189  1  0.55811210  0.42157097  0.95669845  1
  O2-  O190  1  0.56619618  0.79441173  0.44754741  1
  O2-  O191  1  0.56520825  0.79184053  0.96235013  1
  O2-  O192  1  0.89289866  0.12477331  0.46703085  1
  O2-  O193  1  0.91924039  0.10401974  0.89563744  1
  O2-  O194  1  0.89496856  0.44539903  0.47634964  1
  O2-  O195  1  0.89509421  0.42981945  0.95464923  1
  O2-  O196  1  0.90049685  0.77730442  0.46721890  1
  O2-  O197  1  0.90902243  0.79264404  0.97635548  1
  O2-  O198  1  0.09950372  0.19892957  0.02414245  1
  O2-  O199  1  0.12055896  0.24085838  0.54698520  1
  O2-  O200  1  0.12932689  0.56709738  0.00154732  1
  O2-  O201  1  0.11390879  0.56353943  0.54260916  1
  O2-  O202  1  0.13562072  0.89913537  0.02839979  1
  O2-  O203  1  0.10961049  0.89587636  0.54168801  1
  O2-  O204  1  0.46390012  0.19272423  0.02475755  1
  O2-  O205  1  0.40914474  0.15608006  0.54724024  1
  O2-  O206  1  0.43355286  0.54450398  -0.03413119  1
  O2-  O207  1  0.45487216  0.57900432  0.50996127  1
  O2-  O208  1  0.43870021  0.87385356  0.00329248  1
  O2-  O209  1  0.48445964  0.91710740  0.53225850  1
  O2-  O210  1  0.79801350  0.19938151  0.01187433  1
  O2-  O211  1  0.76735308  0.21943952  0.51913744  1
  O2-  O212  1  0.79015600  0.55551892  -0.05881218  1
  O2-  O213  1  0.85515865  0.59040037  0.59234897  1
  O2-  O214  1  0.78090924  0.88356529  0.02257546  1
  O2-  O215  1  0.79272866  0.89844965  0.52866070  1
