# generated using pymatgen
data_H2O
_symmetry_space_group_name_H-M   'P 1'
_cell_length_a   13.52362937
_cell_length_b   13.53831697
_cell_length_c   14.71090462
_cell_angle_alpha   90.08441056
_cell_angle_beta   90.00537248
_cell_angle_gamma   120.07726603
_symmetry_Int_Tables_number   1
_chemical_formula_structural   H2O
_chemical_formula_sum   'H144 O72'
_cell_volume   2330.71201917
_cell_formula_units_Z   72
loop_
 _symmetry_equiv_pos_site_id
 _symmetry_equiv_pos_as_xyz
  1  'x, y, z'
loop_
 _atom_type_symbol
 _atom_type_oxidation_number
  H+  1.0
  O2-  -2.0
loop_
 _atom_site_type_symbol
 _atom_site_label
 _atom_site_symmetry_multiplicity
 _atom_site_fract_x
 _atom_site_fract_y
 _atom_site_fract_z
 _atom_site_occupancy
  H+  H0  1  0.51333597  0.70397659  0.75142967  1
  H+  H1  1  0.22311138  0.09432477  0.37077369  1
  H+  H2  1  0.92946861  0.93493973  0.67633567  1
  H+  H3  1  0.18121783  0.69214633  0.74404834  1
  H+  H4  1  0.36223972  0.84918762  0.72055645  1
  H+  H5  1  0.48888688  0.14727482  0.25406792  1
  H+  H6  1  0.84611361  0.01582978  0.46572172  1
  H+  H7  1  0.20143067  0.18741939  -0.01021943  1
  H+  H8  1  0.90429996  0.45319438  0.36578233  1
  H+  H9  1  1.01520719  0.17494143  1.00617638  1
  H+  H10  1  0.63081487  0.15896113  0.48973734  1
  H+  H11  1  0.97276878  0.82141052  0.24627977  1
  H+  H12  1  0.48014486  0.30762627  0.53056855  1
  H+  H13  1  0.48392753  0.50589228  0.52985981  1
  H+  H14  1  0.83770788  0.14099343  0.99815304  1
  H+  H15  1  0.15419609  0.28973126  0.23104935  1
  H+  H16  1  0.48340915  0.85209560  0.72192817  1
  H+  H17  1  0.85496516  0.03115300  0.23317326  1
  H+  H18  1  0.14846536  0.63721154  0.02142379  1
  H+  H19  1  0.47113304  0.51104687  0.21458921  1
  H+  H20  1  0.16934559  0.48789910  0.00402578  1
  H+  H21  1  0.97978799  0.47404071  0.98951911  1
  H+  H22  1  0.12711158  0.41872060  0.29275188  1
  H+  H23  1  0.14552957  0.84551853  0.72595488  1
  H+  H24  1  0.47811734  0.18816338  0.74690529  1
  H+  H25  1  0.29935817  0.49126063  0.77267658  1
  H+  H26  1  0.04433696  0.53588555  0.26229151  1
  H+  H27  1  0.27152256  0.45761047  1.00294601  1
  H+  H28  1  0.52518461  0.56465438  0.20090300  1
  H+  H29  1  0.69676056  0.84272688  0.49824419  1
  H+  H30  1  0.77105691  0.19090147  0.64363035  1
  H+  H31  1  0.85313600  0.81583473  0.24146462  1
  H+  H32  1  0.56310801  0.64475525  -0.03438246  1
  H+  H33  1  0.39965317  0.40293345  0.00544137  1
  H+  H34  1  0.78779560  0.70885934  0.35877590  1
  H+  H35  1  0.90748472  0.27130659  0.56081564  1
  H+  H36  1  0.63701056  0.48111616  0.52267653  1
  H+  H37  1  0.87203935  0.68748224  0.96685209  1
  H+  H38  1  0.88097009  0.10881998  0.90577569  1
  H+  H39  1  0.84127603  0.18719716  0.23798371  1
  H+  H40  1  0.56306525  0.89195948  0.95619791  1
  H+  H41  1  0.48349208  0.26376050  0.13674392  1
  H+  H42  1  0.35963343  0.85355173  -0.02314635  1
  H+  H43  1  0.56729347  0.78033477  0.95156860  1
  H+  H44  1  0.42387559  0.67438840  0.25616029  1
  H+  H45  1  0.47744150  0.62070863  0.53493096  1
  H+  H46  1  0.70351310  0.85484122  0.22658323  1
  H+  H47  1  0.46128445  0.98311274  -0.01032001  1
  H+  H48  1  0.81743186  0.51944656  0.53434368  1
  H+  H49  1  0.50202129  0.80524760  0.49549879  1
  H+  H50  1  0.14916269  0.27383213  0.50973545  1
  H+  H51  1  0.52570067  0.84865925  0.23896531  1
  H+  H52  1  0.12565336  0.30111031  1.00303589  1
  H+  H53  1  0.16974203  0.79752422  0.49399917  1
  H+  H54  1  0.47629875  0.97405988  0.21287847  1
  H+  H55  1  0.84865446  0.51248806  0.98467563  1
  H+  H56  1  0.86041014  0.35698903  0.98769083  1
  H+  H57  1  0.33320315  0.21092602  0.98863432  1
  H+  H58  1  0.14894827  0.94678567  0.48455673  1
  H+  H59  1  0.01953705  0.81655621  0.72337505  1
  H+  H60  1  -0.02073258  0.14710728  0.23525708  1
  H+  H61  1  0.83821145  0.51971739  0.25165045  1
  H+  H62  1  0.86882383  0.03414102  0.76641586  1
  H+  H63  1  0.32536006  0.17113243  0.22891237  1
  H+  H64  1  0.18414243  0.12481671  0.46301814  1
  H+  H65  1  0.30701653  0.83713346  0.22943526  1
  H+  H66  1  0.18534072  0.73700576  0.25712939  1
  H+  H67  1  0.72819861  0.19247284  0.25675828  1
  H+  H68  1  0.15967003  0.87169532  0.22503733  1
  H+  H69  1  0.52388421  0.36845193  0.76936768  1
  H+  H70  1  1.04106356  0.18982386  0.76367261  1
  H+  H71  1  0.73822306  0.86629348  -0.00469111  1
  H+  H72  1  0.32157751  0.18422596  0.76411131  1
  H+  H73  1  0.79135508  0.89720281  0.57567507  1
  H+  H74  1  0.14485062  0.62756335  0.51597838  1
  H+  H75  1  0.18322129  0.58534813  0.25389011  1
  H+  H76  1  0.48240538  0.51567007  0.76319484  1
  H+  H77  1  0.85293757  0.97299784  0.01165145  1
  H+  H78  1  0.28856932  0.79696106  0.49517150  1
  H+  H79  1  0.83469588  0.72786137  0.83947763  1
  H+  H80  1  0.14330105  0.50593781  0.51822001  1
  H+  H81  1  0.46006239  0.18175029  0.52738727  1
  H+  H82  1  0.10468998  0.55180206  0.65182370  1
  H+  H83  1  0.81891048  0.83793993  0.72154599  1
  H+  H84  1  0.56307394  0.43781399  1.04274712  1
  H+  H85  1  0.51155275  0.63504355  0.93760699  1
  H+  H86  1  0.19157311  0.18469934  0.76999836  1
  H+  H87  1  0.69706429  0.19347405  0.02400150  1
  H+  H88  1  0.70092413  0.54765480  0.76474452  1
  H+  H89  1  -0.05738200  0.48459437  0.74566431  1
  H+  H90  1  0.50413565  1.02716055  0.74866776  1
  H+  H91  1  0.67221784  0.47953420  0.28210132  1
  H+  H92  1  0.74410439  0.64911545  0.45102178  1
  H+  H93  1  0.87106870  0.80589711  0.97273430  1
  H+  H94  1  0.29859715  0.47137481  0.51200966  1
  H+  H95  1  0.04778009  0.84792844  -0.00560448  1
  H+  H96  1  0.52089624  0.31892866  0.23973072  1
  H+  H97  1  0.20164073  0.16157583  0.22892930  1
  H+  H98  1  0.26019790  0.48429143  0.27372277  1
  H+  H99  1  0.48430701  -0.03573069  0.50083151  1
  H+  H100  1  0.14377531  0.51861145  0.74442630  1
  H+  H101  1  0.69367628  0.16827792  0.73095518  1
  H+  H102  1  0.87697489  0.37532260  0.27495064  1
  H+  H103  1  0.85356764  0.36881599  0.49224202  1
  H+  H104  1  0.15512309  0.31352644  0.75977172  1
  H+  H105  1  0.53355354  0.11399299  1.07968526  1
  H+  H106  1  1.03616833  0.15929894  0.48566392  1
  H+  H107  1  0.16944252  0.81425595  0.98967235  1
  H+  H108  1  0.54641973  0.10337871  0.83861812  1
  H+  H109  1  0.78751836  0.57804621  0.61731941  1
  H+  H110  1  0.55965631  0.42835434  0.86518698  1
  H+  H111  1  0.10792267  0.56496963  0.11418641  1
  H+  H112  1  0.57251229  0.44026558  0.42856784  1
  H+  H113  1  0.10807998  0.88264163  0.57956144  1
  H+  H114  1  0.45103433  0.90090640  0.11825461  1
  H+  H115  1  0.89383804  0.09853014  0.37592968  1
  H+  H116  1  0.36604604  0.60720649  0.16681960  1
  H+  H117  1  0.82442753  0.62884949  0.23867076  1
  H+  H118  1  0.78561621  0.88381751  0.13850567  1
  H+  H119  1  0.55873330  0.48194951  0.29818726  1
  H+  H120  1  0.15643589  0.98561540  0.21475047  1
  H+  H121  1  0.87049489  0.43474550  0.83134813  1
  H+  H122  1  0.84663249  0.13902032  0.76261654  1
  H+  H123  1  0.96937108  0.48729689  0.50105586  1
  H+  H124  1  0.11439292  0.22256832  0.13349921  1
  H+  H125  1  0.84742762  0.17552422  0.48897696  1
  H+  H126  1  0.58527372  0.81671413  0.81092115  1
  H+  H127  1  0.24891580  0.15532820  0.86421691  1
  H+  H128  1  0.23971157  0.78367606  0.82540736  1
  H+  H129  1  0.13489929  0.71651644  0.91387369  1
  H+  H130  1  0.58082414  0.84846581  0.33344694  1
  H+  H131  1  0.40744744  0.03784281  0.31018311  1
  H+  H132  1  0.54665125  0.11810236  0.40509886  1
  H+  H133  1  0.78413602  0.23032049  0.10738295  1
  H+  H134  1  0.11793634  0.88749881  0.08933524  1
  H+  H135  1  0.44584333  0.88964511  0.59051756  1
  H+  H136  1  0.21270373  0.45415100  0.85746143  1
  H+  H137  1  0.45489948  0.53128049  0.02760277  1
  H+  H138  1  0.51958047  0.19217207  1.00916747  1
  H+  H139  1  0.51694964  0.72553028  0.42153660  1
  H+  H140  1  0.44212307  0.23426161  0.65852803  1
  H+  H141  1  0.22050690  0.42801769  0.42285247  1
  H+  H142  1  0.73214398  0.51113622  -0.01093185  1
  H+  H143  1  0.43997855  0.54325648  0.67043793  1
  O2-  O144  1  0.11649788  0.21346661  0.20177828  1
  O2-  O145  1  0.12230782  0.23111378  0.74385288  1
  O2-  O146  1  0.11798826  0.58803516  0.22832859  1
  O2-  O147  1  0.10722176  0.56127628  0.71984854  1
  O2-  O148  1  0.11146761  0.90260735  0.19909102  1
  O2-  O149  1  0.09607823  0.87666136  0.70722322  1
  O2-  O150  1  0.47698451  0.24577914  0.20400039  1
  O2-  O151  1  0.44456308  0.23625547  0.72932932  1
  O2-  O152  1  0.35044169  0.61345034  0.23060710  1
  O2-  O153  1  0.44026831  0.55222147  0.73829851  1
  O2-  O154  1  0.45423845  0.89812198  0.18593626  1
  O2-  O155  1  0.44461933  0.89652336  0.70271873  1
  O2-  O156  1  0.80209425  0.23412240  0.22655651  1
  O2-  O157  1  0.76904381  0.18296181  0.71008183  1
  O2-  O158  1  0.78444737  0.54421397  0.23070609  1
  O2-  O159  1  0.77573009  0.61179370  0.74158127  1
  O2-  O160  1  0.78390002  0.89296727  0.20615316  1
  O2-  O161  1  0.85161620  0.91457585  0.69284104  1
  O2-  O162  1  0.24473801  0.12282083  0.24798612  1
  O2-  O163  1  0.24133150  0.14815811  0.79307873  1
  O2-  O164  1  0.19532956  0.41203076  0.29898321  1
  O2-  O165  1  0.21664252  0.45395634  0.78972974  1
  O2-  O166  1  0.23723774  0.82029122  0.26286850  1
  O2-  O167  1  0.22708798  0.77773428  0.75954513  1
  O2-  O168  1  0.48626437  0.08046820  0.28812803  1
  O2-  O169  1  0.54288985  0.10805554  0.77275336  1
  O2-  O170  1  0.58979024  0.43152365  0.30841321  1
  O2-  O171  1  0.56286324  0.44568469  0.79992854  1
  O2-  O172  1  0.55826171  0.80799226  0.27533814  1
  O2-  O173  1  0.55286448  0.78883441  0.75019367  1
  O2-  O174  1  0.89787707  0.11193737  0.25661970  1
  O2-  O175  1  0.89311232  0.10954291  0.79432672  1
  O2-  O176  1  0.91731289  0.45502939  0.29784663  1
  O2-  O177  1  0.86311668  0.44823296  0.76680382  1
  O2-  O178  1  0.89061027  0.77338902  0.26296436  1
  O2-  O179  1  0.78146299  0.71178741  0.78576885  1
  O2-  O180  1  0.21758652  0.08006365  0.43672284  1
  O2-  O181  1  0.25468027  0.16472288  0.96313220  1
  O2-  O182  1  0.21792291  0.43384411  0.48958105  1
  O2-  O183  1  0.19841396  0.44068714  0.97363082  1
  O2-  O184  1  0.20685616  0.74921686  0.48087008  1
  O2-  O185  1  0.19711358  0.75930342  0.95706155  1
  O2-  O186  1  0.55039810  0.11490594  0.47215493  1
  O2-  O187  1  0.54491700  0.13074212  1.01472112  1
  O2-  O188  1  0.55821102  0.44139087  0.49484055  1
  O2-  O189  1  0.55796168  0.39080013  0.99033660  1
  O2-  O190  1  0.53882935  0.75704112  0.48256584  1
  O2-  O191  1  0.61295878  0.86157772  0.93680996  1
  O2-  O192  1  0.88951800  0.09829668  0.44335235  1
  O2-  O193  1  0.88127291  0.10502710  0.97439792  1
  O2-  O194  1  0.88815448  0.45072872  0.47661567  1
  O2-  O195  1  0.90425726  0.43337683  0.95891449  1
  O2-  O196  1  0.71782909  0.66870656  0.39550411  1
  O2-  O197  1  0.90609748  0.76725064  0.93968446  1
  O2-  O198  1  0.09810208  0.22156763  0.02497305  1
  O2-  O199  1  0.11377348  0.19015846  0.51116903  1
  O2-  O200  1  0.11073273  0.55810110  0.04665630  1
  O2-  O201  1  0.09985312  0.54359258  0.53832022  1
  O2-  O202  1  0.12520536  0.88076145  0.02138633  1
  O2-  O203  1  0.10922806  0.86955798  0.51366945  1
  O2-  O204  1  0.47304570  0.27322338  0.02471809  1
  O2-  O205  1  0.43427712  0.22953738  0.55738856  1
  O2-  O206  1  0.39109744  0.45653582  0.04498791  1
  O2-  O207  1  0.43804207  0.53960582  0.55486495  1
  O2-  O208  1  0.43873819  0.90167308  -0.00101772  1
  O2-  O209  1  0.44714163  0.88415852  0.52213515  1
  O2-  O210  1  0.77853067  0.22272624  0.03994550  1
  O2-  O211  1  0.83552603  0.23243417  0.52711020  1
  O2-  O212  1  0.81299602  0.55939951  0.00298055  1
  O2-  O213  1  0.77287407  0.55628668  0.55279742  1
  O2-  O214  1  0.81160070  0.88936172  0.02596940  1
  O2-  O215  1  0.77902153  0.89395862  0.50938627  1
