# generated using pymatgen
data_H2O
_symmetry_space_group_name_H-M   'P 1'
_cell_length_a   13.51893865
_cell_length_b   13.51063968
_cell_length_c   14.69404826
_cell_angle_alpha   89.99211907
_cell_angle_beta   89.96492900
_cell_angle_gamma   120.03438376
_symmetry_Int_Tables_number   1
_chemical_formula_structural   H2O
_chemical_formula_sum   'H144 O72'
_cell_volume   2323.48508083
_cell_formula_units_Z   72
loop_
 _symmetry_equiv_pos_site_id
 _symmetry_equiv_pos_as_xyz
  1  'x, y, z'
loop_
 _atom_type_symbol
 _atom_type_oxidation_number
  H+  1.0
  O2-  -2.0
loop_
 _atom_site_type_symbol
 _atom_site_label
 _atom_site_symmetry_multiplicity
 _atom_site_fract_x
 _atom_site_fract_y
 _atom_site_fract_z
 _atom_site_occupancy
  H+  H0  1  0.03198549  0.51932827  0.26205900  1
  H+  H1  1  0.50761617  0.69974317  0.48326190  1
  H+  H2  1  0.50887393  0.81780026  0.48354092  1
  H+  H3  1  0.97561043  0.17056080  0.98716657  1
  H+  H4  1  0.47965831  0.51353166  0.23665129  1
  H+  H5  1  0.95607769  0.13699165  0.75078934  1
  H+  H6  1  0.56880893  0.43961846  0.98085475  1
  H+  H7  1  0.47566128  0.30054019  0.75368642  1
  H+  H8  1  0.67812175  0.52001281  0.52860184  1
  H+  H9  1  0.61915037  0.81089634  0.73744158  1
  H+  H10  1  0.11489947  0.13547846  1.00825743  1
  H+  H11  1  0.19502171  0.04597882  -0.01388155  1
  H+  H12  1  0.49951184  0.17486284  0.02375982  1
  H+  H13  1  0.45107512  0.27554301  0.01536486  1
  H+  H14  1  0.83897491  0.68415230  0.26086211  1
  H+  H15  1  0.17451059  0.48818474  0.98167529  1
  H+  H16  1  0.13712809  0.50181343  0.72524447  1
  H+  H17  1  0.49287114  0.47629761  0.75044953  1
  H+  H18  1  -0.03618610  0.45766080  0.77048328  1
  H+  H19  1  0.12674855  0.50598971  0.49329904  1
  H+  H20  1  0.47906847  0.95748342  0.49293075  1
  H+  H21  1  0.78989109  0.24955437  0.46294747  1
  H+  H22  1  0.10912922  0.91801560  0.50762236  1
  H+  H23  1  0.37640945  0.82128811  0.22466970  1
  H+  H24  1  0.86809669  0.83129067  0.99296964  1
  H+  H25  1  0.86185037  0.37033005  0.28547713  1
  H+  H26  1  0.14675825  0.64108346  0.25431651  1
  H+  H27  1  0.48586554  0.63425963  0.23773849  1
  H+  H28  1  0.64411378  0.16850172  1.00859700  1
  H+  H29  1  0.89913587  0.73032996  0.99509007  1
  H+  H30  1  0.16890962  1.03216491  0.75275279  1
  H+  H31  1  0.26875551  0.83966027  0.28722263  1
  H+  H32  1  0.84441143  1.02283811  0.49546422  1
  H+  H33  1  0.50175821  0.39114516  0.49006947  1
  H+  H34  1  0.46404383  0.21140695  0.67833504  1
  H+  H35  1  0.69305450  0.84373506  0.51094130  1
  H+  H36  1  0.09380274  0.22478250  0.64909805  1
  H+  H37  1  0.67587675  0.51655944  0.75438600  1
  H+  H38  1  0.17750119  0.36083092  0.75354772  1
  H+  H39  1  0.80732849  0.83594369  0.51223934  1
  H+  H40  1  0.18698367  0.82279437  0.00272971  1
  H+  H41  1  0.94475995  0.78558441  0.49452011  1
  H+  H42  1  0.57604034  0.13253393  0.18839033  1
  H+  H43  1  0.28921990  0.14994434  0.25883843  1
  H+  H44  1  0.49909477  0.50639310  0.48424673  1
  H+  H45  1  0.00524171  0.49689546  0.48586758  1
  H+  H46  1  0.30065770  0.81485197  -0.00120031  1
  H+  H47  1  0.82857257  0.84891566  0.24363426  1
  H+  H48  1  0.15489702  0.86682604  0.75263852  1
  H+  H49  1  0.86771859  1.03352359  0.25501339  1
  H+  H50  1  0.51139719  1.01964252  0.24377173  1
  H+  H51  1  0.01178045  0.17419163  0.25196361  1
  H+  H52  1  0.29646247  0.22028122  0.47265066  1
  H+  H53  1  0.68738283  0.17360299  0.75492052  1
  H+  H54  1  0.28775430  0.15173717  0.75839410  1
  H+  H55  1  1.00695047  0.18569395  0.50999840  1
  H+  H56  1  0.16267844  0.68361807  0.48659138  1
  H+  H57  1  0.89706304  0.55798996  0.02231869  1
  H+  H58  1  0.81897731  0.20177498  1.01498757  1
  H+  H59  1  0.72401776  0.18119416  0.25311589  1
  H+  H60  1  0.97399635  0.47324227  0.99901433  1
  H+  H61  1  0.12718888  0.81084314  0.51120524  1
  H+  H62  1  0.48433457  0.62852504  1.01071646  1
  H+  H63  1  0.81686045  0.31657436  0.02305920  1
  H+  H64  1  0.58976729  0.14288211  0.49965671  1
  H+  H65  1  0.35186842  0.84561708  0.50118524  1
  H+  H66  1  0.80220964  0.62211398  0.52656930  1
  H+  H67  1  0.13197237  0.82770357  0.25047721  1
  H+  H68  1  0.47933761  0.30652522  0.25146187  1
  H+  H69  1  0.47207717  0.18288146  0.25350534  1
  H+  H70  1  0.81975326  0.80355974  0.76510069  1
  H+  H71  1  0.79665339  0.16435707  0.73426063  1
  H+  H72  1  0.70360060  0.52873029  1.01280130  1
  H+  H73  1  0.13763829  0.18039076  0.73416824  1
  H+  H74  1  0.80350036  0.65802668  0.76123898  1
  H+  H75  1  0.49561626  0.97545203  0.01250082  1
  H+  H76  1  0.43382875  0.55053942  0.09872557  1
  H+  H77  1  0.43692950  -0.08320458  0.64526557  1
  H+  H78  1  0.81998210  0.49005767  0.27160445  1
  H+  H79  1  0.71415089  0.85615037  0.24364690  1
  H+  H80  1  0.84017271  0.98115390  0.02217716  1
  H+  H81  1  0.70240896  0.47207101  0.01742107  1
  H+  H82  1  0.45812446  0.44840572  0.98983289  1
  H+  H83  1  0.86462840  0.15512507  0.25611595  1
  H+  H84  1  0.16508847  0.36627000  0.48317019  1
  H+  H85  1  0.14826043  0.31301522  0.24395708  1
  H+  H86  1  0.20719815  0.11614916  0.89575067  1
  H+  H87  1  0.65655358  0.83016966  1.01233830  1
  H+  H88  1  0.84411607  0.34028804  0.77585969  1
  H+  H89  1  0.05598235  0.87240292  0.00646772  1
  H+  H90  1  0.53403396  0.81678443  0.25185417  1
  H+  H91  1  0.14695563  0.63553232  0.02054303  1
  H+  H92  1  0.17413986  0.48767058  0.25529018  1
  H+  H93  1  0.29288984  0.48389226  0.25012638  1
  H+  H94  1  0.28901580  0.48535540  -0.02062961  1
  H+  H95  1  0.12728759  0.19136365  0.50864889  1
  H+  H96  1  0.30439096  0.84443821  0.76984692  1
  H+  H97  1  0.50074420  0.85859955  1.00542182  1
  H+  H98  1  0.34833017  0.50229076  0.72712443  1
  H+  H99  1  0.63283204  0.47563624  0.26705205  1
  H+  H100  1  0.50755213  0.15494658  0.79271074  1
  H+  H101  1  0.75701486  0.55757417  0.66332074  1
  H+  H102  1  0.23908924  0.10032148  0.51666243  1
  H+  H103  1  0.48228796  0.86998160  0.72101655  1
  H+  H104  1  0.80176154  0.95488324  0.74305637  1
  H+  H105  1  0.49760152  0.22751303  0.52445137  1
  H+  H106  1  0.61538511  0.30432780  0.57231023  1
  H+  H107  1  0.34589510  0.51699775  0.49509848  1
  H+  H108  1  0.79877545  0.90304332  0.11096489  1
  H+  H109  1  0.55557490  0.12103457  0.92055341  1
  H+  H110  1  0.19350808  0.76645250  0.39876034  1
  H+  H111  1  0.50825861  0.03818223  0.78273941  1
  H+  H112  1  0.15129018  0.18859590  0.24875916  1
  H+  H113  1  0.10917210  0.55583065  0.10923204  1
  H+  H114  1  0.75562005  0.49263973  0.17701090  1
  H+  H115  1  0.56555948  0.77870879  0.34523755  1
  H+  H116  1  0.89812519  0.61987807  0.11531069  1
  H+  H117  1  0.87020980  0.75707512  0.40363139  1
  H+  H118  1  0.20899045  0.10928027  0.34547151  1
  H+  H119  1  0.45604028  0.88136050  0.13923149  1
  H+  H120  1  0.42297582  0.54934735  0.58643367  1
  H+  H121  1  0.12906396  0.94891791  0.24324146  1
  H+  H122  1  0.96460474  0.26206314  0.92607971  1
  H+  H123  1  0.89229327  0.42988832  0.90857733  1
  H+  H124  1  0.09939851  0.88124407  0.66191365  1
  H+  H125  1  0.11662258  0.89321333  0.10277942  1
  H+  H126  1  0.76650526  0.87650635  0.65282820  1
  H+  H127  1  0.51354776  0.43006987  0.84622027  1
  H+  H128  1  0.88464161  0.10087247  0.40688768  1
  H+  H129  1  0.46729039  0.62161655  0.71350332  1
  H+  H130  1  0.22107162  0.44847074  0.83832258  1
  H+  H131  1  0.44503615  0.21806047  0.11858180  1
  H+  H132  1  0.87548086  0.77207121  0.85320719  1
  H+  H133  1  0.22560639  0.79487239  0.85802045  1
  H+  H134  1  0.07865065  0.52820219  0.64259759  1
  H+  H135  1  0.59020788  0.11530512  0.39593331  1
  H+  H136  1  0.54668635  0.45166667  0.34920773  1
  H+  H137  1  0.20999948  0.44180971  0.39115104  1
  H+  H138  1  0.50729735  0.75820557  0.80254878  1
  H+  H139  1  0.08201956  0.18336477  0.09664404  1
  H+  H140  1  0.79262957  0.22798188  0.15974242  1
  H+  H141  1  0.59789719  0.78928295  0.91902510  1
  H+  H142  1  0.88292505  0.10970075  0.84079081  1
  H+  H143  1  0.95944903  0.80220449  0.25800745  1
  O2-  O144  1  0.10676928  0.22678750  0.22723501  1
  O2-  O145  1  0.09414676  0.22030741  0.71680770  1
  O2-  O146  1  0.11005242  0.55864188  0.23356202  1
  O2-  O147  1  0.08227892  0.52711358  0.70957891  1
  O2-  O148  1  0.09052729  0.87042073  0.21935961  1
  O2-  O149  1  0.11368582  0.90509158  0.72599373  1
  O2-  O150  1  0.43520990  0.22445403  0.22808745  1
  O2-  O151  1  0.44052005  0.21649949  0.74077891  1
  O2-  O152  1  0.43938052  0.55399453  0.21476852  1
  O2-  O153  1  0.42863905  0.53875105  0.69880711  1
  O2-  O154  1  0.45519307  0.87795278  0.20857892  1
  O2-  O155  1  0.44837629  0.91936733  0.71239852  1
  O2-  O156  1  0.80139662  0.22149532  0.22721999  1
  O2-  O157  1  0.75926629  0.20937408  0.71994834  1
  O2-  O158  1  0.77028088  0.52382109  0.23856787  1
  O2-  O159  1  0.75696826  0.56169903  0.73328073  1
  O2-  O160  1  0.79582162  0.89805158  0.22261412  1
  O2-  O161  1  0.75682393  0.87309980  0.72102667  1
  O2-  O162  1  0.20756779  0.11199034  0.27839480  1
  O2-  O163  1  0.20580732  0.11592345  0.77427263  1
  O2-  O164  1  0.21210297  0.44070250  0.27183519  1
  O2-  O165  1  0.22557752  0.44345439  0.77003723  1
  O2-  O166  1  0.19122883  0.77557208  0.29133561  1
  O2-  O167  1  0.22500793  0.80717140  0.79171422  1
  O2-  O168  1  0.55215135  0.10502638  0.25053248  1
  O2-  O169  1  0.54662011  0.11320477  0.81552413  1
  O2-  O170  1  0.54890534  0.44164501  0.28187907  1
  O2-  O171  1  0.53333277  0.43901490  0.78039869  1
  O2-  O172  1  0.57241476  0.77632751  0.27709556  1
  O2-  O173  1  0.53201608  0.76916269  0.73934254  1
  O2-  O174  1  0.90912232  0.11592432  0.27686213  1
  O2-  O175  1  0.87590292  0.09090702  0.77512725  1
  O2-  O176  1  0.89308322  0.45072200  0.30505407  1
  O2-  O177  1  0.89265923  0.41382433  0.80825165  1
  O2-  O178  1  0.87752997  0.76482429  0.28118938  1
  O2-  O179  1  0.85457187  0.75717977  0.78660076  1
  O2-  O180  1  0.23018669  0.14375647  0.46744355  1
  O2-  O181  1  0.21366051  0.12260143  0.96329375  1
  O2-  O182  1  0.21189373  0.44610132  0.45891432  1
  O2-  O183  1  0.21247645  0.44993645  0.95165165  1
  O2-  O184  1  0.20321798  0.76635433  0.46859311  1
  O2-  O185  1  0.21978147  0.77472129  0.98037262  1
  O2-  O186  1  0.60017209  0.09270615  0.45681166  1
  O2-  O187  1  0.55970114  0.12506462  0.99072593  1
  O2-  O188  1  0.54481320  0.46761063  0.46448973  1
  O2-  O189  1  0.48714683  0.39759863  0.96453162  1
  O2-  O190  1  0.55279060  0.78066656  0.46193329  1
  O2-  O191  1  0.57843559  0.78747946  0.98309927  1
  O2-  O192  1  0.88210156  0.10338649  0.47354466  1
  O2-  O193  1  0.91826305  0.18524454  0.95115546  1
  O2-  O194  1  0.86400564  0.40708548  0.42806351  1
  O2-  O195  1  0.89226328  0.43819706  0.97938678  1
  O2-  O196  1  0.86501778  0.75563779  0.47137406  1
  O2-  O197  1  0.91172782  0.80068388  0.96136480  1
  O2-  O198  1  0.04882734  0.13623359  0.04233102  1
  O2-  O199  1  0.09038785  0.23367210  0.53042293  1
  O2-  O200  1  0.10971516  0.55412014  0.04150490  1
  O2-  O201  1  0.08166661  0.54133285  0.51465498  1
  O2-  O202  1  0.13234379  0.90520401  0.03575257  1
  O2-  O203  1  0.07836011  0.84383898  0.53666148  1
  O2-  O204  1  0.44562947  0.20770200  0.04983740  1
  O2-  O205  1  0.54778867  0.22774578  0.57212562  1
  O2-  O206  1  0.43423972  0.54861550  0.03037074  1
  O2-  O207  1  0.42726002  0.55837448  0.51817647  1
  O2-  O208  1  0.45711514  0.89358154  0.03092805  1
  O2-  O209  1  0.43204112  0.88362901  0.52487349  1
  O2-  O210  1  0.77407716  0.23283920  0.04596532  1
  O2-  O211  1  0.85228741  0.29853452  0.42103656  1
  O2-  O212  1  0.91118313  0.63168082  0.05017808  1
  O2-  O213  1  0.75331531  0.54695599  0.55708375  1
  O2-  O214  1  0.79358264  0.90185652  0.04215651  1
  O2-  O215  1  0.77158750  0.87992439  0.53714622  1
