# generated using pymatgen
data_H2O
_symmetry_space_group_name_H-M   'P 1'
_cell_length_a   13.51978414
_cell_length_b   13.51610028
_cell_length_c   14.70928107
_cell_angle_alpha   90.04950399
_cell_angle_beta   89.97362998
_cell_angle_gamma   120.01052416
_symmetry_Int_Tables_number   1
_chemical_formula_structural   H2O
_chemical_formula_sum   'H144 O72'
_cell_volume   2327.53924853
_cell_formula_units_Z   72
loop_
 _symmetry_equiv_pos_site_id
 _symmetry_equiv_pos_as_xyz
  1  'x, y, z'
loop_
 _atom_type_symbol
 _atom_type_oxidation_number
  H+  1.0
  O2-  -2.0
loop_
 _atom_site_type_symbol
 _atom_site_label
 _atom_site_symmetry_multiplicity
 _atom_site_fract_x
 _atom_site_fract_y
 _atom_site_fract_z
 _atom_site_occupancy
  H+  H0  1  0.13818115  0.84231561  -0.00129369  1
  H+  H1  1  0.78485728  0.91149788  0.21576499  1
  H+  H2  1  0.31707250  0.82680514  0.48152066  1
  H+  H3  1  0.91312964  0.46063947  0.68072063  1
  H+  H4  1  0.55949775  0.71377752  0.98966674  1
  H+  H5  1  0.92457136  -0.00345384  0.55683768  1
  H+  H6  1  0.68857161  0.17414998  0.77661487  1
  H+  H7  1  0.44187598  0.26931397  0.26049842  1
  H+  H8  1  0.85343527  0.70297674  0.76191841  1
  H+  H9  1  0.48815855  0.53534465  0.00265651  1
  H+  H10  1  0.35856000  0.49877332  0.23253364  1
  H+  H11  1  0.84204016  0.35370266  0.74395731  1
  H+  H12  1  0.04691402  0.53027223  0.50255472  1
  H+  H13  1  0.79577396  0.98830760  0.98670709  1
  H+  H14  1  0.56149291  0.39710524  0.17479614  1
  H+  H15  1  0.84069224  0.15593453  0.02178650  1
  H+  H16  1  0.13435815  0.94966989  0.22490787  1
  H+  H17  1  0.02470941  0.51455469  0.00297061  1
  H+  H18  1  0.93572566  1.09452332  0.21366665  1
  H+  H19  1  0.81142967  0.92011891  0.60855410  1
  H+  H20  1  0.15226100  0.13040854  0.24391286  1
  H+  H21  1  0.82806924  0.81075382  0.26526097  1
  H+  H22  1  0.12476745  0.18187165  0.50964195  1
  H+  H23  1  0.17646905  0.80211165  0.24872822  1
  H+  H24  1  0.49295408  0.85705025  0.74902626  1
  H+  H25  1  0.83578738  0.20821756  0.48511077  1
  H+  H26  1  0.15674208  0.97717309  0.74734597  1
  H+  H27  1  0.48638196  0.02990702  1.00153612  1
  H+  H28  1  0.02531664  0.83920226  0.51164193  1
  H+  H29  1  0.15586162  0.19069735  0.73815759  1
  H+  H30  1  0.17726058  0.02617695  0.97828596  1
  H+  H31  1  0.95708032  0.82437775  0.98970459  1
  H+  H32  1  0.14519429  0.29521025  0.99995674  1
  H+  H33  1  0.60784395  0.80367746  0.48691043  1
  H+  H34  1  0.85952582  0.15081613  0.78464013  1
  H+  H35  1  0.64234648  0.48198371  0.24923884  1
  H+  H36  1  0.85918029  0.38991828  0.49169441  1
  H+  H37  1  0.54196694  0.90164155  0.01657844  1
  H+  H38  1  0.02087893  0.83197667  0.22902664  1
  H+  H39  1  0.47158340  -0.04771830  0.24337023  1
  H+  H40  1  0.82573224  -0.02444891  0.75057627  1
  H+  H41  1  0.46862212  0.11360343  0.27461576  1
  H+  H42  1  0.49424123  0.19069893  0.75877998  1
  H+  H43  1  0.63178295  0.49762567  -0.02428886  1
  H+  H44  1  0.82418844  0.52777178  0.53105224  1
  H+  H45  1  0.80422300  0.51451673  0.74828812  1
  H+  H46  1  0.19704090  0.82449161  0.48092398  1
  H+  H47  1  0.81097798  0.64459434  -0.00815414  1
  H+  H48  1  0.64505136  0.82543232  0.75859620  1
  H+  H49  1  0.94586083  0.89435028  0.31482045  1
  H+  H50  1  0.37627387  0.85925190  0.73965562  1
  H+  H51  1  0.53822185  0.15439875  0.50333350  1
  H+  H52  1  0.47920951  0.45381514  0.49041716  1
  H+  H53  1  0.14358521  0.30897518  0.51230233  1
  H+  H54  1  0.37316267  0.52745283  0.74528263  1
  H+  H55  1  0.03271965  0.85071256  0.75028279  1
  H+  H56  1  0.52131120  0.35744551  0.76432545  1
  H+  H57  1  0.05378314  0.53290011  0.76920724  1
  H+  H58  1  0.47927518  0.29148074  0.51758137  1
  H+  H59  1  0.52939485  0.08624432  0.35662804  1
  H+  H60  1  0.19323024  0.37803657  0.76103236  1
  H+  H61  1  0.18410374  0.48538130  0.48588030  1
  H+  H62  1  0.64952783  0.49097372  0.76334455  1
  H+  H63  1  0.34734474  0.83921186  0.98403566  1
  H+  H64  1  0.81464536  0.61441640  0.31751515  1
  H+  H65  1  0.67159483  0.79674223  0.24260216  1
  H+  H66  1  0.84818850  0.06411387  0.46157826  1
  H+  H67  1  0.51539485  0.03476249  0.77297075  1
  H+  H68  1  0.18548373  0.71476761  0.76846688  1
  H+  H69  1  0.65411772  0.15659451  0.48672884  1
  H+  H70  1  0.29887873  0.47752166  0.49233672  1
  H+  H71  1  0.12282442  0.63086169  0.04215042  1
  H+  H72  1  0.36059249  0.83261582  0.22705662  1
  H+  H73  1  0.97927765  0.47251984  0.27060878  1
  H+  H74  1  0.44559101  0.55331426  0.59726758  1
  H+  H75  1  0.15163287  0.01759306  0.48753414  1
  H+  H76  1  0.03449558  0.16989452  0.00806034  1
  H+  H77  1  0.81516154  0.64043639  0.53346286  1
  H+  H78  1  0.16899210  0.64104363  0.49541794  1
  H+  H79  1  0.52592416  0.70441271  0.76256821  1
  H+  H80  1  0.85850528  0.49767963  0.95748958  1
  H+  H81  1  0.22122039  0.10642222  0.84591405  1
  H+  H82  1  0.52256767  0.22924061  1.04135649  1
  H+  H83  1  0.85840725  0.82505669  0.50456387  1
  H+  H84  1  0.97997321  0.15657939  0.76899462  1
  H+  H85  1  0.86112789  0.47139655  0.26964775  1
  H+  H86  1  0.96677287  0.17596080  0.47760311  1
  H+  H87  1  0.32125651  0.15462177  0.24563059  1
  H+  H88  1  0.18722471  0.47123668  0.26305179  1
  H+  H89  1  0.30619473  0.49903522  -0.00768936  1
  H+  H90  1  0.82246228  0.85587201  0.74361178  1
  H+  H91  1  0.15435720  0.62321645  0.24376334  1
  H+  H92  1  0.49449561  0.61876972  0.50219635  1
  H+  H93  1  0.17502797  0.54029151  0.76654952  1
  H+  H94  1  0.82836059  0.27541622  0.25418425  1
  H+  H95  1  0.25417379  0.14197348  0.46162222  1
  H+  H96  1  0.83973990  0.82666687  0.98712182  1
  H+  H97  1  0.19001440  0.14904062  0.97840508  1
  H+  H98  1  0.24976611  0.71641775  0.95574933  1
  H+  H99  1  0.39143047  0.15884475  0.54306300  1
  H+  H100  1  0.12087051  0.22248572  0.14091353  1
  H+  H101  1  0.49602196  -0.03395092  0.50794148  1
  H+  H102  1  0.74141667  0.18269370  0.01471279  1
  H+  H103  1  0.18394197  0.48917074  -0.00647284  1
  H+  H104  1  0.30286844  0.14757030  0.75795737  1
  H+  H105  1  0.15139609  0.29055883  0.23609172  1
  H+  H106  1  0.51867465  0.38179274  0.99568455  1
  H+  H107  1  0.48937601  0.52489991  0.74257112  1
  H+  H108  1  0.46395445  0.89995315  0.10155120  1
  H+  H109  1  0.22782731  0.43195791  0.35051126  1
  H+  H110  1  0.51051473  0.40641392  0.40113617  1
  H+  H111  1  0.77016952  0.55960270  0.65803760  1
  H+  H112  1  0.45411322  0.24373856  0.12137345  1
  H+  H113  1  0.23391581  0.45232681  0.85267338  1
  H+  H114  1  0.89144682  0.78586286  0.84827043  1
  H+  H115  1  0.50418937  0.80289753  0.25883862  1
  H+  H116  1  0.46515908  0.23485787  0.66628180  1
  H+  H117  1  0.77554741  0.54615542  0.06537245  1
  H+  H118  1  0.83185071  0.62637220  0.21505322  1
  H+  H119  1  0.53226999  0.10640956  0.86592960  1
  H+  H120  1  0.40592842  0.07736757  0.96848424  1
  H+  H121  1  0.56773149  0.74618527  0.39091826  1
  H+  H122  1  0.91250607  0.46459811  0.87643379  1
  H+  H123  1  0.74685603  0.16411684  0.68964885  1
  H+  H124  1  0.22575127  0.77563394  0.33917226  1
  H+  H125  1  0.09839450  0.87677961  0.08934645  1
  H+  H126  1  0.11175431  0.88575995  0.59572578  1
  H+  H127  1  0.81887059  0.25658580  0.57916667  1
  H+  H128  1  0.49322646  0.67870016  0.25450994  1
  H+  H129  1  0.88279956  0.77725320  0.41361475  1
  H+  H130  1  0.90206503  0.47003164  0.40811334  1
  H+  H131  1  0.59816953  0.78207279  0.88783171  1
  H+  H132  1  0.16589078  0.84709774  0.75534434  1
  H+  H133  1  0.24196460  0.81114380  0.84766083  1
  H+  H134  1  0.17052608  0.07735617  0.33602056  1
  H+  H135  1  0.79787936  0.21116170  0.16013494  1
  H+  H136  1  0.10734496  0.53489746  0.16042284  1
  H+  H137  1  0.45273042  0.57576099  0.09293614  1
  H+  H138  1  0.88452142  0.06929572  0.91104025  1
  H+  H139  1  0.45101007  0.88711821  0.59404337  1
  H+  H140  1  0.48075631  0.50625932  0.22014337  1
  H+  H141  1  0.82565958  0.10026909  0.23780160  1
  H+  H142  1  0.55505306  0.44388190  0.85851347  1
  H+  H143  1  0.10972702  0.23185963  0.65406105  1
  O2-  O144  1  0.11188308  0.21277659  0.20804707  1
  O2-  O145  1  0.11582288  0.23302657  0.72220660  1
  O2-  O146  1  0.11485496  0.53966387  0.22742937  1
  O2-  O147  1  0.13588267  0.58652155  0.76500430  1
  O2-  O148  1  0.09842049  0.86879011  0.20144649  1
  O2-  O149  1  0.11580104  0.89150207  0.72855229  1
  O2-  O150  1  0.40473057  0.19513370  0.22946241  1
  O2-  O151  1  0.45844436  0.23556799  0.73472884  1
  O2-  O152  1  0.43662400  0.54451805  0.20431077  1
  O2-  O153  1  0.45396435  0.56909206  0.72159636  1
  O2-  O154  1  0.44301526  0.87597776  0.21068769  1
  O2-  O155  1  0.45851295  0.90196389  0.72507332  1
  O2-  O156  1  0.78564688  0.19903575  0.22671463  1
  O2-  O157  1  0.76671523  0.20561351  0.74725842  1
  O2-  O158  1  0.79433076  0.56848567  0.26201269  1
  O2-  O159  1  0.76355560  0.55596847  0.73138499  1
  O2-  O160  1  0.74896381  0.82516227  0.21515023  1
  O2-  O161  1  0.78281656  0.89699623  0.72265241  1
  O2-  O162  1  0.18225444  0.07961848  0.26939287  1
  O2-  O163  1  0.22104884  0.10457170  0.77590668  1
  O2-  O164  1  0.22790126  0.42999401  0.28222583  1
  O2-  O165  1  0.23740326  0.45789024  0.78464829  1
  O2-  O166  1  0.21783968  0.76372151  0.27148266  1
  O2-  O167  1  0.22361839  0.80217017  0.78034784  1
  O2-  O168  1  0.50183813  0.06651709  0.29338165  1
  O2-  O169  1  0.55156706  0.11419207  0.79911943  1
  O2-  O170  1  0.56057426  0.43261243  0.23315674  1
  O2-  O171  1  0.56198342  0.44269874  0.78707369  1
  O2-  O172  1  0.53780651  0.75619899  0.28184145  1
  O2-  O173  1  0.56781679  0.78407180  0.78872734  1
  O2-  O174  1  0.85733835  0.04694101  0.23535748  1
  O2-  O175  1  0.90077541  0.10836912  0.79377086  1
  O2-  O176  1  0.90037220  0.43410031  0.29698429  1
  O2-  O177  1  0.88573088  0.43947466  0.74324886  1
  O2-  O178  1  0.90066819  0.81278339  0.30084880  1
  O2-  O179  1  0.89925417  0.78494083  0.78056368  1
  O2-  O180  1  0.17162369  0.09294409  0.45763398  1
  O2-  O181  1  0.22372260  0.10402036  0.95278039  1
  O2-  O182  1  0.21922173  0.43665952  0.46798142  1
  O2-  O183  1  0.22655413  0.45250081  0.96973010  1
  O2-  O184  1  0.23744183  0.78731549  0.45486251  1
  O2-  O185  1  0.26754108  0.79592340  0.95618639  1
  O2-  O186  1  0.57069781  0.11063249  0.47477735  1
  O2-  O187  1  0.48642505  0.09896656  0.97286164  1
  O2-  O188  1  0.50179194  0.39758889  0.46675191  1
  O2-  O189  1  0.54883718  0.45379697  0.95794278  1
  O2-  O190  1  0.59171006  0.73539090  0.45293612  1
  O2-  O191  1  0.62546677  0.77919193  0.95409883  1
  O2-  O192  1  0.89138480  0.14560192  0.44670011  1
  O2-  O193  1  0.87690136  0.05312510  0.97713310  1
  O2-  O194  1  0.89852489  0.47307438  0.47625502  1
  O2-  O195  1  0.90907537  0.46695814  0.94263027  1
  O2-  O196  1  0.88602688  0.77340208  0.48161330  1
  O2-  O197  1  0.87675767  0.78476774  0.96507584  1
  O2-  O198  1  0.11663705  0.21631473  0.02243289  1
  O2-  O199  1  0.09466026  0.22842900  0.53739112  1
  O2-  O200  1  0.10031938  0.55037685  0.03710811  1
  O2-  O201  1  0.12854025  0.56138112  0.51846299  1
  O2-  O202  1  0.09612040  0.87942532  0.02046654  1
  O2-  O203  1  0.10846751  0.88806669  0.52895246  1
  O2-  O204  1  0.50965058  0.28721295  0.07177900  1
  O2-  O205  1  0.46781540  0.22185917  0.55571301  1
  O2-  O206  1  0.46052557  0.58694237  0.02476184  1
  O2-  O207  1  0.43948840  0.54211430  0.53051356  1
  O2-  O208  1  0.47348919  0.91119601  0.03306033  1
  O2-  O209  1  0.44825040  0.88502165  0.52718268  1
  O2-  O210  1  0.81717438  0.21184775  0.04061126  1
  O2-  O211  1  0.79640065  0.24922532  0.51570398  1
  O2-  O212  1  0.77114644  0.55929850  0.00068650  1
  O2-  O213  1  0.78315725  0.56334007  0.56153085  1
  O2-  O214  1  0.65476107  0.89059928  -0.00221482  1
  O2-  O215  1  0.84521474  0.93848634  0.54580900  1
