# generated using pymatgen
data_H2O
_symmetry_space_group_name_H-M   'P 1'
_cell_length_a   13.50171914
_cell_length_b   13.52161970
_cell_length_c   14.67284272
_cell_angle_alpha   89.92235303
_cell_angle_beta   90.09895132
_cell_angle_gamma   120.04595424
_symmetry_Int_Tables_number   1
_chemical_formula_structural   H2O
_chemical_formula_sum   'H144 O72'
_cell_volume   2318.78600451
_cell_formula_units_Z   72
loop_
 _symmetry_equiv_pos_site_id
 _symmetry_equiv_pos_as_xyz
  1  'x, y, z'
loop_
 _atom_type_symbol
 _atom_type_oxidation_number
  H+  1.0
  O2-  -2.0
loop_
 _atom_site_type_symbol
 _atom_site_label
 _atom_site_symmetry_multiplicity
 _atom_site_fract_x
 _atom_site_fract_y
 _atom_site_fract_z
 _atom_site_occupancy
  H+  H0  1  0.86459335  0.13858266  1.03702836  1
  H+  H1  1  0.68967474  0.50673445  0.50797489  1
  H+  H2  1  0.16108934  0.81495845  0.50062781  1
  H+  H3  1  0.62557870  0.16216063  0.51222661  1
  H+  H4  1  0.04025590  0.17231564  0.24034116  1
  H+  H5  1  0.47339391  0.50143136  0.51302287  1
  H+  H6  1  0.62263179  0.49114286  0.25930273  1
  H+  H7  1  0.82967805  -0.02078513  0.74550549  1
  H+  H8  1  0.30529116  0.84088071  0.99771397  1
  H+  H9  1  0.18993029  0.04580337  0.76269968  1
  H+  H10  1  0.71153372  0.86200363  0.74029703  1
  H+  H11  1  0.51350014  0.81363197  0.26028397  1
  H+  H12  1  0.47911485  0.30831779  0.24024138  1
  H+  H13  1  0.18711229  0.84863249  0.26733725  1
  H+  H14  1  0.48204901  0.62328075  0.51157040  1
  H+  H15  1  0.84070834  0.47647140  0.48589723  1
  H+  H16  1  0.80909500  0.51566853  0.23628687  1
  H+  H17  1  0.14508658  0.18161301  0.50712042  1
  H+  H18  1  0.36903480  0.86170152  0.75488380  1
  H+  H19  1  0.48947648  0.97420210  0.23783612  1
  H+  H20  1  0.53084673  0.37602412  0.76982903  1
  H+  H21  1  0.89093432  0.45855398  0.90049808  1
  H+  H22  1  0.17997523  0.35407451  0.75685340  1
  H+  H23  1  0.18505752  0.71844830  0.76581917  1
  H+  H24  1  0.50659834  0.70545342  -0.00973617  1
  H+  H25  1  0.14808839  0.85859840  0.01633930  1
  H+  H26  1  0.69106113  0.83519486  0.24282574  1
  H+  H27  1  0.37412791  0.51277392  0.74278303  1
  H+  H28  1  0.18725321  0.73327890  0.25864852  1
  H+  H29  1  0.82359177  0.30178473  0.74541879  1
  H+  H30  1  0.81312481  0.18056427  0.51519398  1
  H+  H31  1  0.13914562  0.97056360  0.51153500  1
  H+  H32  1  0.85358715  0.82417909  0.76306465  1
  H+  H33  1  0.88478905  0.77159952  0.40083584  1
  H+  H34  1  0.85418617  0.15751195  0.77274246  1
  H+  H35  1  0.80073385  0.29716299  0.22895107  1
  H+  H36  1  1.03451092  0.86482757  0.74833572  1
  H+  H37  1  0.21965764  0.43798538  0.89971372  1
  H+  H38  1  0.81508911  0.32217481  -0.00667950  1
  H+  H39  1  0.85793816  0.70756685  0.75841958  1
  H+  H40  1  0.83884425  0.81252828  0.99376547  1
  H+  H41  1  0.48760233  0.52620685  0.01180706  1
  H+  H42  1  0.15259254  0.30100622  1.01366245  1
  H+  H43  1  0.49051526  0.19387659  0.74440202  1
  H+  H44  1  0.81363981  -0.03910455  1.01465253  1
  H+  H45  1  0.80856346  0.62611524  0.50645251  1
  H+  H46  1  0.50510339  0.35726179  0.49178075  1
  H+  H47  1  0.96003259  0.47918488  0.48575833  1
  H+  H48  1  0.11400241  0.90526582  0.15904085  1
  H+  H49  1  0.50024916  0.48406753  0.26223323  1
  H+  H50  1  0.82049687  0.84994160  0.50635464  1
  H+  H51  1  0.14615439  0.51659945  0.50456285  1
  H+  H52  1  0.95647355  0.46952093  0.24791504  1
  H+  H53  1  0.47669141  0.18681521  0.51797767  1
  H+  H54  1  0.15787064  0.46271779  0.25124384  1
  H+  H55  1  0.15275465  0.30012022  0.24000942  1
  H+  H56  1  0.66315412  0.50463633  0.00271001  1
  H+  H57  1  0.36898704  0.20154554  1.00400800  1
  H+  H58  1  0.79841271  0.20249604  -0.03853458  1
  H+  H59  1  0.18813588  0.04224872  0.99431356  1
  H+  H60  1  0.48068919  0.86512940  0.01424668  1
  H+  H61  1  0.63855511  0.15693175  0.76405397  1
  H+  H62  1  0.48864559  -0.02269490  0.74878082  1
  H+  H63  1  0.50438501  1.04754999  0.50706631  1
  H+  H64  1  0.18665036  0.15940952  0.26032382  1
  H+  H65  1  0.20919730  0.78563433  0.41160553  1
  H+  H66  1  0.95961160  0.81168744  0.49265959  1
  H+  H67  1  0.15316702  -0.01357485  0.24812460  1
  H+  H68  1  0.96858032  0.82096352  0.26191049  1
  H+  H69  1  0.20684502  0.43451055  0.34557669  1
  H+  H70  1  0.15391244  0.86766182  0.74730859  1
  H+  H71  1  0.25310681  0.63527259  0.69089801  1
  H+  H72  1  0.50824952  0.04291232  0.99819662  1
  H+  H73  1  0.18849994  0.47670427  0.75456531  1
  H+  H74  1  0.62688973  0.16286602  0.99160679  1
  H+  H75  1  0.52888708  0.49373412  0.76659680  1
  H+  H76  1  0.34256083  0.50548642  0.24298196  1
  H+  H77  1  0.37065646  0.85685360  0.24626381  1
  H+  H78  1  0.03025065  0.85936380  0.01608412  1
  H+  H79  1  0.81570062  0.63796228  0.23953465  1
  H+  H80  1  0.20029304  0.48977332  -0.00581522  1
  H+  H81  1  0.52340594  0.36958824  0.99037363  1
  H+  H82  1  -0.02173797  0.48823582  0.76007763  1
  H+  H83  1  0.86590825  0.01641362  0.26341199  1
  H+  H84  1  0.12400751  0.57491286  0.26896968  1
  H+  H85  1  0.71409963  0.52332916  0.73983225  1
  H+  H86  1  0.84547082  0.49223178  -0.01124572  1
  H+  H87  1  0.50489911  0.69113344  0.25856576  1
  H+  H88  1  0.03233885  0.17965833  0.74522804  1
  H+  H89  1  0.34887355  0.86262195  0.52069323  1
  H+  H90  1  0.86262519  0.49261649  0.75120508  1
  H+  H91  1  0.48586058  0.19730546  0.00655615  1
  H+  H92  1  0.13996585  0.63395895  0.50631134  1
  H+  H93  1  0.29558834  0.48193684  0.49360641  1
  H+  H94  1  0.80659823  0.64225244  1.01334472  1
  H+  H95  1  0.81652284  0.30006059  0.51547076  1
  H+  H96  1  0.36328090  0.51171512  0.00394971  1
  H+  H97  1  0.52411234  0.82592856  0.76048705  1
  H+  H98  1  0.84494301  0.81108133  0.25994480  1
  H+  H99  1  0.37490837  0.19940148  0.74928905  1
  H+  H100  1  0.76750416  0.22582096  0.13801997  1
  H+  H101  1  0.68873359  0.84808729  1.00783372  1
  H+  H102  1  0.96298316  0.15322164  0.49027737  1
  H+  H103  1  0.62722622  0.14616138  0.23994553  1
  H+  H104  1  0.43517907  0.23210658  0.60253437  1
  H+  H105  1  0.29304660  0.14933023  0.49523154  1
  H+  H106  1  0.50744581  0.14297371  0.24741060  1
  H+  H107  1  0.18724078  0.15976338  -0.00529585  1
  H+  H108  1  0.21790705  0.11127920  0.40367998  1
  H+  H109  1  0.44278212  0.89886800  0.10782251  1
  H+  H110  1  0.78160327  0.55265020  0.64509513  1
  H+  H111  1  0.54602232  0.43895333  0.40299581  1
  H+  H112  1  0.11937327  0.22403081  0.10636911  1
  H+  H113  1  0.87753540  0.43737102  0.33741702  1
  H+  H114  1  0.44172432  0.23587969  0.14821626  1
  H+  H115  1  0.15328117  0.18305515  0.74164086  1
  H+  H116  1  0.76483869  0.55929181  0.10642782  1
  H+  H117  1  0.89562141  0.11796074  0.86197970  1
  H+  H118  1  0.88440512  0.77445683  0.90706695  1
  H+  H119  1  0.13842663  0.57366710  0.63594662  1
  H+  H120  1  0.55098812  0.78291391  0.90033897  1
  H+  H121  1  0.55707172  0.75833708  0.40295587  1
  H+  H122  1  0.98263107  0.15057313  1.00921319  1
  H+  H123  1  0.30396590  0.15693388  0.26125293  1
  H+  H124  1  0.42460909  0.54753152  0.15422328  1
  H+  H125  1  0.84663765  0.03329124  0.48901653  1
  H+  H126  1  0.22915780  0.12393006  0.85246087  1
  H+  H127  1  0.90261160  0.10279741  0.34753434  1
  H+  H128  1  0.27980154  0.63730173  0.08207449  1
  H+  H129  1  0.10212398  0.89777290  0.60404588  1
  H+  H130  1  0.63547059  0.79964678  0.49113120  1
  H+  H131  1  0.76860100  0.87308322  0.15298901  1
  H+  H132  1  0.10606806  0.22003577  0.59667848  1
  H+  H133  1  0.15476939  0.56859119  0.12736601  1
  H+  H134  1  0.43200724  0.90009950  0.60618510  1
  H+  H135  1  0.17527709  0.36536313  0.49206586  1
  H+  H136  1  0.19886276  0.71772907  1.00505420  1
  H+  H137  1  0.78831533  0.89601847  0.59524475  1
  H+  H138  1  0.21870163  0.79035173  0.85913792  1
  H+  H139  1  0.52863671  0.70964684  0.75675653  1
  H+  H140  1  0.78325941  0.22010538  0.65829721  1
  H+  H141  1  0.44959427  0.54969769  0.65236604  1
  H+  H142  1  0.57198921  0.45712041  0.89905913  1
  H+  H143  1  0.55522708  0.12018024  0.85135121  1
  O2-  O144  1  0.12073046  0.22074782  0.21374943  1
  O2-  O145  1  0.11025651  0.22043150  0.71754059  1
  O2-  O146  1  0.09454347  0.52201105  0.21795929  1
  O2-  O147  1  0.17058665  0.59097033  0.70116497  1
  O2-  O148  1  0.11274105  0.90378771  0.22697108  1
  O2-  O149  1  0.11408035  0.90790049  0.72359163  1
  O2-  O150  1  0.43757617  0.22866987  0.21555154  1
  O2-  O151  1  0.45584524  0.24166978  0.72734197  1
  O2-  O152  1  0.42515945  0.54722137  0.22182813  1
  O2-  O153  1  0.45470967  0.55486737  0.72125296  1
  O2-  O154  1  0.44749190  0.88855695  0.21867268  1
  O2-  O155  1  0.44835519  0.89457741  0.73144628  1
  O2-  O156  1  0.76104022  0.21800922  0.20437947  1
  O2-  O157  1  0.78260803  0.21999977  0.72747958  1
  O2-  O158  1  0.77029218  0.55842118  0.21369099  1
  O2-  O159  1  0.79232641  0.55976971  0.71345625  1
  O2-  O160  1  0.77222411  0.87173006  0.22060171  1
  O2-  O161  1  0.79283738  0.90033022  0.71985862  1
  O2-  O162  1  0.22403447  0.11664788  0.28612925  1
  O2-  O163  1  0.23184393  0.12709724  0.78427312  1
  O2-  O164  1  0.20911401  0.43097419  0.27792418  1
  O2-  O165  1  0.22332850  0.43440678  0.78203414  1
  O2-  O166  1  0.22617865  0.80607787  0.29096223  1
  O2-  O167  1  0.22118002  0.79669590  0.79092716  1
  O2-  O168  1  0.54591135  0.09918370  0.26132651  1
  O2-  O169  1  0.55663793  0.11897774  0.78333062  1
  O2-  O170  1  0.54357010  0.44583231  0.28333369  1
  O2-  O171  1  0.57199403  0.45732153  0.79305805  1
  O2-  O172  1  0.55298838  0.77133165  0.28018912  1
  O2-  O173  1  0.56744426  0.78812535  0.78254392  1
  O2-  O174  1  0.91992130  0.09545591  0.28295895  1
  O2-  O175  1  0.89593338  0.11768899  0.79468207  1
  O2-  O176  1  0.87509178  0.44117993  0.26980218  1
  O2-  O177  1  0.89862567  0.45025342  0.77992843  1
  O2-  O178  1  0.88776277  0.77252886  0.28269491  1
  O2-  O179  1  0.89330843  0.78389573  0.78814781  1
  O2-  O180  1  0.21208881  0.10788707  0.47177659  1
  O2-  O181  1  0.23000851  0.12224027  0.97035309  1
  O2-  O182  1  0.21526231  0.44613591  0.46961478  1
  O2-  O183  1  0.22557632  0.43794196  0.96784212  1
  O2-  O184  1  0.20089328  0.77365963  0.47861877  1
  O2-  O185  1  0.22345778  0.79365261  0.97676964  1
  O2-  O186  1  0.54582762  0.13085185  0.49145076  1
  O2-  O187  1  0.54515351  0.12176715  0.97126487  1
  O2-  O188  1  0.54967687  0.43941507  0.47091540  1
  O2-  O189  1  0.57049242  0.45434603  0.96976045  1
  O2-  O190  1  0.55634364  0.74806898  0.46985088  1
  O2-  O191  1  0.54762660  0.78605167  0.96847313  1
  O2-  O192  1  0.88259998  0.11417542  0.46726354  1
  O2-  O193  1  0.89754868  0.10972918  0.99223903  1
  O2-  O194  1  0.88016652  0.43579712  0.46248591  1
  O2-  O195  1  0.88365248  0.45067515  0.96781242  1
  O2-  O196  1  0.87940647  0.76841956  0.46896645  1
  O2-  O197  1  0.88052721  0.77138610  0.97531686  1
  O2-  O198  1  0.11454327  0.22062804  0.03660867  1
  O2-  O199  1  0.10558795  0.22341437  0.52884633  1
  O2-  O200  1  0.19919066  0.59818406  0.06478988  1
  O2-  O201  1  0.10388476  0.55369653  0.53088396  1
  O2-  O202  1  0.11068492  0.90217909  0.03798337  1
  O2-  O203  1  0.09711226  0.89044462  0.53628512  1
  O2-  O204  1  0.45103894  0.24526404  0.02495835  1
  O2-  O205  1  0.42983271  0.22576738  0.53517812  1
  O2-  O206  1  0.44167131  0.56061487  0.03107767  1
  O2-  O207  1  0.43496762  0.54270427  0.53775080  1
  O2-  O208  1  0.44140650  0.90505624  0.03858642  1
  O2-  O209  1  0.42948843  0.90987986  0.53975916  1
  O2-  O210  1  0.77206753  0.23588679  0.00763885  1
  O2-  O211  1  0.77903396  0.22323364  0.54511659  1
  O2-  O212  1  0.76137090  0.55946256  0.03594381  1
  O2-  O213  1  0.77105508  0.54601412  0.53025838  1
  O2-  O214  1  0.76851474  0.87861988  0.03157932  1
  O2-  O215  1  0.78327821  0.89376989  0.52773631  1
