# generated using pymatgen
data_H2O
_symmetry_space_group_name_H-M   'P 1'
_cell_length_a   13.50948277
_cell_length_b   13.50404166
_cell_length_c   14.69396982
_cell_angle_alpha   90.02184898
_cell_angle_beta   89.97713302
_cell_angle_gamma   119.95091651
_symmetry_Int_Tables_number   1
_chemical_formula_structural   H2O
_chemical_formula_sum   'H144 O72'
_cell_volume   2322.66625747
_cell_formula_units_Z   72
loop_
 _symmetry_equiv_pos_site_id
 _symmetry_equiv_pos_as_xyz
  1  'x, y, z'
loop_
 _atom_type_symbol
 _atom_type_oxidation_number
  H+  1.0
  O2-  -2.0
loop_
 _atom_site_type_symbol
 _atom_site_label
 _atom_site_symmetry_multiplicity
 _atom_site_fract_x
 _atom_site_fract_y
 _atom_site_fract_z
 _atom_site_occupancy
  H+  H0  1  0.85185859  1.01882963  0.24569356  1
  H+  H1  1  0.89548117  0.43430711  0.38916792  1
  H+  H2  1  0.47323864  0.95479900  0.70193382  1
  H+  H3  1  0.30756041  0.48015302  0.25759821  1
  H+  H4  1  0.85377293  0.83038364  -0.01621066  1
  H+  H5  1  0.30347165  0.13840755  0.26767043  1
  H+  H6  1  0.48289382  0.84305771  0.49779709  1
  H+  H7  1  0.83458926  0.64936477  0.73198805  1
  H+  H8  1  0.44824665  0.24985519  0.14735651  1
  H+  H9  1  0.19687508  0.36682685  0.98789533  1
  H+  H10  1  0.49357405  0.18114044  0.52221057  1
  H+  H11  1  0.78487736  0.88724592  0.39357806  1
  H+  H12  1  0.51088235  0.69887467  0.76644743  1
  H+  H13  1  0.89605265  0.43661753  0.65297688  1
  H+  H14  1  0.51737828  0.03233766  0.48955747  1
  H+  H15  1  0.85720844  0.50458264  0.71953557  1
  H+  H16  1  0.43255034  -0.11401357  1.11129025  1
  H+  H17  1  0.48270869  0.48452175  0.76360482  1
  H+  H18  1  -0.02337848  0.81498704  0.47978258  1
  H+  H19  1  0.17747895  0.52490417  0.26250417  1
  H+  H20  1  0.29954568  0.82298587  0.75365743  1
  H+  H21  1  0.36270293  0.52326266  0.00038714  1
  H+  H22  1  0.12872249  0.30987331  0.74175366  1
  H+  H23  1  0.18652419  0.69404732  0.46205765  1
  H+  H24  1  0.51275532  0.82548321  0.99588568  1
  H+  H25  1  0.49956090  0.54167064  0.22082128  1
  H+  H26  1  0.05030884  0.52069123  0.49140889  1
  H+  H27  1  -0.01427085  0.48816759  0.25584868  1
  H+  H28  1  0.51144660  0.36927222  0.99304800  1
  H+  H29  1  0.32453624  0.15182710  0.49491296  1
  H+  H30  1  0.53568532  0.06982426  0.80150288  1
  H+  H31  1  0.65392669  0.48456354  0.51197723  1
  H+  H32  1  0.82977171  0.50541702  0.49960394  1
  H+  H33  1  0.72316105  0.19073166  0.24533565  1
  H+  H34  1  0.70317531  0.52517257  -0.01590805  1
  H+  H35  1  0.17242340  0.52685185  0.49587243  1
  H+  H36  1  0.85718807  0.50131028  -0.05604523  1
  H+  H37  1  0.15019420  0.84963511  0.29458182  1
  H+  H38  1  0.79571943  0.57308599  0.64087301  1
  H+  H39  1  0.18964443  0.69829417  0.32109867  1
  H+  H40  1  0.81863414  0.30618021  0.74275718  1
  H+  H41  1  0.81060058  0.18340270  0.76217770  1
  H+  H42  1  0.18359255  0.37375748  0.49600744  1
  H+  H43  1  0.28934326  0.16215196  0.76202243  1
  H+  H44  1  0.36415319  0.51098573  0.52349185  1
  H+  H45  1  0.85611024  0.35536777  0.47998649  1
  H+  H46  1  0.12615523  0.89330444  0.58466502  1
  H+  H47  1  0.37934008  0.29066905  0.20762117  1
  H+  H48  1  0.85508261  1.03184873  0.47899387  1
  H+  H49  1  0.03299720  0.85646738  0.00408266  1
  H+  H50  1  0.54815814  0.40553807  0.22791875  1
  H+  H51  1  0.16195687  0.85329200  0.49200462  1
  H+  H52  1  0.04426573  0.53281332  0.71872212  1
  H+  H53  1  0.65281047  0.18358296  0.78678152  1
  H+  H54  1  0.49341236  0.29939087  0.53366371  1
  H+  H55  1  0.53243655  0.15790714  0.26047140  1
  H+  H56  1  0.81792983  0.83408333  0.47291590  1
  H+  H57  1  0.83987182  0.02026883  1.00103611  1
  H+  H58  1  0.12394902  0.19056736  0.73149376  1
  H+  H59  1  0.18921037  0.01198100  1.00218008  1
  H+  H60  1  0.86852883  0.72417492  0.23965749  1
  H+  H61  1  0.50776812  0.81355916  0.75329527  1
  H+  H62  1  0.21542746  0.44720630  0.84821227  1
  H+  H63  1  0.03342902  0.20102104  0.50246915  1
  H+  H64  1  0.35086696  0.51006356  0.75173466  1
  H+  H65  1  0.48188720  0.19486370  0.76570233  1
  H+  H66  1  0.36477278  0.84381467  0.48525164  1
  H+  H67  1  0.18307836  0.69453821  0.98504454  1
  H+  H68  1  0.85422742  0.71256468  -0.02803833  1
  H+  H69  1  0.37781843  0.17857454  1.02285086  1
  H+  H70  1  0.17548482  0.47484814  -0.01771562  1
  H+  H71  1  0.63044723  0.80575486  0.47794247  1
  H+  H72  1  0.83485124  0.62746003  0.49599931  1
  H+  H73  1  0.95171234  0.15673134  0.77350026  1
  H+  H74  1  0.83623694  0.03331293  0.77584411  1
  H+  H75  1  0.89315986  0.10627335  0.33715615  1
  H+  H76  1  0.48762091  0.35648224  0.76526745  1
  H+  H77  1  0.82188095  0.86667536  0.74611741  1
  H+  H78  1  0.19937880  0.02760042  0.48816243  1
  H+  H79  1  0.83157941  0.14791276  1.00839419  1
  H+  H80  1  0.51151551  0.69117614  0.50267243  1
  H+  H81  1  0.02002312  0.51057532  -0.02707512  1
  H+  H82  1  0.48195648  -0.14978420  0.26057095  1
  H+  H83  1  0.48162958  0.64406880  0.00262200  1
  H+  H84  1  0.18311668  0.70767783  0.75351593  1
  H+  H85  1  0.51284015  0.70446930  0.25836447  1
  H+  H86  1  0.70015809  0.85550870  0.01691793  1
  H+  H87  1  0.85490140  0.83890769  0.24879131  1
  H+  H88  1  0.70107013  0.17687153  0.52259787  1
  H+  H89  1  0.18833815  0.19197408  1.01588522  1
  H+  H90  1  0.70059600  0.16794287  0.02714442  1
  H+  H91  1  0.03038750  0.17799022  0.24052684  1
  H+  H92  1  0.70125532  0.86040732  0.74981173  1
  H+  H93  1  0.18385176  0.49582188  0.75740927  1
  H+  H94  1  0.18311056  0.01327089  0.28120761  1
  H+  H95  1  0.18619729  0.36149670  0.26332845  1
  H+  H96  1  0.35895165  0.85076729  1.01875655  1
  H+  H97  1  0.14467856  0.84447161  1.01082893  1
  H+  H98  1  0.15253098  -0.02305232  0.72540459  1
  H+  H99  1  0.36827373  0.85620331  0.27666669  1
  H+  H100  1  0.50250732  0.19178241  0.02926818  1
  H+  H101  1  -0.02602016  0.82940269  0.74741891  1
  H+  H102  1  0.14746468  0.17720382  0.25151894  1
  H+  H103  1  0.83731531  0.18006793  0.24182759  1
  H+  H104  1  0.74030851  0.54114385  0.19412625  1
  H+  H105  1  0.15820159  0.86098243  0.73165861  1
  H+  H106  1  0.03782599  0.85762865  0.26629217  1
  H+  H107  1  0.48366742  0.51187933  0.53700808  1
  H+  H108  1  0.54566670  0.76659143  0.35486678  1
  H+  H109  1  0.90019576  0.79380891  0.83945832  1
  H+  H110  1  0.14209079  0.22996840  0.10110841  1
  H+  H111  1  0.51663273  0.03341572  1.01201456  1
  H+  H112  1  0.44082237  0.21488811  0.66784218  1
  H+  H113  1  0.86867419  0.36758552  0.25177777  1
  H+  H114  1  0.13381489  0.57510427  0.63808066  1
  H+  H115  1  0.53046544  0.43997100  0.85878158  1
  H+  H116  1  0.78547730  0.89646737  0.10634326  1
  H+  H117  1  0.89919086  0.77350822  0.38938920  1
  H+  H118  1  0.50801921  0.48819161  0.99034131  1
  H+  H119  1  0.52371795  0.03646016  0.26676199  1
  H+  H120  1  0.27373608  0.08127662  0.92046927  1
  H+  H121  1  0.17882451  0.61397828  0.19143582  1
  H+  H122  1  0.23793477  0.45060580  0.40572703  1
  H+  H123  1  0.43901407  0.56804998  0.14044777  1
  H+  H124  1  0.79972287  0.56393321  0.06082293  1
  H+  H125  1  0.87907178  0.10791689  0.91040889  1
  H+  H126  1  0.56597006  0.12052403  0.40725135  1
  H+  H127  1  0.43575518  0.54957382  0.66385743  1
  H+  H128  1  0.62420265  0.50308025  0.29829850  1
  H+  H129  1  0.84853715  0.14596497  0.48985566  1
  H+  H130  1  0.78228083  0.21356147  0.60921442  1
  H+  H131  1  0.19190457  0.12589020  0.83683404  1
  H+  H132  1  0.55247783  0.79011393  0.90425892  1
  H+  H133  1  0.07129563  0.52243624  0.07134265  1
  H+  H134  1  0.22538430  0.77984046  0.90068376  1
  H+  H135  1  0.71910010  0.86768383  0.23460430  1
  H+  H136  1  0.79288364  0.21404211  0.10922858  1
  H+  H137  1  0.56970592  0.12794148  0.93100988  1
  H+  H138  1  0.90788884  0.46955438  0.85868821  1
  H+  H139  1  0.09688340  0.24270695  0.59701046  1
  H+  H140  1  0.55330479  0.43863164  0.44017908  1
  H+  H141  1  0.85010366  0.52910472  0.20766791  1
  H+  H142  1  0.24397804  0.11167576  0.39110748  1
  H+  H143  1  0.42615713  0.86543158  0.62518592  1
  O2-  O144  1  0.11518741  0.22192774  0.22484809  1
  O2-  O145  1  0.08069412  0.23011764  0.71826477  1
  O2-  O146  1  0.14606482  0.57825041  0.24982053  1
  O2-  O147  1  0.12829645  0.57412206  0.70575015  1
  O2-  O148  1  0.12341931  0.89589171  0.26209455  1
  O2-  O149  1  0.11940097  0.89844163  0.70059033  1
  O2-  O150  1  0.43739847  0.26797873  0.21319385  1
  O2-  O151  1  0.43471858  0.22337027  0.73513567  1
  O2-  O152  1  0.44232507  0.56543555  0.20876045  1
  O2-  O153  1  0.43460152  0.54762529  0.73295496  1
  O2-  O154  1  0.44060843  0.89219467  0.24188064  1
  O2-  O155  1  0.42992562  0.87234498  0.69424633  1
  O2-  O156  1  0.80218150  0.22873586  0.22152074  1
  O2-  O157  1  0.76905673  0.22198631  0.73541215  1
  O2-  O158  1  0.82199391  0.57638668  0.17726196  1
  O2-  O159  1  0.79724519  0.56909170  0.70834690  1
  O2-  O160  1  0.79891491  0.90426970  0.21447540  1
  O2-  O161  1  0.78218094  0.91034087  0.73278058  1
  O2-  O162  1  0.22890101  0.10308160  0.29865014  1
  O2-  O163  1  0.20478651  0.12115072  0.77192488  1
  O2-  O164  1  0.22994712  0.44263144  0.28607632  1
  O2-  O165  1  0.21724724  0.44869396  0.77939720  1
  O2-  O166  1  0.22596660  0.78038987  0.34164605  1
  O2-  O167  1  0.22122829  0.78683383  0.77971601  1
  O2-  O168  1  0.57011651  0.11879044  0.28636463  1
  O2-  O169  1  0.57280354  0.15115538  0.81537582  1
  O2-  O170  1  0.59996782  0.49026518  0.23495164  1
  O2-  O171  1  0.52397562  0.43812226  0.78862223  1
  O2-  O172  1  0.55140068  0.78088877  0.28793537  1
  O2-  O173  1  0.54906185  0.78025964  0.78511612  1
  O2-  O174  1  0.89470417  0.10735857  0.26963245  1
  O2-  O175  1  0.87361639  0.11512019  0.80140651  1
  O2-  O176  1  0.90346725  0.44990407  0.27118669  1
  O2-  O177  1  0.89806233  0.45452092  0.71771508  1
  O2-  O178  1  0.89538308  0.79494730  0.27529225  1
  O2-  O179  1  0.89472855  0.78862316  0.77134531  1
  O2-  O180  1  0.24585180  0.11058954  0.46564407  1
  O2-  O181  1  0.24619400  0.09510838  0.97763001  1
  O2-  O182  1  0.23614983  0.45622512  0.47334149  1
  O2-  O183  1  0.22573723  0.44528825  0.96038424  1
  O2-  O184  1  0.22639112  0.77858127  0.44200440  1
  O2-  O185  1  0.22562337  0.77685332  0.96858530  1
  O2-  O186  1  0.56094900  0.11572809  0.47516765  1
  O2-  O187  1  0.56401142  0.11743721  0.99832619  1
  O2-  O188  1  0.56710115  0.44313963  0.50559569  1
  O2-  O189  1  0.54556603  0.44620619  0.96378910  1
  O2-  O190  1  0.54546591  0.76727276  0.47238783  1
  O2-  O191  1  0.55318001  0.78606385  0.97209400  1
  O2-  O192  1  0.89345822  0.11365954  0.46194902  1
  O2-  O193  1  0.87767446  0.10425084  0.97969990  1
  O2-  O194  1  0.89784679  0.43556000  0.45751980  1
  O2-  O195  1  0.90136951  0.46361820  0.92478478  1
  O2-  O196  1  0.89706227  0.76605098  0.45778460  1
  O2-  O197  1  0.89692017  0.79554971  0.95612978  1
  O2-  O198  1  0.16075624  0.24343931  0.03546576  1
  O2-  O199  1  0.11001385  0.24907458  0.53035672  1
  O2-  O200  1  0.09561343  0.54114730  0.00820224  1
  O2-  O201  1  0.13061923  0.57014053  0.51178319  1
  O2-  O202  1  0.11154472  0.89195244  0.03037942  1
  O2-  O203  1  0.12684677  0.89765009  0.51624942  1
  O2-  O204  1  0.45832721  0.23221837  0.04322985  1
  O2-  O205  1  0.44872719  0.21591021  0.54840276  1
  O2-  O206  1  0.44304155  0.56266477  0.02449247  1
  O2-  O207  1  0.44205112  0.55244912  0.55346848  1
  O2-  O208  1  0.43858351  0.89279743  0.04404544  1
  O2-  O209  1  0.44060502  0.88385368  0.51626911  1
  O2-  O210  1  0.78399456  0.20348713  0.04124114  1
  O2-  O211  1  0.78273836  0.21710951  0.54170899  1
  O2-  O212  1  0.78691810  0.56558238  -0.00617509  1
  O2-  O213  1  0.79241834  0.54876294  0.52280392  1
  O2-  O214  1  0.78175444  0.89551166  0.03565008  1
  O2-  O215  1  0.77676612  0.87707209  0.45979865  1
