# generated using pymatgen
data_H2O
_symmetry_space_group_name_H-M   'P 1'
_cell_length_a   13.53772237
_cell_length_b   13.52899760
_cell_length_c   14.70718849
_cell_angle_alpha   89.90333364
_cell_angle_beta   90.07050698
_cell_angle_gamma   120.04455434
_symmetry_Int_Tables_number   1
_chemical_formula_structural   H2O
_chemical_formula_sum   'H144 O72'
_cell_volume   2331.71623380
_cell_formula_units_Z   72
loop_
 _symmetry_equiv_pos_site_id
 _symmetry_equiv_pos_as_xyz
  1  'x, y, z'
loop_
 _atom_type_symbol
 _atom_type_oxidation_number
  H+  1.0
  O2-  -2.0
loop_
 _atom_site_type_symbol
 _atom_site_label
 _atom_site_symmetry_multiplicity
 _atom_site_fract_x
 _atom_site_fract_y
 _atom_site_fract_z
 _atom_site_occupancy
  H+  H0  1  0.52278851  0.82280247  0.74802823  1
  H+  H1  1  0.53027986  0.68260326  0.47837354  1
  H+  H2  1  0.70033155  0.85433927  0.74731297  1
  H+  H3  1  0.63074248  0.14923577  0.98775521  1
  H+  H4  1  0.30978209  0.81975375  0.99167332  1
  H+  H5  1  0.83137061  0.48910414  0.77144146  1
  H+  H6  1  0.53414600  0.49717912  0.49447985  1
  H+  H7  1  0.54219234  0.38119024  0.50110764  1
  H+  H8  1  0.82779498  0.09346956  0.25968320  1
  H+  H9  1  0.12895495  0.61512711  0.22016073  1
  H+  H10  1  0.31354876  0.44010780  0.27054249  1
  H+  H11  1  0.18646767  0.38478416  0.50150778  1
  H+  H12  1  0.15490795  0.95829940  -0.00052012  1
  H+  H13  1  0.81464149  0.19595733  0.51607319  1
  H+  H14  1  0.30148703  0.83086225  0.49329715  1
  H+  H15  1  0.80722946  0.89903419  0.13407174  1
  H+  H16  1  0.50535248  0.85491085  0.23265305  1
  H+  H17  1  -0.02394074  0.83144362  0.76841383  1
  H+  H18  1  0.23225692  0.14789735  0.74492439  1
  H+  H19  1  0.18619864  0.81300340  0.98925976  1
  H+  H20  1  0.82605819  0.22464778  0.23230036  1
  H+  H21  1  0.48684358  0.96214944  0.24147416  1
  H+  H22  1  0.81925737  -0.03186671  0.51404078  1
  H+  H23  1  0.81196847  0.63577063  0.23135381  1
  H+  H24  1  -0.04851322  0.16428854  0.50040317  1
  H+  H25  1  0.54425862  0.70907415  0.23539099  1
  H+  H26  1  0.94572467  0.48844956  1.01045785  1
  H+  H27  1  0.83016117  0.52013054  0.46324383  1
  H+  H28  1  0.64987568  0.49172407  -0.01864756  1
  H+  H29  1  0.16604326  0.65879107  0.49038496  1
  H+  H30  1  0.16561988  0.64025771  -0.00393208  1
  H+  H31  1  0.51917094  0.78909759  0.44917714  1
  H+  H32  1  0.64655876  0.16319012  0.49346676  1
  H+  H33  1  0.81268213  0.63877261  0.01276701  1
  H+  H34  1  0.95383228  0.48531158  0.24695330  1
  H+  H35  1  0.20173567  0.50493951  0.47536711  1
  H+  H36  1  0.38116045  0.58077734  0.20253524  1
  H+  H37  1  0.82828737  0.66607046  0.73731549  1
  H+  H38  1  0.80398277  0.30078534  0.74981626  1
  H+  H39  1  0.18128654  0.38134511  0.76167500  1
  H+  H40  1  0.53955272  0.40423212  0.82642110  1
  H+  H41  1  0.20181047  0.14883665  -0.00991531  1
  H+  H42  1  0.12930896  -0.04733145  0.50966754  1
  H+  H43  1  0.08739954  0.52225409  -0.05249517  1
  H+  H44  1  0.29866799  0.78949335  0.23741466  1
  H+  H45  1  0.46146793  0.56589498  0.59663753  1
  H+  H46  1  -0.02255940  0.49802702  0.48946919  1
  H+  H47  1  0.69858588  0.51732694  0.45998482  1
  H+  H48  1  0.84166659  0.15757078  -0.00353794  1
  H+  H49  1  0.50414974  0.69503934  0.97587996  1
  H+  H50  1  0.17023348  0.69249091  0.77047061  1
  H+  H51  1  0.15602375  0.28400432  0.24512697  1
  H+  H52  1  0.15329065  0.84382123  0.75090963  1
  H+  H53  1  0.44997806  0.89294400  0.09406883  1
  H+  H54  1  0.52086616  0.19747782  0.74664746  1
  H+  H55  1  0.23814477  0.14435679  0.54894031  1
  H+  H56  1  0.49518285  0.47337130  0.25877501  1
  H+  H57  1  0.03911616  0.84032575  0.22558004  1
  H+  H58  1  0.56246284  0.10934400  0.85478771  1
  H+  H59  1  0.84487843  0.70374175  0.60409373  1
  H+  H60  1  0.84158906  0.03585680  0.76278921  1
  H+  H61  1  0.83573651  0.79748241  0.54024722  1
  H+  H62  1  0.19773068  0.31371909  0.00607284  1
  H+  H63  1  0.14276172  0.22940305  0.09054616  1
  H+  H64  1  0.39178734  0.52078269  0.00231435  1
  H+  H65  1  0.69046858  0.17808355  0.74466163  1
  H+  H66  1  0.49019775  0.29865213  -0.01357746  1
  H+  H67  1  0.48385382  -0.02745457  1.00440669  1
  H+  H68  1  0.85607386  0.37869801  0.49802689  1
  H+  H69  1  0.18264030  0.14194606  0.23811566  1
  H+  H70  1  0.82991388  0.49347184  1.00504295  1
  H+  H71  1  0.48857674  0.80592047  0.97354497  1
  H+  H72  1  0.49921950  0.64766552  0.72658126  1
  H+  H73  1  0.20792873  1.02151517  0.75823600  1
  H+  H74  1  0.80343801  0.32573172  0.24187663  1
  H+  H75  1  0.18886339  0.50042421  0.76532249  1
  H+  H76  1  0.35847072  0.84523126  0.75259282  1
  H+  H77  1  0.70517441  0.84714609  0.50726698  1
  H+  H78  1  0.72526836  0.84846723  0.22308853  1
  H+  H79  1  0.51764445  0.02807761  0.76611183  1
  H+  H80  1  0.71237427  0.56303828  0.70129490  1
  H+  H81  1  0.01743477  0.83463139  0.53582232  1
  H+  H82  1  0.00042350  0.19099866  0.75345266  1
  H+  H83  1  0.17900867  0.81907488  0.49330231  1
  H+  H84  1  0.21835299  0.49489174  0.98888324  1
  H+  H85  1  0.40879324  0.20727578  0.52797256  1
  H+  H86  1  0.03507579  0.16760779  0.23575870  1
  H+  H87  1  0.80154301  0.51489810  0.23495763  1
  H+  H88  1  0.53532726  0.17225907  0.49757106  1
  H+  H89  1  1.00087658  0.50722114  0.76953978  1
  H+  H90  1  -0.03086969  0.80874081  -0.00864393  1
  H+  H91  1  0.85759599  0.83422165  0.76846019  1
  H+  H92  1  0.11548246  0.19712865  0.52962901  1
  H+  H93  1  0.51336225  0.15156597  0.98094620  1
  H+  H94  1  0.18601350  0.79683735  0.23486608  1
  H+  H95  1  0.63095084  0.15629038  0.26372841  1
  H+  H96  1  0.38172124  0.52139520  0.50588173  1
  H+  H97  1  0.49254246  0.88546026  0.53959194  1
  H+  H98  1  0.12155563  0.20263223  0.76752391  1
  H+  H99  1  0.48879729  0.99753362  0.51833103  1
  H+  H100  1  0.83390867  0.15239114  0.76010610  1
  H+  H101  1  0.80064588  0.30781366  1.01188391  1
  H+  H102  1  0.86395038  0.82264366  0.24153591  1
  H+  H103  1  0.49253718  0.18175883  0.25202533  1
  H+  H104  1  0.82776021  -0.01645891  1.01085134  1
  H+  H105  1  0.11814195  0.88802966  0.66096971  1
  H+  H106  1  0.36522351  0.17376982  0.23162597  1
  H+  H107  1  0.15824885  0.95652153  0.21583220  1
  H+  H108  1  0.54732203  0.77339635  0.83701245  1
  H+  H109  1  0.46011187  0.56435562  0.13188645  1
  H+  H110  1  0.23354081  0.42478218  0.35376391  1
  H+  H111  1  0.58884433  0.77574626  0.32837206  1
  H+  H112  1  0.76331630  0.55671527  0.10372237  1
  H+  H113  1  0.08924888  0.24317432  0.61957923  1
  H+  H114  1  0.40410136  0.19377544  0.74596785  1
  H+  H115  1  0.22179860  0.77452299  0.85729696  1
  H+  H116  1  0.43141785  0.90074085  0.66286381  1
  H+  H117  1  0.38263930  0.52967309  0.72701111  1
  H+  H118  1  0.06021242  0.53645575  0.67570605  1
  H+  H119  1  0.55559882  0.11602061  0.35467748  1
  H+  H120  1  0.86123292  0.44865435  0.86598140  1
  H+  H121  1  0.77635850  0.23680423  0.60565762  1
  H+  H122  1  0.82204635  0.64047059  0.48357841  1
  H+  H123  1  0.25422644  0.46079062  0.89646797  1
  H+  H124  1  0.90110502  0.78610587  0.33307595  1
  H+  H125  1  0.48815455  0.24915457  0.61798663  1
  H+  H126  1  0.21813731  0.08412178  0.31749671  1
  H+  H127  1  0.23655199  0.10214961  0.90181195  1
  H+  H128  1  0.88078593  0.11054179  0.40882804  1
  H+  H129  1  0.88688265  0.77168916  0.90596457  1
  H+  H130  1  0.25804568  0.19085083  0.44977284  1
  H+  H131  1  0.88358231  0.12165494  0.90962798  1
  H+  H132  1  0.51186312  0.52528156  0.00099428  1
  H+  H133  1  0.82535914  0.86216438  0.00673403  1
  H+  H134  1  0.75928391  0.22948429  0.09940766  1
  H+  H135  1  0.07884504  0.52952113  0.13689460  1
  H+  H136  1  0.11293324  0.87476414  0.08597081  1
  H+  H137  1  0.16266999  0.58471861  0.57353091  1
  H+  H138  1  0.52819602  0.43488386  0.35334562  1
  H+  H139  1  0.47650106  0.30411566  0.25278514  1
  H+  H140  1  0.78107412  0.89517657  0.66028340  1
  H+  H141  1  0.86616797  0.00582441  0.26123573  1
  H+  H142  1  0.88631915  0.45028938  0.34360292  1
  H+  H143  1  0.37371361  0.17973019  -0.00213356  1
  O2-  O144  1  0.11567321  0.20561865  0.21599071  1
  O2-  O145  1  0.08581054  0.23789026  0.73304256  1
  O2-  O146  1  0.07150292  0.53405199  0.20267201  1
  O2-  O147  1  0.07918714  0.54407546  0.74022417  1
  O2-  O148  1  0.11727330  0.87483970  0.19871627  1
  O2-  O149  1  0.11974569  0.89158348  0.72863563  1
  O2-  O150  1  0.45150325  0.22276685  0.22557429  1
  O2-  O151  1  0.48398143  0.24217842  0.72528318  1
  O2-  O152  1  0.44853138  0.57182064  0.20056674  1
  O2-  O153  1  0.45980422  0.56863690  0.70030752  1
  O2-  O154  1  0.45627802  0.88633186  0.21291089  1
  O2-  O155  1  0.43818214  0.89039773  0.72893548  1
  O2-  O156  1  0.76574846  0.24202565  0.21975118  1
  O2-  O157  1  0.77161305  0.22502729  0.72011450  1
  O2-  O158  1  0.76351241  0.55597694  0.21042029  1
  O2-  O159  1  0.79494523  0.59983300  0.69296489  1
  O2-  O160  1  0.80794472  0.89017455  0.20595812  1
  O2-  O161  1  0.78367183  0.89751224  0.72769184  1
  O2-  O162  1  0.22915991  0.10226094  0.25285538  1
  O2-  O163  1  0.25878760  0.10380838  0.77868585  1
  O2-  O164  1  0.23380349  0.41023519  0.28744743  1
  O2-  O165  1  0.23303142  0.46221987  0.77924300  1
  O2-  O166  1  0.21665142  0.74655880  0.25174726  1
  O2-  O167  1  0.21653024  0.77378635  0.78840407  1
  O2-  O168  1  0.55052239  0.11456391  0.28651649  1
  O2-  O169  1  0.56526467  0.10970056  0.78528682  1
  O2-  O170  1  0.48947308  0.40838780  0.29352143  1
  O2-  O171  1  0.59551223  0.47701706  0.85449327  1
  O2-  O172  1  0.58841920  0.78756213  0.26176108  1
  O2-  O173  1  0.56472748  0.78399915  0.76873054  1
  O2-  O174  1  0.88817664  0.08444997  0.28766239  1
  O2-  O175  1  0.87953026  0.11764641  0.78324380  1
  O2-  O176  1  0.87417268  0.44841111  0.27725471  1
  O2-  O177  1  0.86535982  0.44580577  0.79778786  1
  O2-  O178  1  0.90290755  0.77989223  0.26728960  1
  O2-  O179  1  0.89480504  0.78942648  0.78820966  1
  O2-  O180  1  0.25479645  0.12963557  0.48743649  1
  O2-  O181  1  0.23240831  0.09749395  0.96881709  1
  O2-  O182  1  0.23781416  0.45648547  0.46852003  1
  O2-  O183  1  0.25968861  0.45780466  0.96410552  1
  O2-  O184  1  0.22326475  0.78492367  0.46902961  1
  O2-  O185  1  0.22870467  0.77355715  0.96792515  1
  O2-  O186  1  0.56523958  0.12374262  0.47138045  1
  O2-  O187  1  0.55182235  0.10618893  0.96173408  1
  O2-  O188  1  0.57321823  0.45637044  0.46806908  1
  O2-  O189  1  0.56986556  0.45091053  0.95216388  1
  O2-  O190  1  0.57367876  0.76201793  0.44907322  1
  O2-  O191  1  0.50439732  0.75424611  0.93644849  1
  O2-  O192  1  0.87349830  0.11403476  0.47597870  1
  O2-  O193  1  0.88416490  0.11955207  0.97657237  1
  O2-  O194  1  0.89603458  0.45724353  0.46996344  1
  O2-  O195  1  0.87022279  0.45104023  0.98163079  1
  O2-  O196  1  0.87062879  0.74711866  0.54522803  1
  O2-  O197  1  0.88657214  0.77005351  0.97365893  1
  O2-  O198  1  0.16122187  0.23302058  0.02546528  1
  O2-  O199  1  0.08881719  0.24784201  0.55100780  1
  O2-  O200  1  0.12184230  0.55396914  0.00633478  1
  O2-  O201  1  0.12952181  0.57431466  0.51295892  1
  O2-  O202  1  0.11228464  0.87542305  0.01758280  1
  O2-  O203  1  0.10229238  0.88068002  0.54247015  1
  O2-  O204  1  0.45663633  0.22196412  0.01343875  1
  O2-  O205  1  0.48877025  0.25211226  0.54775230  1
  O2-  O206  1  0.47102149  0.56220568  0.02866888  1
  O2-  O207  1  0.46303774  0.56095149  0.52605965  1
  O2-  O208  1  0.44194481  0.89133415  0.02667151  1
  O2-  O209  1  0.44255167  0.91756485  0.54437546  1
  O2-  O210  1  0.76262927  0.22658638  0.03217581  1
  O2-  O211  1  0.77995349  0.24194470  0.53710933  1
  O2-  O212  1  0.76696583  0.55659930  0.03380966  1
  O2-  O213  1  0.78722319  0.56427773  0.44891939  1
  O2-  O214  1  0.79235380  0.90407816  0.03703347  1
  O2-  O215  1  0.78147399  0.88797789  0.53689099  1
