# generated using pymatgen
data_H2O
_symmetry_space_group_name_H-M   'P 1'
_cell_length_a   13.50466514
_cell_length_b   13.50807337
_cell_length_c   14.70555913
_cell_angle_alpha   89.99334735
_cell_angle_beta   90.02118674
_cell_angle_gamma   120.00581962
_symmetry_Int_Tables_number   1
_chemical_formula_structural   H2O
_chemical_formula_sum   'H144 O72'
_cell_volume   2323.07858976
_cell_formula_units_Z   72
loop_
 _symmetry_equiv_pos_site_id
 _symmetry_equiv_pos_as_xyz
  1  'x, y, z'
loop_
 _atom_type_symbol
 _atom_type_oxidation_number
  H+  1.0
  O2-  -2.0
loop_
 _atom_site_type_symbol
 _atom_site_label
 _atom_site_symmetry_multiplicity
 _atom_site_fract_x
 _atom_site_fract_y
 _atom_site_fract_z
 _atom_site_occupancy
  H+  H0  1  0.19496582  0.15759402  0.47806809  1
  H+  H1  1  0.50582863  0.15564672  0.23949312  1
  H+  H2  1  0.52964390  0.04020927  0.74893533  1
  H+  H3  1  0.81863190  0.31464772  0.23895647  1
  H+  H4  1  0.70116771  0.87814762  -0.04973129  1
  H+  H5  1  0.85677289  0.48880431  0.49695791  1
  H+  H6  1  0.05090917  0.20829084  0.22024735  1
  H+  H7  1  0.66853207  0.16492174  0.52017535  1
  H+  H8  1  0.04114207  0.85016502  0.51589232  1
  H+  H9  1  0.38684678  0.84913706  0.75156051  1
  H+  H10  1  0.50655065  0.32513639  0.73563370  1
  H+  H11  1  0.15483489  0.64029423  0.51255749  1
  H+  H12  1  0.29915089  0.81961547  0.26753548  1
  H+  H13  1  0.48574605  0.29666627  0.22200207  1
  H+  H14  1  0.42451875  0.60936096  0.06841160  1
  H+  H15  1  0.80470881  0.63276271  1.00742606  1
  H+  H16  1  0.47779905  0.84954539  0.26254104  1
  H+  H17  1  0.84417784  0.15659997  0.20801599  1
  H+  H18  1  0.79915129  0.95232366  0.24163168  1
  H+  H19  1  0.69850366  0.19780088  0.23195415  1
  H+  H20  1  0.15237186  0.18865512  -0.00065140  1
  H+  H21  1  0.51995581  0.47385578  0.26322145  1
  H+  H22  1  0.31292131  0.14985420  0.75908680  1
  H+  H23  1  0.94459824  0.71277816  0.91011577  1
  H+  H24  1  0.55029478  0.69068275  0.51046764  1
  H+  H25  1  0.85393987  0.81264149  0.28178634  1
  H+  H26  1  0.36356556  0.52060805  0.74134202  1
  H+  H27  1  0.82075623  0.51961010  0.24420767  1
  H+  H28  1  0.17881238  0.20159307  0.74535203  1
  H+  H29  1  0.37674574  0.52126181  0.50842509  1
  H+  H30  1  0.19078186  0.15898701  0.24259970  1
  H+  H31  1  0.88873579  0.77763069  0.86721102  1
  H+  H32  1  0.85614429  0.05608056  0.95379596  1
  H+  H33  1  0.77222807  0.91114663  0.34113680  1
  H+  H34  1  0.20364399  0.37863246  0.49739416  1
  H+  H35  1  0.79760702  0.64673161  0.72974451  1
  H+  H36  1  0.15577776  0.97659006  0.23486496  1
  H+  H37  1  0.18580673  0.81862121  0.99641050  1
  H+  H38  1  0.87067871  0.43344319  0.72244347  1
  H+  H39  1  0.18503699  0.82101901  0.49755815  1
  H+  H40  1  0.18912693  0.03785704  0.76021439  1
  H+  H41  1  0.48006179  -0.03072367  0.53221313  1
  H+  H42  1  0.18775957  0.70884735  0.76302578  1
  H+  H43  1  0.03198224  0.54040198  0.74618219  1
  H+  H44  1  0.18338938  0.82358692  0.26323458  1
  H+  H45  1  0.49086956  0.63032750  0.73431916  1
  H+  H46  1  0.51496401  0.19222126  0.51872071  1
  H+  H47  1  0.52158295  0.48094980  0.49306372  1
  H+  H48  1  0.11326979  0.56618080  0.65839889  1
  H+  H49  1  0.18240923  0.49737538  0.76111527  1
  H+  H50  1  0.59549217  0.77560646  0.28394602  1
  H+  H51  1  0.88403705  0.04896409  0.57335533  1
  H+  H52  1  0.22694836  0.12177752  0.90441373  1
  H+  H53  1  0.16946755  0.36226684  -0.01459225  1
  H+  H54  1  1.03355535  0.19296009  0.99653553  1
  H+  H55  1  0.15801838  0.52386822  0.51215725  1
  H+  H56  1  0.12200220  0.90008231  0.60223185  1
  H+  H57  1  0.04174622  0.85616645  0.00448494  1
  H+  H58  1  0.48453909  0.97270045  0.25148933  1
  H+  H59  1  0.83157985  0.31765640  0.52702635  1
  H+  H60  1  0.14259824  0.63220311  0.00758519  1
  H+  H61  1  0.22261538  0.45759798  0.84984637  1
  H+  H62  1  0.31722927  0.49459256  0.03236817  1
  H+  H63  1  0.81012365  0.86666918  -0.04431789  1
  H+  H64  1  0.17769872  0.32170752  0.74383202  1
  H+  H65  1  0.50831099  0.30729781  0.51770422  1
  H+  H66  1  0.88853005  0.10082132  0.47913250  1
  H+  H67  1  0.85814515  0.68961561  0.50089293  1
  H+  H68  1  0.50461350  0.46615051  0.74001874  1
  H+  H69  1  0.16310402  0.47977565  -0.01056369  1
  H+  H70  1  0.52602498  0.03407093  0.98044318  1
  H+  H71  1  0.61296854  0.48767938  1.01012254  1
  H+  H72  1  0.78168711  0.56181556  0.15499051  1
  H+  H73  1  0.83049877  0.20994353  0.99565605  1
  H+  H74  1  0.72491993  0.83588893  0.53760802  1
  H+  H75  1  0.83671207  0.20834525  0.56277798  1
  H+  H76  1  0.18488418  1.04529126  -0.00679839  1
  H+  H77  1  0.54752487  0.82272498  0.74384515  1
  H+  H78  1  0.22443230  0.11577611  0.33318057  1
  H+  H79  1  0.50269936  0.18523741  0.74311049  1
  H+  H80  1  0.65135627  0.13858539  -0.02844358  1
  H+  H81  1  0.80569826  0.51735441  0.00644348  1
  H+  H82  1  0.88465180  0.46898825  0.88613075  1
  H+  H83  1  0.55903481  0.69298127  0.97150975  1
  H+  H84  1  0.70443210  0.51690460  0.51253300  1
  H+  H85  1  0.48862775  0.85857584  0.02942977  1
  H+  H86  1  0.13930034  0.63581726  0.24111921  1
  H+  H87  1  1.01941271  0.51961526  1.00078593  1
  H+  H88  1  -0.03323359  0.49149365  0.26041198  1
  H+  H89  1  0.84364826  0.38135082  -0.02768237  1
  H+  H90  1  0.48807768  0.46549925  0.02875285  1
  H+  H91  1  0.46405949  0.67556689  0.29170035  1
  H+  H92  1  0.84646618  0.83856710  0.52855493  1
  H+  H93  1  0.23492436  0.37002084  0.25891776  1
  H+  H94  1  0.97644515  0.49067163  0.49437082  1
  H+  H95  1  0.88879943  0.10837310  0.13185136  1
  H+  H96  1  0.02500769  0.85657728  0.73630107  1
  H+  H97  1  0.34935009  0.52249773  0.18501839  1
  H+  H98  1  0.22715462  0.78510350  0.85268717  1
  H+  H99  1  0.73492071  0.81721449  0.75099228  1
  H+  H100  1  0.99374536  0.17549202  0.74747350  1
  H+  H101  1  0.06640520  0.20444727  0.53178632  1
  H+  H102  1  0.85810916  0.69764466  0.26678297  1
  H+  H103  1  0.03874429  0.85582233  0.24354523  1
  H+  H104  1  0.64295676  0.48487679  0.25762384  1
  H+  H105  1  0.14249147  0.85152717  0.74744524  1
  H+  H106  1  0.18315726  0.03440793  0.47580434  1
  H+  H107  1  0.63267601  0.47944637  0.74060520  1
  H+  H108  1  0.45900245  0.70723872  0.93313813  1
  H+  H109  1  0.12993077  0.24417544  0.13458667  1
  H+  H110  1  0.11206230  0.89228449  0.09868880  1
  H+  H111  1  0.71685451  0.20581761  0.77580784  1
  H+  H112  1  0.57860126  0.78287440  0.43463715  1
  H+  H113  1  0.90087627  0.77111165  0.41181220  1
  H+  H114  1  0.77836525  0.55737163  0.60482315  1
  H+  H115  1  0.24951942  0.45140364  0.40708783  1
  H+  H116  1  0.60460610  0.08339361  0.43656964  1
  H+  H117  1  0.56272154  0.43997807  0.40540887  1
  H+  H118  1  0.36091989  0.85228911  0.52213546  1
  H+  H119  1  0.58532189  0.78271479  0.83021823  1
  H+  H120  1  0.91484784  0.14933395  0.88177309  1
  H+  H121  1  0.78495308  0.24449536  0.08487275  1
  H+  H122  1  0.88914310  0.44912585  0.35167133  1
  H+  H123  1  0.22190665  0.78078259  0.40745768  1
  H+  H124  1  0.29956576  0.81086173  0.00174412  1
  H+  H125  1  0.16055288  0.24968731  0.60571419  1
  H+  H126  1  0.81180411  0.85878321  0.64922361  1
  H+  H127  1  0.85241019  0.10682689  0.36542311  1
  H+  H128  1  0.87783824  0.17969596  0.76117366  1
  H+  H129  1  0.36406676  0.18203974  0.22119947  1
  H+  H130  1  0.82252054  0.53841930  0.74319143  1
  H+  H131  1  0.82736607  0.32481280  0.79914950  1
  H+  H132  1  0.43904395  0.88383004  0.11842565  1
  H+  H133  1  0.78951692  0.07607786  0.37802985  1
  H+  H134  1  0.80088811  0.85678211  0.10439444  1
  H+  H135  1  0.54395938  0.13661724  0.33609163  1
  H+  H136  1  0.46739358  0.22431665  0.64404341  1
  H+  H137  1  0.76803646  0.88837744  0.10360330  1
  H+  H138  1  0.44787564  0.54706803  0.60069729  1
  H+  H139  1  0.50166658  0.29385507  -0.01405542  1
  H+  H140  1  0.46523582  0.20629737  1.06317947  1
  H+  H141  1  0.09505121  0.55685346  0.15259888  1
  H+  H142  1  0.56507017  0.10393551  0.84296164  1
  H+  H143  1  0.45126814  0.88219366  0.65660320  1
  O2-  O144  1  0.13241336  0.24629879  0.20337570  1
  O2-  O145  1  0.14367543  0.24382795  0.71659228  1
  O2-  O146  1  0.09233557  0.55570673  0.21991158  1
  O2-  O147  1  0.11483478  0.56945303  0.72609574  1
  O2-  O148  1  0.11609569  0.89404412  0.21530671  1
  O2-  O149  1  0.10835008  0.89628032  0.72177450  1
  O2-  O150  1  0.44479598  0.21735051  0.19842627  1
  O2-  O151  1  0.46238662  0.22652827  0.71575455  1
  O2-  O152  1  0.33614894  0.53832414  0.24945030  1
  O2-  O153  1  0.44263371  0.54879169  0.71648506  1
  O2-  O154  1  0.44267329  0.89080014  0.23268478  1
  O2-  O155  1  0.46481419  0.88456290  0.72508256  1
  O2-  O156  1  0.77845312  0.23689313  0.20942547  1
  O2-  O157  1  0.80043986  0.24435189  0.78545384  1
  O2-  O158  1  0.78114924  0.56222315  0.22313793  1
  O2-  O159  1  0.76596274  0.56328182  0.71532832  1
  O2-  O160  1  0.76528926  0.88189535  0.27941106  1
  O2-  O161  1  0.81565097  0.85479894  0.72719557  1
  O2-  O162  1  0.22818945  0.11591608  0.26408980  1
  O2-  O163  1  0.23425105  0.11829548  0.78265672  1
  O2-  O164  1  0.30141278  0.42885008  0.29553848  1
  O2-  O165  1  0.22790052  0.46102975  0.78202788  1
  O2-  O166  1  0.21833065  0.77963766  0.28889539  1
  O2-  O167  1  0.22869910  0.79021436  0.78505799  1
  O2-  O168  1  0.54894553  0.12075257  0.27201390  1
  O2-  O169  1  0.56096599  0.11812971  0.77516977  1
  O2-  O170  1  0.56245498  0.43618093  0.28129109  1
  O2-  O171  1  0.54866057  0.42703359  0.75567741  1
  O2-  O172  1  0.52008101  0.75553005  0.30882884  1
  O2-  O173  1  0.58779692  0.77996300  0.76364221  1
  O2-  O174  1  0.88214616  0.10954627  0.19784246  1
  O2-  O175  1  0.91503641  0.13307940  0.77182172  1
  O2-  O176  1  0.88432219  0.44877117  0.28382893  1
  O2-  O177  1  0.89714085  0.49021938  0.77115473  1
  O2-  O178  1  0.90071902  0.77640123  0.29415318  1
  O2-  O179  1  0.86910595  0.78682800  0.75633492  1
  O2-  O180  1  0.21458654  0.10760615  0.44242991  1
  O2-  O181  1  0.21588951  0.12432756  0.97082971  1
  O2-  O182  1  0.23952396  0.45906416  0.47288948  1
  O2-  O183  1  0.21100016  0.44634761  0.96785363  1
  O2-  O184  1  0.22352694  0.77840009  0.47541085  1
  O2-  O185  1  0.22149365  0.77368894  0.97413511  1
  O2-  O186  1  0.58909935  0.11591254  0.48994904  1
  O2-  O187  1  0.59188396  0.06964644  0.93950414  1
  O2-  O188  1  0.56566611  0.44296572  0.47285108  1
  O2-  O189  1  0.53427551  0.45020350  0.98570921  1
  O2-  O190  1  0.60561124  0.77194023  0.49375527  1
  O2-  O191  1  0.53643262  0.74980266  0.95792036  1
  O2-  O192  1  0.91343300  0.12281499  0.54205735  1
  O2-  O193  1  0.90344321  0.14085111  0.95089445  1
  O2-  O194  1  0.89537004  0.44795029  0.47189579  1
  O2-  O195  1  0.88240272  0.46412262  0.95475032  1
  O2-  O196  1  0.90083758  0.77216785  0.47981349  1
  O2-  O197  1  0.90976711  0.75797388  0.92864702  1
  O2-  O198  1  0.11326038  0.23253569  0.02229177  1
  O2-  O199  1  0.15089192  0.24669284  0.53742629  1
  O2-  O200  1  0.09767903  0.55047976  0.02760384  1
  O2-  O201  1  0.11399244  0.55944236  0.53565123  1
  O2-  O202  1  0.11935051  0.89480259  0.03065159  1
  O2-  O203  1  0.12294066  0.89649146  0.53449867  1
  O2-  O204  1  0.49304705  0.21858023  0.00036704  1
  O2-  O205  1  0.47455855  0.22931479  0.54499101  1
  O2-  O206  1  0.38616218  0.52672993  0.07592593  1
  O2-  O207  1  0.45634150  0.55147157  0.53299922  1
  O2-  O208  1  0.43322843  0.87973766  0.05035946  1
  O2-  O209  1  0.43855576  0.88821444  0.54999058  1
  O2-  O210  1  0.78573925  0.24587907  0.01739895  1
  O2-  O211  1  0.78793130  0.24321730  0.56004320  1
  O2-  O212  1  0.76862664  0.55730364  0.03719570  1
  O2-  O213  1  0.78474616  0.55718494  0.53608343  1
  O2-  O214  1  0.77849224  0.90944647  -0.07359849  1
  O2-  O215  1  0.80698218  0.87475870  0.56352631  1
