# generated using pymatgen
data_H2O
_symmetry_space_group_name_H-M   'P 1'
_cell_length_a   13.50682829
_cell_length_b   13.50770090
_cell_length_c   14.67523468
_cell_angle_alpha   89.96145608
_cell_angle_beta   90.04565894
_cell_angle_gamma   120.01407769
_symmetry_Int_Tables_number   1
_chemical_formula_structural   H2O
_chemical_formula_sum   'H144 O72'
_cell_volume   2318.40186031
_cell_formula_units_Z   72
loop_
 _symmetry_equiv_pos_site_id
 _symmetry_equiv_pos_as_xyz
  1  'x, y, z'
loop_
 _atom_type_symbol
 _atom_type_oxidation_number
  H+  1.0
  O2-  -2.0
loop_
 _atom_site_type_symbol
 _atom_site_label
 _atom_site_symmetry_multiplicity
 _atom_site_fract_x
 _atom_site_fract_y
 _atom_site_fract_z
 _atom_site_occupancy
  H+  H0  1  0.15457682  0.85190944  0.24646915  1
  H+  H1  1  0.18854812  0.70283434  0.49116519  1
  H+  H2  1  0.96022442  0.14169389  0.48201171  1
  H+  H3  1  0.86145832  0.49381512  0.25501414  1
  H+  H4  1  0.84357146  0.02933984  0.75531928  1
  H+  H5  1  0.62582323  0.81547710  0.98940985  1
  H+  H6  1  0.33587839  0.54909495  0.51880144  1
  H+  H7  1  0.85075681  0.36230160  0.98622797  1
  H+  H8  1  0.02243027  0.17716849  0.73906752  1
  H+  H9  1  0.94393031  0.84267938  0.50791540  1
  H+  H10  1  0.48483811  0.16629270  0.23974603  1
  H+  H11  1  0.49502457  0.27461882  0.50028755  1
  H+  H12  1  0.84443967  0.02546319  0.99025024  1
  H+  H13  1  0.81267232  0.83828879  0.23553838  1
  H+  H14  1  0.86043534  0.34397113  0.74825998  1
  H+  H15  1  0.44576649  0.88736400  0.14011305  1
  H+  H16  1  0.16592683  0.35604549  0.49781865  1
  H+  H17  1  0.70502842  0.18192708  0.50951904  1
  H+  H18  1  1.02825038  0.53241504  0.23681948  1
  H+  H19  1  0.84561047  0.70916246  0.76340397  1
  H+  H20  1  0.19207825  0.14268992  -0.00248324  1
  H+  H21  1  0.84726061  0.67409607  0.24741479  1
  H+  H22  1  0.83508452  0.19143779  0.73622371  1
  H+  H23  1  0.89270239  0.45173895  0.40031987  1
  H+  H24  1  0.17363751  0.35300201  0.27158113  1
  H+  H25  1  0.14555030  0.17197245  0.51025960  1
  H+  H26  1  0.37338788  0.85791460  0.23280363  1
  H+  H27  1  0.36500417  0.16310783  0.24294904  1
  H+  H28  1  0.17661400  0.46507523  0.97844214  1
  H+  H29  1  0.02465708  0.86398209  0.75556414  1
  H+  H30  1  0.30533346  0.13567954  0.49672244  1
  H+  H31  1  0.72738336  0.50205528  0.22057878  1
  H+  H32  1  0.84953195  0.15344120  0.48277436  1
  H+  H33  1  0.88621790  0.10813429  0.34797704  1
  H+  H34  1  0.48986554  0.83995870  0.73787843  1
  H+  H35  1  0.17923250  0.79721505  0.99695110  1
  H+  H36  1  0.14402131  0.18122508  0.72453335  1
  H+  H37  1  0.51177883  0.72460057  0.50166719  1
  H+  H38  1  0.87533925  0.76065653  0.33565520  1
  H+  H39  1  0.17836036  0.02264881  0.26897721  1
  H+  H40  1  1.03146766  0.17007597  0.24475681  1
  H+  H41  1  0.88607482  0.78081480  0.90874315  1
  H+  H42  1  0.46638484  0.52300834  0.28965955  1
  H+  H43  1  0.10591949  0.55636288  0.59747215  1
  H+  H44  1  0.69856052  0.84683138  0.24479450  1
  H+  H45  1  0.46882828  0.64030301  0.30175237  1
  H+  H46  1  0.13848757  0.50903432  0.50936328  1
  H+  H47  1  0.50213855  0.81205484  0.98684948  1
  H+  H48  1  0.56962045  0.80483646  0.36017730  1
  H+  H49  1  0.84931615  0.02837130  0.25833766  1
  H+  H50  1  0.82207501  0.51899514  0.50064934  1
  H+  H51  1  0.30526619  0.82702537  0.49766979  1
  H+  H52  1  0.28110774  0.47611832  0.29392578  1
  H+  H53  1  0.15456472  0.63067583  0.74448086  1
  H+  H54  1  0.36144461  0.51215481  0.74599979  1
  H+  H55  1  0.29554469  0.46699257  0.96001871  1
  H+  H56  1  0.81320740  0.84703954  0.01149366  1
  H+  H57  1  0.52356927  0.36437438  0.75704147  1
  H+  H58  1  0.82940319  0.18625450  0.23970818  1
  H+  H59  1  0.30719651  0.79597820  0.76345667  1
  H+  H60  1  0.53496606  0.54205218  0.53593269  1
  H+  H61  1  0.80082545  0.62675220  0.49894318  1
  H+  H62  1  0.17544473  0.35959206  0.74674179  1
  H+  H63  1  0.48269047  0.51060092  -0.03540705  1
  H+  H64  1  0.52309615  0.36089780  -0.00831819  1
  H+  H65  1  0.37760677  0.18562474  0.72835243  1
  H+  H66  1  0.55844479  0.85536708  0.50333094  1
  H+  H67  1  0.85163710  0.14772470  0.99011295  1
  H+  H68  1  0.98773199  0.48395872  0.75703623  1
  H+  H69  1  0.71163058  0.18692234  0.23956347  1
  H+  H70  1  0.03178304  0.17062118  0.01141115  1
  H+  H71  1  0.69478069  0.84405472  0.73450023  1
  H+  H72  1  0.52386618  0.82956153  0.26519662  1
  H+  H73  1  0.51931890  0.69252712  0.76146344  1
  H+  H74  1  0.96901482  0.49101428  0.49171920  1
  H+  H75  1  0.14834008  0.50834443  0.73521381  1
  H+  H76  1  0.19227127  0.71590250  0.26341048  1
  H+  H77  1  0.86154390  0.37258637  0.26168078  1
  H+  H78  1  0.64688512  0.45613302  0.46242696  1
  H+  H79  1  0.52181434  0.15129367  1.00474120  1
  H+  H80  1  0.15221984  0.62118509  0.00160105  1
  H+  H81  1  0.63987661  0.48242147  0.99270580  1
  H+  H82  1  0.53130910  0.03018842  0.25263301  1
  H+  H83  1  0.02945494  0.83992247  0.23997961  1
  H+  H84  1  0.18276693  0.14253378  0.27042192  1
  H+  H85  1  0.52825886  1.03608475  0.01517478  1
  H+  H86  1  0.14033204  0.95583854  0.51730388  1
  H+  H87  1  0.11245010  0.88154343  0.09906599  1
  H+  H88  1  0.29943766  0.79494941  1.00081262  1
  H+  H89  1  0.22099801  0.09821172  0.41109723  1
  H+  H90  1  0.55328487  0.51977064  0.57562470  1
  H+  H91  1  0.81853274  0.30734837  0.50652359  1
  H+  H92  1  0.37361565  0.17818579  0.00929821  1
  H+  H93  1  0.97069797  0.47807870  0.98261592  1
  H+  H94  1  0.03245817  0.84289560  0.01101118  1
  H+  H95  1  0.43909300  0.91006604  -0.03868422  1
  H+  H96  1  0.82073790  0.52008405  0.00568011  1
  H+  H97  1  0.70678770  0.18544054  0.01480056  1
  H+  H98  1  0.56170359  0.77848798  0.84737712  1
  H+  H99  1  0.50033965  0.01388831  0.76873546  1
  H+  H100  1  0.47748561  0.62787015  -0.03760933  1
  H+  H101  1  0.52998539  0.13755402  0.48455567  1
  H+  H102  1  0.23141958  0.12163313  0.64831776  1
  H+  H103  1  0.10860505  0.53915154  0.08704788  1
  H+  H104  1  0.84681346  0.82733992  0.77007601  1
  H+  H105  1  0.63235069  0.55836162  0.25347639  1
  H+  H106  1  0.69643178  0.53289641  0.73747624  1
  H+  H107  1  0.84821783  0.69933392  0.99661579  1
  H+  H108  1  0.52358278  0.43538390  0.44646364  1
  H+  H109  1  0.44898886  0.21524616  0.10060584  1
  H+  H110  1  0.77200252  0.88651977  0.09909016  1
  H+  H111  1  0.52102539  0.01715723  0.49222869  1
  H+  H112  1  0.57020425  0.10152737  0.34628290  1
  H+  H113  1  0.13037095  0.83472384  0.51509101  1
  H+  H114  1  0.79482471  0.56025527  0.10177491  1
  H+  H115  1  0.79227782  0.22942080  0.09986870  1
  H+  H116  1  0.40086557  0.96106764  0.57006337  1
  H+  H117  1  0.11278657  0.21006079  0.15729308  1
  H+  H118  1  0.41481332  0.58840630  0.60753286  1
  H+  H119  1  0.09673413  0.20994350  0.59503404  1
  H+  H120  1  0.44377936  0.88176541  0.65140859  1
  H+  H121  1  0.09599114  0.88121640  0.66550414  1
  H+  H122  1  0.14890944  0.28816110  0.00773631  1
  H+  H123  1  0.05655907  0.63332957  0.17202413  1
  H+  H124  1  0.22759324  0.75486888  0.85280001  1
  H+  H125  1  0.48868554  0.17387796  0.74577991  1
  H+  H126  1  0.72339712  0.80465831  0.50392606  1
  H+  H127  1  0.19383360  0.42997860  0.40644411  1
  H+  H128  1  0.17684659  0.03368480  0.72891174  1
  H+  H129  1  0.89826552  0.43510389  0.84788126  1
  H+  H130  1  0.54207395  0.09406175  0.85746551  1
  H+  H131  1  0.46033995  0.21271408  0.59901038  1
  H+  H132  1  0.78076674  0.86957446  0.64995812  1
  H+  H133  1  0.23517931  0.79143614  0.35494566  1
  H+  H134  1  0.80040836  0.23871780  0.64548044  1
  H+  H135  1  0.57295777  0.44459344  0.31003015  1
  H+  H136  1  0.55957836  0.44140572  0.84706930  1
  H+  H137  1  0.20955624  0.43034714  0.83970784  1
  H+  H138  1  0.39054938  0.54869368  0.15497280  1
  H+  H139  1  0.39346178  0.54038535  0.10429828  1
  H+  H140  1  0.19467825  0.02718185  0.99371227  1
  H+  H141  1  0.48011992  0.51209903  0.74186546  1
  H+  H142  1  0.77437482  0.57251244  0.64942576  1
  H+  H143  1  0.88321726  0.10406304  0.84781764  1
  O2-  O144  1  0.11358761  0.20843222  0.22532651  1
  O2-  O145  1  0.10010496  0.22127797  0.71066798  1
  O2-  O146  1  0.09294220  0.59372102  0.19935342  1
  O2-  O147  1  0.10657847  0.54948240  0.71727788  1
  O2-  O148  1  0.11068555  0.88680392  0.21991701  1
  O2-  O149  1  0.10386145  0.90460906  0.73007141  1
  O2-  O150  1  0.44102123  0.20044355  0.21340903  1
  O2-  O151  1  0.46086878  0.22325896  0.71501136  1
  O2-  O152  1  0.42370258  0.55763195  0.31638287  1
  O2-  O153  1  0.44173755  0.55573153  0.72302742  1
  O2-  O154  1  0.45262035  0.89271726  0.20791625  1
  O2-  O155  1  0.44445360  0.87682573  0.72058034  1
  O2-  O156  1  0.79243885  0.23024563  0.21689374  1
  O2-  O157  1  0.80772192  0.24379451  0.71396170  1
  O2-  O158  1  0.80768553  0.55785677  0.20915971  1
  O2-  O159  1  0.77624849  0.58291292  0.71581531  1
  O2-  O160  1  0.77686327  0.88433093  0.21708776  1
  O2-  O161  1  0.77717164  0.89013888  0.71377971  1
  O2-  O162  1  0.22075813  0.10090604  0.29610670  1
  O2-  O163  1  0.22696285  0.12059517  0.71467473  1
  O2-  O164  1  0.19602370  0.42883818  0.29798480  1
  O2-  O165  1  0.21635984  0.43933794  0.77135142  1
  O2-  O166  1  0.23687977  0.79581327  0.28616395  1
  O2-  O167  1  0.22672108  0.75011920  0.78542897  1
  O2-  O168  1  0.57223713  0.10931002  0.27823914  1
  O2-  O169  1  0.53239197  0.09386759  0.79089710  1
  O2-  O170  1  0.56774180  0.48049245  0.25261014  1
  O2-  O171  1  0.55650909  0.44473648  0.77900260  1
  O2-  O172  1  0.56499712  0.79276610  0.29273330  1
  O2-  O173  1  0.56515456  0.77548395  0.77878093  1
  O2-  O174  1  0.89074613  0.10965865  0.27848326  1
  O2-  O175  1  0.88571859  0.10903396  0.77947234  1
  O2-  O176  1  0.90069140  0.45236276  0.28560603  1
  O2-  O177  1  0.90367738  0.43414726  0.77893819  1
  O2-  O178  1  0.88135401  0.75995462  0.26934816  1
  O2-  O179  1  0.88636188  0.78705992  0.79361843  1
  O2-  O180  1  0.22260860  0.09882914  0.47997810  1
  O2-  O181  1  0.23779847  0.10868320  0.97528213  1
  O2-  O182  1  0.19863946  0.43605653  0.47588223  1
  O2-  O183  1  0.20931530  0.41922071  0.95260636  1
  O2-  O184  1  0.22445956  0.78365024  0.46999379  1
  O2-  O185  1  0.21641242  0.75302793  0.97680383  1
  O2-  O186  1  0.57227923  0.09897709  0.46395481  1
  O2-  O187  1  0.56606551  0.11204776  0.98558966  1
  O2-  O188  1  0.57187202  0.40307628  0.43126721  1
  O2-  O189  1  0.56218615  0.43955924  0.96478564  1
  O2-  O190  1  0.57866043  0.79990006  0.47973358  1
  O2-  O191  1  0.54888666  0.77597530  0.96077681  1
  O2-  O192  1  0.88172752  0.10775345  0.45663370  1
  O2-  O193  1  0.88841734  0.10515766  0.96492015  1
  O2-  O194  1  0.88750732  0.45118525  0.46884458  1
  O2-  O195  1  0.89015167  0.44132077  0.95928977  1
  O2-  O196  1  0.87331491  0.82279249  0.47143501  1
  O2-  O197  1  0.88850275  0.78163564  0.97713241  1
  O2-  O198  1  0.11091407  0.21047621  0.03647095  1
  O2-  O199  1  0.10100321  0.20962259  0.52692432  1
  O2-  O200  1  0.11035018  0.53674116  0.01963656  1
  O2-  O201  1  0.10391423  0.55693986  0.52944893  1
  O2-  O202  1  0.11378477  0.87680494  0.03133337  1
  O2-  O203  1  0.08989539  0.87503768  0.53723903  1
  O2-  O204  1  0.45523365  0.22029842  0.03200451  1
  O2-  O205  1  0.44922854  0.19976709  0.53117510  1
  O2-  O206  1  0.43160280  0.54311328  -0.04218081  1
  O2-  O207  1  0.40169327  0.61514986  0.54846767  1
  O2-  O208  1  0.43381353  0.86926442  0.01765234  1
  O2-  O209  1  0.42879162  0.91285806  0.54437286  1
  O2-  O210  1  0.79010155  0.22735150  0.03139213  1
  O2-  O211  1  0.78555184  0.22898567  0.53294256  1
  O2-  O212  1  0.78251342  0.55975950  0.03227654  1
  O2-  O213  1  0.76784000  0.54727947  0.51875257  1
  O2-  O214  1  0.77184099  0.88794160  0.03091956  1
  O2-  O215  1  0.78173039  0.79496794  0.53859178  1
