# generated using pymatgen
data_H2O
_symmetry_space_group_name_H-M   'P 1'
_cell_length_a   13.50851203
_cell_length_b   13.51698150
_cell_length_c   14.67755771
_cell_angle_alpha   89.94100149
_cell_angle_beta   90.01694682
_cell_angle_gamma   119.97853430
_symmetry_Int_Tables_number   1
_chemical_formula_structural   H2O
_chemical_formula_sum   'H144 O72'
_cell_volume   2321.48197530
_cell_formula_units_Z   72
loop_
 _symmetry_equiv_pos_site_id
 _symmetry_equiv_pos_as_xyz
  1  'x, y, z'
loop_
 _atom_type_symbol
 _atom_type_oxidation_number
  H+  1.0
  O2-  -2.0
loop_
 _atom_site_type_symbol
 _atom_site_label
 _atom_site_symmetry_multiplicity
 _atom_site_fract_x
 _atom_site_fract_y
 _atom_site_fract_z
 _atom_site_occupancy
  H+  H0  1  0.12900327  0.16249106  -0.00065205  1
  H+  H1  1  0.18242253  0.15372608  0.50144582  1
  H+  H2  1  0.55875815  0.90086910  0.23936897  1
  H+  H3  1  0.32721372  0.82199230  0.76002405  1
  H+  H4  1  0.87272092  0.71481883  0.76796259  1
  H+  H5  1  0.17456004  0.83158552  0.49956714  1
  H+  H6  1  0.13012452  0.62633692  0.23608985  1
  H+  H7  1  0.83017760  0.52592627  0.23475180  1
  H+  H8  1  0.36122557  0.18132905  0.50450341  1
  H+  H9  1  0.50714190  0.36848254  0.49943547  1
  H+  H10  1  0.97715159  0.44758325  0.46727695  1
  H+  H11  1  0.85802921  0.52796296  0.76843216  1
  H+  H12  1  0.98899606  0.48670454  0.23239980  1
  H+  H13  1  0.35989829  0.17975879  0.73319658  1
  H+  H14  1  0.71640475  0.85396818  0.73312044  1
  H+  H15  1  0.79299840  0.89276621  0.63758078  1
  H+  H16  1  0.48394838  0.67581669  0.17139830  1
  H+  H17  1  0.12663320  0.80119098  0.26861578  1
  H+  H18  1  0.54158054  0.83077806  0.50888812  1
  H+  H19  1  0.84909297  0.14336953  0.49107013  1
  H+  H20  1  0.82529107  -0.03381728  0.52105470  1
  H+  H21  1  0.48163487  0.29995807  -0.00631003  1
  H+  H22  1  0.68307880  0.16332431  0.50747948  1
  H+  H23  1  0.83199990  0.51223218  0.45096487  1
  H+  H24  1  0.17060883  0.16072914  0.26744896  1
  H+  H25  1  0.84048329  0.85901841  0.24186338  1
  H+  H26  1  0.60829829  0.15755338  0.26224629  1
  H+  H27  1  0.61469066  0.13190032  0.98222515  1
  H+  H28  1  0.03089983  0.86216991  0.01207324  1
  H+  H29  1  0.14579044  0.97343963  0.51232236  1
  H+  H30  1  0.82755085  0.51752452  1.00717916  1
  H+  H31  1  0.56453866  0.77551611  0.89212246  1
  H+  H32  1  0.97189110  0.48561108  0.99835085  1
  H+  H33  1  0.48776802  0.94712524  0.00634046  1
  H+  H34  1  0.47361583  0.52160387  0.50784683  1
  H+  H35  1  0.80998426  0.27191630  0.50312818  1
  H+  H36  1  0.50696136  0.14690050  0.48806135  1
  H+  H37  1  0.03835790  0.19223864  0.50900649  1
  H+  H38  1  0.85407270  0.70206140  0.26847935  1
  H+  H39  1  0.09141959  0.71400280  0.92903493  1
  H+  H40  1  0.14599987  0.31563614  0.22321171  1
  H+  H41  1  0.50617210  0.32846432  0.25967079  1
  H+  H42  1  0.34402031  0.44983176  0.21819115  1
  H+  H43  1  0.84013739  0.82836458  0.50258765  1
  H+  H44  1  0.18377630  0.49108989  0.24754236  1
  H+  H45  1  0.85228654  0.01770638  0.75845611  1
  H+  H46  1  0.66465911  0.83162544  0.51458468  1
  H+  H47  1  0.76640338  0.24931105  0.74767079  1
  H+  H48  1  0.61191525  0.49594440  0.52172982  1
  H+  H49  1  0.52900957  0.48322337  0.96565648  1
  H+  H50  1  0.34367347  0.83928360  0.19989250  1
  H+  H51  1  0.02640053  0.17712175  0.74138969  1
  H+  H52  1  0.40038403  0.37553384  0.18841640  1
  H+  H53  1  0.14065217  0.30064141  0.74381298  1
  H+  H54  1  0.80056201  0.52167145  0.48949727  1
  H+  H55  1  0.73237051  0.87356818  0.25164647  1
  H+  H56  1  0.18391489  0.03854820  0.75629861  1
  H+  H57  1  0.38461582  0.85599398  0.55692642  1
  H+  H58  1  0.83307569  1.01567829  -0.00906695  1
  H+  H59  1  0.87587689  0.41924284  0.73256683  1
  H+  H60  1  0.48888054  0.12612550  0.75281098  1
  H+  H61  1  0.78129054  0.66068577  0.54669082  1
  H+  H62  1  0.63772690  0.45890025  0.74228314  1
  H+  H63  1  0.75847704  0.57010976  0.81437555  1
  H+  H64  1  0.27952294  0.47376057  0.75729838  1
  H+  H65  1  0.02086080  0.86161445  0.24347957  1
  H+  H66  1  0.18545286  0.37355911  0.48756111  1
  H+  H67  1  0.17809702  0.15519421  0.75390702  1
  H+  H68  1  1.15321940  0.51775156  0.50625520  1
  H+  H69  1  0.80719881  0.17866892  0.01024849  1
  H+  H70  1  0.16840394  0.03958196  0.98509402  1
  H+  H71  1  0.13617056  0.62155057  0.01684440  1
  H+  H72  1  0.83974688  0.12890039  0.76152377  1
  H+  H73  1  0.64371475  0.80713859  -0.01911427  1
  H+  H74  1  0.87809806  0.41594430  0.17401870  1
  H+  H75  1  0.56365127  0.74936071  0.29147047  1
  H+  H76  1  0.82093650  0.84318763  0.00977780  1
  H+  H77  1  0.59048738  0.09981665  0.75150917  1
  H+  H78  1  0.50362499  0.90662282  0.14106640  1
  H+  H79  1  0.84346099  0.14374120  0.25623296  1
  H+  H80  1  0.04723688  0.85760242  0.74482816  1
  H+  H81  1  0.87073750  0.83384748  0.75839095  1
  H+  H82  1  0.16917883  0.86180746  0.73722485  1
  H+  H83  1  0.85845851  0.70022406  0.98765173  1
  H+  H84  1  0.43942813  0.66682780  0.20643812  1
  H+  H85  1  0.99504723  0.15457486  1.00762580  1
  H+  H86  1  0.44450134  0.63139651  0.72827842  1
  H+  H87  1  0.28176591  0.81360819  0.21320352  1
  H+  H88  1  0.02786584  0.19555827  0.22997817  1
  H+  H89  1  0.95413926  0.81590773  0.49790033  1
  H+  H90  1  0.16434621  0.47461376  0.76323009  1
  H+  H91  1  0.48797714  0.61708667  -0.00839778  1
  H+  H92  1  0.04168562  0.54341874  0.74242056  1
  H+  H93  1  0.20795570  0.11047259  0.40849008  1
  H+  H94  1  0.80331424  0.27953674  0.24383799  1
  H+  H95  1  0.86699041  0.03873226  0.25538602  1
  H+  H96  1  0.48676212  0.97221207  0.51433555  1
  H+  H97  1  0.15627324  0.48085593  0.00366911  1
  H+  H98  1  0.11363028  0.56317199  0.65024498  1
  H+  H99  1  0.52812335  0.48753728  0.26787623  1
  H+  H100  1  0.71461099  0.53128920  0.24728586  1
  H+  H101  1  0.50826698  0.03619826  0.25421926  1
  H+  H102  1  0.64833679  0.48419038  0.97538745  1
  H+  H103  1  0.16211666  0.03888456  0.26954852  1
  H+  H104  1  0.14211234  0.62996553  0.50688310  1
  H+  H105  1  0.44981892  0.20728700  0.21525266  1
  H+  H106  1  0.20455787  0.70897291  0.74869868  1
  H+  H107  1  0.49544545  0.83320434  1.00757265  1
  H+  H108  1  0.76152420  0.20828686  0.15198344  1
  H+  H109  1  0.87578507  0.09505920  0.90060016  1
  H+  H110  1  0.09202174  0.21414444  0.09812859  1
  H+  H111  1  0.30082082  0.49554526  0.48197147  1
  H+  H112  1  0.57227438  0.47302518  0.36728278  1
  H+  H113  1  0.43914058  0.21540491  0.59356215  1
  H+  H114  1  0.60662410  0.81912700  0.38358149  1
  H+  H115  1  0.21777128  0.44664283  0.33752862  1
  H+  H116  1  0.28424341  0.83831285  0.44839403  1
  H+  H117  1  0.42953143  0.51379788  0.06297027  1
  H+  H118  1  0.56400673  0.42490314  0.83243742  1
  H+  H119  1  0.48643900  0.28896168  0.73012596  1
  H+  H120  1  0.41335634  0.55646454  0.63980160  1
  H+  H121  1  0.10302266  0.90334452  0.15455253  1
  H+  H122  1  0.78585756  0.56168000  0.09323010  1
  H+  H123  1  0.53343886  0.08133775  0.89459354  1
  H+  H124  1  0.90063086  0.78746899  0.90097073  1
  H+  H125  1  0.89787926  0.11673407  0.40122887  1
  H+  H126  1  0.20537244  0.44432835  0.92043046  1
  H+  H127  1  0.10273918  0.55315552  0.13479006  1
  H+  H128  1  0.49012862  0.64802075  0.50779342  1
  H+  H129  1  0.78124669  0.88327354  0.09909079  1
  H+  H130  1  0.11165556  0.89447760  0.60171827  1
  H+  H131  1  0.75192336  0.59161892  0.64143361  1
  H+  H132  1  0.89356870  0.44756174  0.90432888  1
  H+  H133  1  0.81275902  0.29952922  0.00907234  1
  H+  H134  1  0.14998271  0.86823000  0.00855252  1
  H+  H135  1  0.14693787  0.74697132  0.35880304  1
  H+  H136  1  0.21202774  0.78320081  0.88661345  1
  H+  H137  1  0.35655290  0.20000757  1.00106833  1
  H+  H138  1  0.75674008  0.19351817  0.64883543  1
  H+  H139  1  0.90376229  0.40232086  0.37650804  1
  H+  H140  1  0.88261434  0.77861258  0.36092269  1
  H+  H141  1  0.53729609  0.10221423  0.39720941  1
  H+  H142  1  0.20297648  0.11710540  0.89271533  1
  H+  H143  1  0.11303025  0.23135867  0.60037243  1
  O2-  O144  1  0.10518249  0.23434014  0.20032560  1
  O2-  O145  1  0.10612203  0.22064094  0.71738045  1
  O2-  O146  1  0.10927089  0.55016936  0.20987199  1
  O2-  O147  1  0.12141692  0.57369536  0.71770294  1
  O2-  O148  1  0.10214846  0.90355644  0.22241180  1
  O2-  O149  1  0.12608687  0.89976157  0.71709631  1
  O2-  O150  1  0.43569910  0.26949262  0.23063715  1
  O2-  O151  1  0.43697169  0.20765750  0.70629887  1
  O2-  O152  1  0.41267862  0.45438566  0.18954027  1
  O2-  O153  1  0.40387589  0.55242796  0.70728076  1
  O2-  O154  1  0.51404694  0.92932349  0.20790483  1
  O2-  O155  1  0.49475811  0.86070999  0.74262137  1
  O2-  O156  1  0.75982656  0.20078962  0.22035851  1
  O2-  O157  1  0.75130861  0.17950591  0.71680939  1
  O2-  O158  1  0.79161662  0.56925935  0.21673046  1
  O2-  O159  1  0.80062081  0.58093829  0.75778831  1
  O2-  O160  1  0.80481117  0.90269097  0.21534497  1
  O2-  O161  1  0.79629132  0.89376530  0.71375648  1
  O2-  O162  1  0.19052770  0.11165170  0.30335665  1
  O2-  O163  1  0.22029905  0.11820342  0.78049919  1
  O2-  O164  1  0.21871605  0.44466432  0.26976627  1
  O2-  O165  1  0.20009018  0.42979804  0.78385552  1
  O2-  O166  1  0.12748122  0.73313138  0.29391346  1
  O2-  O167  1  0.24546213  0.79009586  0.77222588  1
  O2-  O168  1  0.52812666  0.11208987  0.28251686  1
  O2-  O169  1  0.51572206  0.07552106  0.77930547  1
  O2-  O170  1  0.58931105  0.48096614  0.30042515  1
  O2-  O171  1  0.55891099  0.41437414  0.76446444  1
  O2-  O172  1  0.61554031  0.82616506  0.31343755  1
  O2-  O173  1  0.53371010  0.79666728  0.76472712  1
  O2-  O174  1  0.89730503  0.11850564  0.27881440  1
  O2-  O175  1  0.88668649  0.09728349  0.78646723  1
  O2-  O176  1  0.89749995  0.43881524  0.23758759  1
  O2-  O177  1  0.90630270  0.47849992  0.77892834  1
  O2-  O178  1  0.88937037  0.78192582  0.29221601  1
  O2-  O179  1  0.91482641  0.79957083  0.78631173  1
  O2-  O180  1  0.21723128  0.10887315  0.47742068  1
  O2-  O181  1  0.19617081  0.11858280  0.96113647  1
  O2-  O182  1  0.21922077  0.45202220  0.46071751  1
  O2-  O183  1  0.20124045  0.44292907  0.98719408  1
  O2-  O184  1  0.21183869  0.78568710  0.47734818  1
  O2-  O185  1  0.17021476  0.76725859  0.94599334  1
  O2-  O186  1  0.54392360  0.10281504  0.46585922  1
  O2-  O187  1  0.53848270  0.07356141  0.96173349  1
  O2-  O188  1  0.54307335  0.45077541  0.48173840  1
  O2-  O189  1  0.57380123  0.44510604  0.94370491  1
  O2-  O190  1  0.58250621  0.79189117  0.48534065  1
  O2-  O191  1  0.56351618  0.76351095  0.95803040  1
  O2-  O192  1  0.90077936  0.11590405  0.46899457  1
  O2-  O193  1  0.87346128  0.09720100  0.96929314  1
  O2-  O194  1  0.91025808  0.38134424  0.43900430  1
  O2-  O195  1  0.88764499  0.44183917  0.97166705  1
  O2-  O196  1  0.87452316  0.77976243  0.47541976  1
  O2-  O197  1  0.89673827  0.78306769  0.96955770  1
  O2-  O198  1  0.07862263  0.19392152  0.02941554  1
  O2-  O199  1  0.11894394  0.23480513  0.53224088  1
  O2-  O200  1  0.08545489  0.54588426  0.04261563  1
  O2-  O201  1  0.10549760  0.55065941  0.52964670  1
  O2-  O202  1  0.11166682  0.90857867  0.03457433  1
  O2-  O203  1  0.10715875  0.89132967  0.53354013  1
  O2-  O204  1  0.43348310  0.22651819  0.02488231  1
  O2-  O205  1  0.44292412  0.22203790  0.52499965  1
  O2-  O206  1  0.45530707  0.53394418  -0.00044689  1
  O2-  O207  1  0.43482158  0.56636811  0.52335318  1
  O2-  O208  1  0.45996636  0.87218477  0.03904512  1
  O2-  O209  1  0.46513600  0.89559356  0.54082335  1
  O2-  O210  1  0.77055904  0.22061600  0.03533709  1
  O2-  O211  1  0.76134960  0.19752514  0.53499758  1
  O2-  O212  1  0.78983324  0.56297946  0.02546892  1
  O2-  O213  1  0.72205787  0.59325476  0.58048166  1
  O2-  O214  1  0.77695247  0.88069417  0.03087113  1
  O2-  O215  1  0.78542840  0.88791929  0.54574721  1
