# generated using pymatgen
data_H2O
_symmetry_space_group_name_H-M   'P 1'
_cell_length_a   13.52754979
_cell_length_b   13.53110322
_cell_length_c   14.69657948
_cell_angle_alpha   89.99791721
_cell_angle_beta   89.99613970
_cell_angle_gamma   120.05628763
_symmetry_Int_Tables_number   1
_chemical_formula_structural   H2O
_chemical_formula_sum   'H144 O72'
_cell_volume   2328.37344462
_cell_formula_units_Z   72
loop_
 _symmetry_equiv_pos_site_id
 _symmetry_equiv_pos_as_xyz
  1  'x, y, z'
loop_
 _atom_type_symbol
 _atom_type_oxidation_number
  H+  1.0
  O2-  -2.0
loop_
 _atom_site_type_symbol
 _atom_site_label
 _atom_site_symmetry_multiplicity
 _atom_site_fract_x
 _atom_site_fract_y
 _atom_site_fract_z
 _atom_site_occupancy
  H+  H0  1  0.13531348  0.29009409  0.01424421  1
  H+  H1  1  0.79184599  0.12096868  0.74667970  1
  H+  H2  1  0.46879347  0.82991790  0.50794190  1
  H+  H3  1  0.79917051  0.95726953  0.02121201  1
  H+  H4  1  0.46448638  0.55740377  0.76151039  1
  H+  H5  1  0.47600524  0.85380134  0.74398280  1
  H+  H6  1  1.00092126  0.46614477  0.49637272  1
  H+  H7  1  0.89013852  0.14840960  0.53911773  1
  H+  H8  1  0.30327286  0.03779294  0.42714716  1
  H+  H9  1  0.84976698  0.81656657  0.47890998  1
  H+  H10  1  0.17886245  0.03831668  0.77286639  1
  H+  H11  1  0.49433157  0.51587625  0.52463713  1
  H+  H12  1  0.61464634  0.83181968  0.74189943  1
  H+  H13  1  0.79155788  0.82249737  0.24079657  1
  H+  H14  1  0.68641246  0.17533840  0.24322254  1
  H+  H15  1  0.27982369  0.45630101  0.76198891  1
  H+  H16  1  0.78219311  0.33026391  0.47046626  1
  H+  H17  1  0.16300155  0.33135549  0.76594332  1
  H+  H18  1  0.80020141  0.96230174  0.72620687  1
  H+  H19  1  0.43761207  0.46862970  1.05123689  1
  H+  H20  1  1.02343920  0.84189007  0.50945614  1
  H+  H21  1  0.19891155  0.65776914  0.52998577  1
  H+  H22  1  0.19555149  0.61634379  0.79251614  1
  H+  H23  1  0.19913390  0.09087264  -0.07785333  1
  H+  H24  1  0.12569963  0.16738333  0.02458753  1
  H+  H25  1  1.17516126  0.22488051  0.24965847  1
  H+  H26  1  0.17128951  1.05093871  0.24356600  1
  H+  H27  1  0.47373162  0.28261346  0.73626822  1
  H+  H28  1  0.18946524  0.99842864  0.48102292  1
  H+  H29  1  0.17124362  0.48075861  0.99487365  1
  H+  H30  1  0.47714190  0.94914818  0.23971356  1
  H+  H31  1  0.82527770  0.12170303  0.26710679  1
  H+  H32  1  0.21653802  0.50190102  0.50145631  1
  H+  H33  1  0.93334586  0.62991428  0.15606753  1
  H+  H34  1  0.14538319  0.88795754  0.19592025  1
  H+  H35  1  0.99409253  0.15181006  0.77606450  1
  H+  H36  1  0.61679464  0.48033973  0.26418358  1
  H+  H37  1  0.49844002  0.14185029  0.76774559  1
  H+  H38  1  0.38642460  0.56768885  0.26194370  1
  H+  H39  1  0.86752412  0.84528247  0.98069826  1
  H+  H40  1  0.69829584  0.52415342  0.50967203  1
  H+  H41  1  0.53951484  0.74936321  0.39778917  1
  H+  H42  1  0.76639498  0.87523748  0.58657941  1
  H+  H43  1  0.34082205  0.85296481  0.75159476  1
  H+  H44  1  1.00730712  0.51974383  0.77123020  1
  H+  H45  1  0.30581697  0.81018385  0.26207160  1
  H+  H46  1  0.50630925  0.75682276  0.98370226  1
  H+  H47  1  0.95246915  0.15285243  1.01656590  1
  H+  H48  1  0.61196247  0.12831093  0.76594025  1
  H+  H49  1  0.79635513  0.57218838  0.58670272  1
  H+  H50  1  0.31891421  0.48361875  1.03448774  1
  H+  H51  1  1.03020905  0.52354885  1.01563644  1
  H+  H52  1  0.35423357  0.17705713  0.51131901  1
  H+  H53  1  0.67481268  0.16502584  0.02356166  1
  H+  H54  1  0.85528502  0.72401271  0.75742331  1
  H+  H55  1  0.31978878  0.48314578  0.49232618  1
  H+  H56  1  0.88170716  0.41502240  0.77347262  1
  H+  H57  1  1.02452204  0.86880974  0.74203294  1
  H+  H58  1  0.34944695  0.17177327  0.75481130  1
  H+  H59  1  0.60381267  0.76475174  0.24792973  1
  H+  H60  1  0.33617907  0.15269723  0.02303419  1
  H+  H61  1  0.54755768  0.46768969  0.67827296  1
  H+  H62  1  0.79908424  0.84603230  0.73339811  1
  H+  H63  1  0.49992543  0.13899096  1.00429794  1
  H+  H64  1  1.07277064  0.15308200  0.68453438  1
  H+  H65  1  0.17727665  0.15360612  0.78299224  1
  H+  H66  1  0.79793725  0.45554331  0.46713743  1
  H+  H67  1  0.47916172  0.95342699  0.00904762  1
  H+  H68  1  0.43500305  0.86658618  0.09087692  1
  H+  H69  1  0.82284202  0.96162260  0.50511626  1
  H+  H70  1  0.16972239  0.31496793  0.50550238  1
  H+  H71  1  0.86052878  0.55873148  0.73148214  1
  H+  H72  1  0.61983437  0.75845231  -0.00505873  1
  H+  H73  1  0.24614887  0.47440653  0.35431515  1
  H+  H74  1  0.81213555  0.29335668  0.23989316  1
  H+  H75  1  0.84795920  0.49225458  -0.00278547  1
  H+  H76  1  0.17837631  0.81622248  0.48782293  1
  H+  H77  1  0.15582531  0.49165013  0.76223766  1
  H+  H78  1  0.21844011  0.10294266  0.34248711  1
  H+  H79  1  0.90089111  0.03070842  0.83134726  1
  H+  H80  1  0.87245612  0.48345618  0.24471898  1
  H+  H81  1  0.50837160  0.36375621  0.50076104  1
  H+  H82  1  0.66778579  0.48721713  0.02497215  1
  H+  H83  1  0.73294351  0.53180942  0.72137531  1
  H+  H84  1  -0.00837793  0.51137217  0.51775920  1
  H+  H85  1  0.96851604  0.84315907  0.24332516  1
  H+  H86  1  1.04076141  0.51635523  0.25207873  1
  H+  H87  1  0.17216866  0.73494628  0.75534904  1
  H+  H88  1  0.30357824  0.82370243  0.48467674  1
  H+  H89  1  0.31013638  0.80478675  0.97834174  1
  H+  H90  1  0.10169907  0.88648885  0.60107772  1
  H+  H91  1  0.50334411  0.13233043  0.24289421  1
  H+  H92  1  0.21750487  0.40486249  0.26014396  1
  H+  H93  1  0.59007133  0.13154100  0.47505442  1
  H+  H94  1  0.86867008  0.66269153  0.22707251  1
  H+  H95  1  0.48932457  0.71907143  0.74903999  1
  H+  H96  1  0.80331528  0.16779111  0.02396503  1
  H+  H97  1  0.14475638  0.87141567  0.75087251  1
  H+  H98  1  0.49571431  0.16608347  0.47417931  1
  H+  H99  1  0.85182394  0.69963919  0.47687330  1
  H+  H100  1  0.46981153  0.29091480  0.24254463  1
  H+  H101  1  0.77406997  0.92965955  0.24821156  1
  H+  H102  1  0.75788011  0.13848198  0.48071516  1
  H+  H103  1  0.49207528  0.63375209  0.51976889  1
  H+  H104  1  0.46907638  0.32963569  1.01953001  1
  H+  H105  1  0.63101941  0.80899428  0.47793780  1
  H+  H106  1  0.79573682  0.23244046  0.71749336  1
  H+  H107  1  0.46816561  0.82457728  0.23849170  1
  H+  H108  1  0.42450036  0.21236882  0.60511107  1
  H+  H109  1  0.12830586  0.25666506  0.16289945  1
  H+  H110  1  0.43158304  0.56404820  0.65733404  1
  H+  H111  1  0.21570418  0.43415999  0.91032157  1
  H+  H112  1  0.87468703  0.08738831  0.35097902  1
  H+  H113  1  0.22261742  0.77756250  0.35851976  1
  H+  H114  1  0.75829687  0.20675223  0.12133421  1
  H+  H115  1  0.14692079  0.25373841  0.59926421  1
  H+  H116  1  0.77238563  0.55437092  0.09127808  1
  H+  H117  1  0.76315509  0.86833546  0.10183150  1
  H+  H118  1  0.51543915  0.50463854  0.26946729  1
  H+  H119  1  0.22404859  0.78312675  0.86104087  1
  H+  H120  1  0.11493405  0.94897424  0.11393361  1
  H+  H121  1  0.89630960  0.81312151  0.84461153  1
  H+  H122  1  0.90093058  0.78855028  0.33830300  1
  H+  H123  1  0.50240679  0.42607223  0.94364249  1
  H+  H124  1  0.54754577  0.44363587  0.41217245  1
  H+  H125  1  0.42249219  0.56203180  0.11835158  1
  H+  H126  1  0.18677343  0.68734160  0.97960236  1
  H+  H127  1  0.54491612  0.10744446  0.91445725  1
  H+  H128  1  0.42972260  0.87527821  0.59271639  1
  H+  H129  1  0.17677473  0.58915222  0.62343411  1
  H+  H130  1  0.53624385  0.10154150  0.33605183  1
  H+  H131  1  0.42079203  0.19945165  0.10967567  1
  H+  H132  1  0.88081321  0.11972865  0.92404852  1
  H+  H133  1  0.73298748  0.15699380  0.58373084  1
  H+  H134  1  0.34946814  0.17542306  0.24436414  1
  H+  H135  1  0.46659103  -0.02301600  0.75080272  1
  H+  H136  1  0.86620564  0.42150015  0.33774769  1
  H+  H137  1  0.91311462  0.48614135  0.91073642  1
  H+  H138  1  0.16856752  0.53229299  0.25193962  1
  H+  H139  1  0.17765690  0.68344333  0.26516801  1
  H+  H140  1  0.56699825  0.47197009  0.78357882  1
  H+  H141  1  1.00140926  0.88885631  0.96567732  1
  H+  H142  1  0.11852620  0.56268371  0.10053267  1
  H+  H143  1  0.99925701  0.15289773  0.50314182  1
  O2-  O144  1  0.15149304  0.27890883  0.22685111  1
  O2-  O145  1  0.09008403  0.19642517  0.74112025  1
  O2-  O146  1  0.12175855  0.56805542  0.23109521  1
  O2-  O147  1  0.14150942  0.55816904  0.75068861  1
  O2-  O148  1  0.10269783  0.92729698  0.18469314  1
  O2-  O149  1  0.10630965  0.90825732  0.72013973  1
  O2-  O150  1  0.43109419  0.21128176  0.22080324  1
  O2-  O151  1  0.42686523  0.19991547  0.72479832  1
  O2-  O152  1  0.46800578  0.60729441  0.23519958  1
  O2-  O153  1  0.41397868  0.57172704  0.72359266  1
  O2-  O154  1  0.42926312  0.86714260  0.22022962  1
  O2-  O155  1  0.42498150  0.89497313  0.72529909  1
  O2-  O156  1  0.76676223  0.21149586  0.21899175  1
  O2-  O157  1  0.74690785  0.14975990  0.71304977  1
  O2-  O158  1  0.86367203  0.59558460  0.19254721  1
  O2-  O159  1  0.81213833  0.58789751  0.70455553  1
  O2-  O160  1  0.73915862  0.85074558  0.22178354  1
  O2-  O161  1  0.75526856  0.88203381  0.70595170  1
  O2-  O162  1  0.21892758  0.12431628  0.27759882  1
  O2-  O163  1  0.22204884  0.11549289  0.80234309  1
  O2-  O164  1  0.25342486  0.48617868  0.28649784  1
  O2-  O165  1  0.20367377  0.41196097  0.79114068  1
  O2-  O166  1  0.22336141  0.77064636  0.28684139  1
  O2-  O167  1  0.22510351  0.80427968  0.78808876  1
  O2-  O168  1  0.54413976  0.09419081  0.26802613  1
  O2-  O169  1  0.53501696  0.09799627  0.79305965  1
  O2-  O170  1  0.53892173  0.44829165  0.28683261  1
  O2-  O171  1  0.57549029  0.43890494  0.72719490  1
  O2-  O172  1  0.52099277  0.72554766  0.27113072  1
  O2-  O173  1  0.53448173  0.80170399  0.76416218  1
  O2-  O174  1  0.84565576  0.06524626  0.28899599  1
  O2-  O175  1  0.89744564  0.09620450  0.80687748  1
  O2-  O176  1  0.89655128  0.43197498  0.27314245  1
  O2-  O177  1  0.92582666  0.49641039  0.78627043  1
  O2-  O178  1  0.89373430  0.78574023  0.27029738  1
  O2-  O179  1  0.88554302  0.80519262  0.77406502  1
  O2-  O180  1  0.25184857  0.06503827  0.44626379  1
  O2-  O181  1  0.19550443  0.09318927  0.99023787  1
  O2-  O182  1  0.24094271  0.45235327  0.46838062  1
  O2-  O183  1  0.21382678  0.43948334  0.97800414  1
  O2-  O184  1  0.22257551  0.78340573  0.45869651  1
  O2-  O185  1  0.23146716  0.76409471  0.95053996  1
  O2-  O186  1  0.51974853  0.11640971  0.44336746  1
  O2-  O187  1  0.54700993  0.10546402  0.98208569  1
  O2-  O188  1  0.55349920  0.44531393  0.47960410  1
  O2-  O189  1  0.50468780  0.41610864  1.00905914  1
  O2-  O190  1  0.54758544  0.76156594  0.46443292  1
  O2-  O191  1  0.53776881  0.70549896  0.98393849  1
  O2-  O192  1  0.91344564  0.11137041  0.49379794  1
  O2-  O193  1  0.87203608  0.11624337  0.99183595  1
  O2-  O194  1  0.79060560  0.39121958  0.42956322  1
  O2-  O195  1  0.90596546  0.47174441  0.97666842  1
  O2-  O196  1  0.89495424  0.78142122  0.45623455  1
  O2-  O197  1  0.92218258  0.83270015  0.94416772  1
  O2-  O198  1  0.09116214  0.21438442  0.04382954  1
  O2-  O199  1  0.13439363  0.23721702  0.53428887  1
  O2-  O200  1  0.11439012  0.55651718  0.03341034  1
  O2-  O201  1  0.21354569  0.60327641  0.56353426  1
  O2-  O202  1  0.13140556  0.96954600  0.01430457  1
  O2-  O203  1  0.10369600  0.87797070  0.53363696  1
  O2-  O204  1  0.41905207  0.19878084  0.04083669  1
  O2-  O205  1  0.43022334  0.22999553  0.53893214  1
  O2-  O206  1  0.38238591  0.49164067  0.08010482  1
  O2-  O207  1  0.45556150  0.55685883  0.55016829  1
  O2-  O208  1  0.43966516  0.87077353  0.02378462  1
  O2-  O209  1  0.42830826  0.87083841  0.52619976  1
  O2-  O210  1  0.75582925  0.20351301  0.04905633  1
  O2-  O211  1  0.73515518  0.18176848  0.52013410  1
  O2-  O212  1  0.75142373  0.53238356  0.02715414  1
  O2-  O213  1  0.78256755  0.56482831  0.51967786  1
  O2-  O214  1  0.77107601  0.87593594  0.03444692  1
  O2-  O215  1  0.77266496  0.87894714  0.51877416  1
