# generated using pymatgen
data_H2O
_symmetry_space_group_name_H-M   'P 1'
_cell_length_a   13.51621377
_cell_length_b   13.51598102
_cell_length_c   14.69806208
_cell_angle_alpha   89.92548982
_cell_angle_beta   90.03924177
_cell_angle_gamma   119.99122640
_symmetry_Int_Tables_number   1
_chemical_formula_structural   H2O
_chemical_formula_sum   'H144 O72'
_cell_volume   2325.58038186
_cell_formula_units_Z   72
loop_
 _symmetry_equiv_pos_site_id
 _symmetry_equiv_pos_as_xyz
  1  'x, y, z'
loop_
 _atom_type_symbol
 _atom_type_oxidation_number
  H+  1.0
  O2-  -2.0
loop_
 _atom_site_type_symbol
 _atom_site_label
 _atom_site_symmetry_multiplicity
 _atom_site_fract_x
 _atom_site_fract_y
 _atom_site_fract_z
 _atom_site_occupancy
  H+  H0  1  0.19687857  0.48600079  0.75263609  1
  H+  H1  1  0.20054551  0.85225691  0.51751921  1
  H+  H2  1  0.83139857  0.35451323  0.99760523  1
  H+  H3  1  0.06368597  0.86038473  0.52570622  1
  H+  H4  1  0.35889640  0.85444968  0.53778256  1
  H+  H5  1  0.32088465  0.83523758  0.74050453  1
  H+  H6  1  0.07495840  0.60389965  0.24719968  1
  H+  H7  1  0.16315440  0.96294989  0.19114048  1
  H+  H8  1  0.48282818  0.28661699  0.75520430  1
  H+  H9  1  0.54760785  0.75924297  0.33609086  1
  H+  H10  1  0.07572481  0.24434498  0.14364710  1
  H+  H11  1  0.59506080  0.80351049  0.48465357  1
  H+  H12  1  0.17299416  0.52329419  0.03387914  1
  H+  H13  1  0.83683201  0.53071485  0.47835035  1
  H+  H14  1  0.49946673  0.18505498  0.23335576  1
  H+  H15  1  0.22749047  0.10765392  0.10563752  1
  H+  H16  1  0.19299199  0.49736154  0.27852459  1
  H+  H17  1  0.73541314  0.81557472  0.55787653  1
  H+  H18  1  0.80602585  0.16923980  0.01586339  1
  H+  H19  1  0.21798215  0.72649785  0.26111066  1
  H+  H20  1  0.31148786  0.48040611  0.75826464  1
  H+  H21  1  0.52504852  0.67711133  -0.01429519  1
  H+  H22  1  0.68876234  0.14992900  0.25507293  1
  H+  H23  1  0.36582666  0.50809448  0.01454981  1
  H+  H24  1  0.36024531  0.49167953  0.51287526  1
  H+  H25  1  0.16851915  0.79743990  0.97521954  1
  H+  H26  1  0.81774076  0.25042265  0.25585432  1
  H+  H27  1  0.62516090  0.80210743  0.75770440  1
  H+  H28  1  0.60398300  0.47763297  0.29617812  1
  H+  H29  1  0.91962690  0.80897819  0.34065161  1
  H+  H30  1  0.81722498  0.50632080  0.97277843  1
  H+  H31  1  0.52824788  0.49649052  0.98840520  1
  H+  H32  1  0.97091363  0.43955432  0.26501628  1
  H+  H33  1  0.63757466  0.47264494  0.76142596  1
  H+  H34  1  0.84895130  0.41138151  0.23733013  1
  H+  H35  1  0.80853573  0.55352726  0.34701566  1
  H+  H36  1  0.61729387  0.12576767  1.00062235  1
  H+  H37  1  0.50298666  0.14598520  0.50917621  1
  H+  H38  1  0.35751669  0.16990609  0.54183119  1
  H+  H39  1  0.21422094  0.71077429  0.74544665  1
  H+  H40  1  0.80628884  0.82869126  0.75034813  1
  H+  H41  1  0.00257133  0.17090735  -0.00078960  1
  H+  H42  1  0.11683455  0.55770781  0.15862874  1
  H+  H43  1  0.75537544  0.60107599  0.60097961  1
  H+  H44  1  0.45490004  0.14301855  0.99639257  1
  H+  H45  1  0.48850677  0.62968692  0.23861985  1
  H+  H46  1  0.52436681  0.04022627  0.51008861  1
  H+  H47  1  0.50259475  0.12267431  0.77848736  1
  H+  H48  1  0.17287965  0.36381005  0.98805616  1
  H+  H49  1  0.51559796  0.83016445  1.03354617  1
  H+  H50  1  0.15472718  0.84419063  0.75211602  1
  H+  H51  1  0.48260177  0.29382941  0.23390294  1
  H+  H52  1  0.84917983  0.81499288  -0.01936973  1
  H+  H53  1  0.49689930  0.93591960  0.03742358  1
  H+  H54  1  0.01275257  0.19182888  0.23784935  1
  H+  H55  1  0.36220389  0.16807976  0.75756579  1
  H+  H56  1  0.30955097  0.13461749  0.18868221  1
  H+  H57  1  0.88471266  0.42847657  0.90753030  1
  H+  H58  1  0.77773063  0.87572710  0.14153465  1
  H+  H59  1  0.06536610  0.54842078  0.74549274  1
  H+  H60  1  0.67233647  0.21832964  0.53546518  1
  H+  H61  1  0.51084832  0.80448987  0.73490721  1
  H+  H62  1  0.84815219  0.67984093  0.75309884  1
  H+  H63  1  0.47128768  0.88605781  0.19271537  1
  H+  H64  1  0.17336592  0.37527495  0.25820507  1
  H+  H65  1  0.68407610  0.51571275  -0.03306167  1
  H+  H66  1  0.70900841  0.83660264  0.00394172  1
  H+  H67  1  0.63352145  0.79997348  0.25041330  1
  H+  H68  1  0.22686017  0.75845655  0.90066218  1
  H+  H69  1  0.44029122  0.21494519  0.07301034  1
  H+  H70  1  0.04105009  0.18701286  0.75626680  1
  H+  H71  1  0.37393569  0.87277951  0.26128300  1
  H+  H72  1  0.48256483  0.62362455  0.73440536  1
  H+  H73  1  0.51063432  0.34216214  0.51255649  1
  H+  H74  1  0.79761577  0.93894756  0.51582701  1
  H+  H75  1  0.81763281  0.96519546  0.00953578  1
  H+  H76  1  0.15681739  0.67334973  0.51893766  1
  H+  H77  1  0.36320496  0.51433890  0.24071221  1
  H+  H78  1  0.18727146  0.14140053  0.77211659  1
  H+  H79  1  0.51660819  1.03285846  0.27365014  1
  H+  H80  1  0.85349285  0.70712667  0.27389435  1
  H+  H81  1  0.77091369  0.52906565  0.24323495  1
  H+  H82  1  0.90881315  0.43237459  0.72748915  1
  H+  H83  1  0.84726131  -0.00069929  0.25656884  1
  H+  H84  1  1.02801398  0.57698738  0.50834769  1
  H+  H85  1  0.22011034  0.10311084  0.45221976  1
  H+  H86  1  0.61730683  0.11975962  0.77746721  1
  H+  H87  1  0.18473582  0.01106123  0.53654728  1
  H+  H88  1  0.09195401  0.20645699  0.61273163  1
  H+  H89  1  0.18417699  0.82548224  0.25047044  1
  H+  H90  1  0.14313231  0.16330844  0.53809611  1
  H+  H91  1  0.67649310  0.53135086  0.51757216  1
  H+  H92  1  0.86363418  0.16440936  0.77344593  1
  H+  H93  1  0.81264204  0.13390119  0.52286811  1
  H+  H94  1  0.83123497  0.48601072  0.76643344  1
  H+  H95  1  0.18138926  0.34268981  0.49473295  1
  H+  H96  1  0.86378597  0.75326454  0.48369710  1
  H+  H97  1  0.03247387  0.84360098  -0.01645062  1
  H+  H98  1  0.47975486  0.49338534  0.51717740  1
  H+  H99  1  0.04296521  0.84939380  0.21954829  1
  H+  H100  1  0.91971020  0.88938737  0.46315613  1
  H+  H101  1  0.84944799  0.17734874  0.48771432  1
  H+  H102  1  0.82060302  0.83872984  0.23062749  1
  H+  H103  1  0.78885426  0.28347488  0.76985186  1
  H+  H104  1  0.97754574  0.08358540  0.49127784  1
  H+  H105  1  0.18319986  1.02182275  0.77306189  1
  H+  H106  1  0.77117253  0.04566802  0.93476550  1
  H+  H107  1  0.82613174  0.64354492  -0.03350906  1
  H+  H108  1  0.55821496  0.12104698  0.35775153  1
  H+  H109  1  0.24916682  0.08782769  0.33920305  1
  H+  H110  1  0.80597395  0.29843312  0.53269345  1
  H+  H111  1  0.44358882  0.54079746  0.64743386  1
  H+  H112  1  0.51786274  0.47333526  0.75437077  1
  H+  H113  1  0.87382495  0.46300719  0.40606541  1
  H+  H114  1  0.16231558  0.29933243  0.74573429  1
  H+  H115  1  0.16654873  0.63921328  0.02751716  1
  H+  H116  1  0.22794855  0.42575512  0.40794697  1
  H+  H117  1  0.23289810  0.10534656  0.94330370  1
  H+  H118  1  0.44583712  0.20905762  0.62539115  1
  H+  H119  1  0.50144949  0.67228134  0.47953269  1
  H+  H120  1  0.52998765  0.41237808  0.41804729  1
  H+  H121  1  0.70534290  0.48474968  0.12887186  1
  H+  H122  1  0.11516319  0.57387450  0.64317033  1
  H+  H123  1  0.11385317  0.87809560  0.06830359  1
  H+  H124  1  0.22726381  0.44881063  0.90447833  1
  H+  H125  1  0.30154305  0.14659969  0.34308353  1
  H+  H126  1  0.76733610  0.20417761  0.10693848  1
  H+  H127  1  0.90062794  0.12464894  0.86297234  1
  H+  H128  1  0.55478657  0.75478522  0.89556117  1
  H+  H129  1  0.55328638  0.44842885  0.89352316  1
  H+  H130  1  0.76458752  0.49221008  0.13107290  1
  H+  H131  1  0.53948813  0.07254901  0.91222905  1
  H+  H132  1  0.88376432  0.77703717  0.88528194  1
  H+  H133  1  0.76822471  0.50175805  0.66862755  1
  H+  H134  1  0.75200443  0.22781733  0.67400340  1
  H+  H135  1  0.77540496  0.90411527  0.68623410  1
  H+  H136  1  0.24910850  0.81544334  0.42423886  1
  H+  H137  1  0.12692556  0.18398232  0.00930534  1
  H+  H138  1  0.90565494  0.04058940  0.39653435  1
  H+  H139  1  0.44727518  0.54903154  0.10283088  1
  H+  H140  1  0.96768765  0.80182082  0.75442320  1
  H+  H141  1  0.48707539  0.47114094  0.27094101  1
  H+  H142  1  0.11946844  0.88524770  0.66246067  1
  H+  H143  1  0.83604327  0.10742736  0.27620339  1
  O2-  O144  1  0.07260753  0.26247478  0.20857114  1
  O2-  O145  1  0.11884119  0.21783620  0.72655831  1
  O2-  O146  1  0.09792440  0.54856358  0.23075707  1
  O2-  O147  1  0.13393136  0.56937208  0.70974998  1
  O2-  O148  1  0.11974682  0.87484896  0.19373952  1
  O2-  O149  1  0.10831847  0.87856913  0.73150611  1
  O2-  O150  1  0.46264789  0.22292958  0.20019851  1
  O2-  O151  1  0.44335798  0.20552431  0.73399097  1
  O2-  O152  1  0.44293558  0.54493173  0.21796440  1
  O2-  O153  1  0.44568962  0.54125160  0.71619634  1
  O2-  O154  1  0.45746192  0.90804429  0.25385343  1
  O2-  O155  1  0.44326759  0.88238932  0.65695152  1
  O2-  O156  1  0.76748614  0.17306045  0.23090102  1
  O2-  O157  1  0.76034263  0.20943153  0.73842686  1
  O2-  O158  1  0.76213111  0.56385620  0.29864379  1
  O2-  O159  1  0.77046548  0.53574990  0.72762430  1
  O2-  O160  1  0.77479787  0.87395378  0.21013286  1
  O2-  O161  1  0.76114220  0.86846780  0.74656569  1
  O2-  O162  1  0.22731692  0.09268409  0.17242478  1
  O2-  O163  1  0.22813279  0.10221943  0.79490659  1
  O2-  O164  1  0.22845470  0.45000935  0.28903018  1
  O2-  O165  1  0.23109531  0.44418293  0.78211114  1
  O2-  O166  1  0.22633920  0.79537120  0.28982943  1
  O2-  O167  1  0.24782463  0.78855551  0.77252064  1
  O2-  O168  1  0.56161549  0.11907756  0.29052455  1
  O2-  O169  1  0.53812501  0.07837742  0.80114958  1
  O2-  O170  1  0.52086358  0.42611838  0.30102668  1
  O2-  O171  1  0.55428738  0.43161581  0.78173655  1
  O2-  O172  1  0.55250912  0.75244198  0.26875465  1
  O2-  O173  1  0.53955165  0.76121870  0.76887454  1
  O2-  O174  1  0.88566142  0.07398707  0.29109344  1
  O2-  O175  1  0.91737339  0.14097869  0.79646844  1
  O2-  O176  1  0.88859631  0.39545472  0.28550242  1
  O2-  O177  1  0.87954769  0.44347369  0.78462652  1
  O2-  O178  1  0.90607052  0.79111079  0.27400058  1
  O2-  O179  1  0.88440630  0.76208008  0.77163859  1
  O2-  O180  1  0.22177731  0.10194296  0.51852184  1
  O2-  O181  1  0.23635485  0.15259666  0.99555620  1
  O2-  O182  1  0.23220164  0.42267041  0.47533174  1
  O2-  O183  1  0.22587498  0.44564630  0.97225862  1
  O2-  O184  1  0.24843600  0.81200094  0.49130969  1
  O2-  O185  1  0.20278409  0.74745599  0.96459278  1
  O2-  O186  1  0.55360865  0.11704143  0.48364982  1
  O2-  O187  1  0.53730881  0.07404615  0.98111586  1
  O2-  O188  1  0.54850101  0.42094279  0.48453361  1
  O2-  O189  1  0.57205385  0.46286414  0.96020248  1
  O2-  O190  1  0.52828242  0.74758126  0.44972607  1
  O2-  O191  1  0.57189130  0.75671264  0.96112440  1
  O2-  O192  1  0.91670136  0.01477215  0.45831549  1
  O2-  O193  1  0.84134587  0.08216079  0.97066680  1
  O2-  O194  1  0.89072222  0.53772557  0.42982491  1
  O2-  O195  1  0.87152090  0.43425473  0.97276782  1
  O2-  O196  1  0.92811333  0.82029667  0.45496952  1
  O2-  O197  1  0.88620864  0.77266172  0.95345340  1
  O2-  O198  1  0.08010836  0.22083266  0.02288182  1
  O2-  O199  1  0.09105817  0.19593821  0.54476821  1
  O2-  O200  1  0.14419918  0.56857415  0.06584386  1
  O2-  O201  1  0.09974875  0.59344101  0.53762157  1
  O2-  O202  1  0.11410839  0.88029339  0.00104119  1
  O2-  O203  1  0.13891128  0.89728672  0.55536691  1
  O2-  O204  1  0.42616457  0.19761259  0.00745789  1
  O2-  O205  1  0.44208993  0.21035808  0.55603891  1
  O2-  O206  1  0.44753186  0.54811731  0.03437278  1
  O2-  O207  1  0.44225081  0.53771104  0.53561295  1
  O2-  O208  1  0.48406032  0.86764162  0.07208865  1
  O2-  O209  1  0.44398185  0.89208886  0.56591292  1
  O2-  O210  1  0.76998476  0.21542023  0.04011636  1
  O2-  O211  1  0.73919153  0.28149478  0.56889328  1
  O2-  O212  1  0.77829218  0.55601270  -0.03202345  1
  O2-  O213  1  0.75623115  0.59227532  0.53471998  1
  O2-  O214  1  0.78809427  0.88050236  0.02914808  1
  O2-  O215  1  0.72961963  0.88432578  0.55360184  1
