# generated using pymatgen
data_H2O
_symmetry_space_group_name_H-M   'P 1'
_cell_length_a   13.49520376
_cell_length_b   13.49111398
_cell_length_c   14.69059785
_cell_angle_alpha   90.03219711
_cell_angle_beta   89.97408717
_cell_angle_gamma   119.97621275
_symmetry_Int_Tables_number   1
_chemical_formula_structural   H2O
_chemical_formula_sum   'H144 O72'
_cell_volume   2316.86821437
_cell_formula_units_Z   72
loop_
 _symmetry_equiv_pos_site_id
 _symmetry_equiv_pos_as_xyz
  1  'x, y, z'
loop_
 _atom_type_symbol
 _atom_type_oxidation_number
  H+  1.0
  O2-  -2.0
loop_
 _atom_site_type_symbol
 _atom_site_label
 _atom_site_symmetry_multiplicity
 _atom_site_fract_x
 _atom_site_fract_y
 _atom_site_fract_z
 _atom_site_occupancy
  H+  H0  1  0.36335889  0.17786692  0.77084815  1
  H+  H1  1  0.96080510  0.15460343  0.75233713  1
  H+  H2  1  0.82683553  0.63699128  0.00321936  1
  H+  H3  1  0.69818803  0.51991712  0.74520184  1
  H+  H4  1  0.85392041  0.15341448  0.98305492  1
  H+  H5  1  0.84823908  0.14525583  0.25308354  1
  H+  H6  1  0.64101086  0.47761753  0.99042461  1
  H+  H7  1  0.49261585  0.30644525  0.23447784  1
  H+  H8  1  0.63992543  0.46654786  0.47662662  1
  H+  H9  1  0.79730176  0.29938628  0.50599817  1
  H+  H10  1  0.51138605  0.69767899  0.98451200  1
  H+  H11  1  0.81743398  0.63943889  0.74452157  1
  H+  H12  1  0.10482301  0.90256662  0.35181982  1
  H+  H13  1  0.29274572  0.13387433  0.21409255  1
  H+  H14  1  0.45133623  0.21281952  0.09380146  1
  H+  H15  1  0.96502932  0.14303395  0.25399130  1
  H+  H16  1  0.43904070  0.54282733  0.08135825  1
  H+  H17  1  0.44938074  0.17198668  0.53442888  1
  H+  H18  1  0.85453497  0.37191992  0.25496600  1
  H+  H19  1  0.64014521  0.15739408  0.76255440  1
  H+  H20  1  0.81252721  0.51181200  0.51156277  1
  H+  H21  1  0.89053483  0.77734932  0.85652341  1
  H+  H22  1  0.48473430  0.84356027  1.01043526  1
  H+  H23  1  0.84922162  0.49199032  0.75143843  1
  H+  H24  1  0.24054138  0.46840292  0.37524028  1
  H+  H25  1  0.51486196  0.15964570  0.77233942  1
  H+  H26  1  0.80463799  0.18073644  0.73453946  1
  H+  H27  1  0.53688019  0.76654958  0.50455080  1
  H+  H28  1  0.78730086  0.55881783  0.14073615  1
  H+  H29  1  1.04418695  0.52684882  1.00050137  1
  H+  H30  1  0.15393956  0.63527743  0.23582300  1
  H+  H31  1  0.50806646  0.57849904  0.51425422  1
  H+  H32  1  -0.03866571  0.17334549  0.48231573  1
  H+  H33  1  0.79093878  0.17853629  0.50510300  1
  H+  H34  1  0.17501761  0.82720322  -0.01078212  1
  H+  H35  1  0.72901921  0.29676393  0.04116880  1
  H+  H36  1  0.22382257  0.76919131  0.35010946  1
  H+  H37  1  0.21455620  0.78700199  0.85642326  1
  H+  H38  1  0.61960832  0.07770761  0.33954165  1
  H+  H39  1  0.15896693  0.64745270  0.00595972  1
  H+  H40  1  0.47353349  0.87543731  0.51853363  1
  H+  H41  1  0.17584612  0.13584473  0.21152133  1
  H+  H42  1  0.84619471  0.37129654  0.74914243  1
  H+  H43  1  0.84412659  0.69739962  0.50076425  1
  H+  H44  1  -0.03143602  0.82351115  0.26926543  1
  H+  H45  1  0.85711402  0.82242721  0.76519423  1
  H+  H46  1  0.29589309  0.82420531  0.99137728  1
  H+  H47  1  0.62931553  0.81219213  0.99797471  1
  H+  H48  1  0.17836388  0.71279406  0.76200945  1
  H+  H49  1  0.15078462  0.97098793  0.76637904  1
  H+  H50  1  0.37512892  0.49887466  0.50038667  1
  H+  H51  1  0.15909875  0.29725814  0.74099881  1
  H+  H52  1  0.36362329  0.16820375  0.00992900  1
  H+  H53  1  0.82916798  0.51974794  0.99913622  1
  H+  H54  1  0.47823485  0.62353975  0.73406952  1
  H+  H55  1  0.48827499  0.51581594  0.22913790  1
  H+  H56  1  0.48328314  0.50627748  -0.00502939  1
  H+  H57  1  0.84674655  0.69492815  0.24125660  1
  H+  H58  1  0.71243575  0.88053693  0.51891870  1
  H+  H59  1  0.31288997  0.15630086  0.56139518  1
  H+  H60  1  0.18269632  0.48510301  0.24518152  1
  H+  H61  1  0.63804929  0.48925812  0.24551524  1
  H+  H62  1  0.50863253  0.42590013  0.47790195  1
  H+  H63  1  0.68473131  0.83626556  0.26394722  1
  H+  H64  1  0.15803113  0.33819768  0.49256706  1
  H+  H65  1  0.29602432  0.47741800  0.75406747  1
  H+  H66  1  0.15252569  0.52135812  0.73850490  1
  H+  H67  1  0.14465556  0.86081288  0.47781988  1
  H+  H68  1  0.18730906  0.49092293  0.98166076  1
  H+  H69  1  0.87059956  0.37301539  0.96969202  1
  H+  H70  1  0.49135570  0.18840792  0.24497087  1
  H+  H71  1  0.84723304  0.81785079  0.50242310  1
  H+  H72  1  0.85783533  0.81195384  -0.00405434  1
  H+  H73  1  0.03548782  0.18444377  -0.00164699  1
  H+  H74  1  0.48310537  0.30269751  0.76080716  1
  H+  H75  1  0.88463518  0.11305719  0.89142359  1
  H+  H76  1  0.98412027  0.82160163  0.98785242  1
  H+  H77  1  0.17407573  1.00760804  -0.00459313  1
  H+  H78  1  0.81413532  0.95687238  0.02165577  1
  H+  H79  1  0.16551535  0.15232948  0.52841454  1
  H+  H80  1  0.67447294  0.17360745  0.00340293  1
  H+  H81  1  0.22622338  0.09933529  0.87419278  1
  H+  H82  1  0.14545103  0.29380372  0.23199737  1
  H+  H83  1  0.71696869  0.85645506  0.73822931  1
  H+  H84  1  0.44751259  0.97487720  0.53012855  1
  H+  H85  1  0.29069614  0.81890451  0.49391334  1
  H+  H86  1  0.37152150  0.84173367  0.24717980  1
  H+  H87  1  -0.04381575  0.47758374  0.49276768  1
  H+  H88  1  0.49111209  0.84132115  0.25421751  1
  H+  H89  1  0.82539018  0.52345186  0.23383086  1
  H+  H90  1  0.51871748  0.01075095  0.27114989  1
  H+  H91  1  0.02483120  0.84850221  0.76078398  1
  H+  H92  1  0.15255970  0.30367705  0.99976471  1
  H+  H93  1  0.15475693  0.02756968  0.52756760  1
  H+  H94  1  0.30087689  0.48201991  0.24204485  1
  H+  H95  1  0.50596543  1.00974489  -0.01156924  1
  H+  H96  1  0.70192321  0.18457015  0.23685934  1
  H+  H97  1  0.18453745  0.81461542  0.26850079  1
  H+  H98  1  0.81065103  -0.04527803  0.25032280  1
  H+  H99  1  0.13197410  0.51029154  0.51419468  1
  H+  H100  1  0.48470712  0.63216676  0.21431777  1
  H+  H101  1  0.27952988  0.57030376  0.44525393  1
  H+  H102  1  0.83258452  0.81842305  0.25165156  1
  H+  H103  1  0.14098369  -0.03409098  0.25372015  1
  H+  H104  1  0.51251813  0.47773348  0.76493966  1
  H+  H105  1  0.60820637  0.16317926  0.50342956  1
  H+  H106  1  0.50142963  0.12963562  0.98645578  1
  H+  H107  1  0.18679424  0.14244614  0.78524070  1
  H+  H108  1  0.57727479  0.82747455  0.40629850  1
  H+  H109  1  0.30164354  0.48241438  0.97620711  1
  H+  H110  1  0.79811496  0.90086300  0.65260357  1
  H+  H111  1  0.43787197  0.53184707  0.65409338  1
  H+  H112  1  0.83505424  -0.01277761  0.51521578  1
  H+  H113  1  0.88170021  0.11519227  0.39640277  1
  H+  H114  1  0.14431503  0.19720708  0.67061312  1
  H+  H115  1  0.21437267  0.43869571  0.84093232  1
  H+  H116  1  0.42345578  0.20892720  0.63830035  1
  H+  H117  1  0.97337024  0.48945270  0.25522307  1
  H+  H118  1  0.10730262  0.88680151  0.08151727  1
  H+  H119  1  0.27937696  0.18497281  0.38984531  1
  H+  H120  1  0.76945590  0.54952630  0.59979506  1
  H+  H121  1  0.52218669  0.35598209  0.99061375  1
  H+  H122  1  0.84585591  0.03507985  0.75284271  1
  H+  H123  1  0.77228911  0.87657256  0.10974077  1
  H+  H124  1  0.03452096  0.52264830  0.73876174  1
  H+  H125  1  0.55810552  0.44192329  0.85372414  1
  H+  H126  1  0.77461176  0.22315411  0.14625261  1
  H+  H127  1  0.51927171  0.11979863  0.42117814  1
  H+  H128  1  0.56191667  0.44230713  0.33596497  1
  H+  H129  1  0.55399874  0.10434510  0.86079294  1
  H+  H130  1  0.02083526  0.85352032  0.47895943  1
  H+  H131  1  0.88473030  0.44372995  0.39964440  1
  H+  H132  1  0.09717036  0.28539499  0.58486251  1
  H+  H133  1  0.11483355  0.55994242  0.14409167  1
  H+  H134  1  0.17007439  0.69978272  0.49209222  1
  H+  H135  1  0.75534398  0.21685820  0.64811229  1
  H+  H136  1  0.10318904  0.22142961  0.14005785  1
  H+  H137  1  0.54508770  0.71294813  0.32294772  1
  H+  H138  1  0.90229014  0.45503219  0.88420425  1
  H+  H139  1  0.44977969  0.88735885  0.10024341  1
  H+  H140  1  0.15426727  0.84065380  0.76428849  1
  H+  H141  1  0.10329218  0.55613828  0.60513808  1
  H+  H142  1  0.18629003  0.13817007  -0.00232611  1
  H+  H143  1  0.25842212  0.12213796  0.38478516  1
  O2-  O144  1  0.10124615  0.21453179  0.20836185  1
  O2-  O145  1  0.11595063  0.21229251  0.72726809  1
  O2-  O146  1  0.11276365  0.55461819  0.21246919  1
  O2-  O147  1  0.11548531  0.56539201  0.71691039  1
  O2-  O148  1  0.09699987  0.88752140  0.28435274  1
  O2-  O149  1  0.10904316  0.89008281  0.74112328  1
  O2-  O150  1  0.45513746  0.22512669  0.21244501  1
  O2-  O151  1  0.44324743  0.21813765  0.74323060  1
  O2-  O152  1  0.44220135  0.54950249  0.20278828  1
  O2-  O153  1  0.43727612  0.54000196  0.72135293  1
  O2-  O154  1  0.45328775  0.88308705  0.22746151  1
  O2-  O155  1  0.54595252  0.84664824  0.70181703  1
  O2-  O156  1  0.78153172  0.22495685  0.21375871  1
  O2-  O157  1  0.75966218  0.21876633  0.71644075  1
  O2-  O158  1  0.78555156  0.56354425  0.20904877  1
  O2-  O159  1  0.77779222  0.55900195  0.72073536  1
  O2-  O160  1  0.76760159  0.87269954  0.23175079  1
  O2-  O161  1  0.79891913  0.90019651  0.72129169  1
  O2-  O162  1  0.20988737  0.08603760  0.20332237  1
  O2-  O163  1  0.22834526  0.10219007  0.80300203  1
  O2-  O164  1  0.22300053  0.44486228  0.27003897  1
  O2-  O165  1  0.21350040  0.43543019  0.77225927  1
  O2-  O166  1  0.22566934  0.77234318  0.28150798  1
  O2-  O167  1  0.20949674  0.79113887  0.78740412  1
  O2-  O168  1  0.56743083  0.08943155  0.30098196  1
  O2-  O169  1  0.55839882  0.11832019  0.79030722  1
  O2-  O170  1  0.55731091  0.44891381  0.26723241  1
  O2-  O171  1  0.55468837  0.43811626  0.78521792  1
  O2-  O172  1  0.57307482  0.79212580  0.30570034  1
  O2-  O173  1  0.56184081  0.77897740  0.75203322  1
  O2-  O174  1  0.88525759  0.10397144  0.27950111  1
  O2-  O175  1  0.88039985  0.11734941  0.77343294  1
  O2-  O176  1  0.89267518  0.45175315  0.27839111  1
  O2-  O177  1  0.89139923  0.45139739  0.77116949  1
  O2-  O178  1  0.87976946  0.77583697  0.26615992  1
  O2-  O179  1  0.89379002  0.77813969  0.78753670  1
  O2-  O180  1  0.19061713  0.10450974  0.56035699  1
  O2-  O181  1  0.22585137  0.09730270  0.97618743  1
  O2-  O182  1  0.25226014  0.48815100  0.44380283  1
  O2-  O183  1  0.21973913  0.44452751  0.95577258  1
  O2-  O184  1  0.21243032  0.77638025  0.46361691  1
  O2-  O185  1  0.21667534  0.78353197  0.96711990  1
  O2-  O186  1  0.52458190  0.12748730  0.48802838  1
  O2-  O187  1  0.54438183  0.09153838  0.96186370  1
  O2-  O188  1  0.56623733  0.41673161  0.44403347  1
  O2-  O189  1  0.56037034  0.43640983  0.96767530  1
  O2-  O190  1  0.57800330  0.84192633  0.47650078  1
  O2-  O191  1  0.55061648  0.78126080  0.97430275  1
  O2-  O192  1  0.88069811  0.12296185  0.46436945  1
  O2-  O193  1  0.89081394  0.11224694  0.95961558  1
  O2-  O194  1  0.87703583  0.43656375  0.46729270  1
  O2-  O195  1  0.90551175  0.45412885  0.95280560  1
  O2-  O196  1  0.88663607  0.77772829  0.47916492  1
  O2-  O197  1  0.89759038  0.77376680  0.96886883  1
  O2-  O198  1  0.11389557  0.22408829  0.02470599  1
  O2-  O199  1  0.11077110  0.26482290  0.52418873  1
  O2-  O200  1  0.12232102  0.56552419  0.02735401  1
  O2-  O201  1  0.09448383  0.55184995  0.53637193  1
  O2-  O202  1  0.10970663  0.88870465  0.01517198  1
  O2-  O203  1  0.10673824  0.90743728  0.46962235  1
  O2-  O204  1  0.44786066  0.20921090  0.02586757  1
  O2-  O205  1  0.40387564  0.20153807  0.57019285  1
  O2-  O206  1  0.43964607  0.54454264  0.01381296  1
  O2-  O207  1  0.44176385  0.50889773  0.53680120  1
  O2-  O208  1  0.44577893  0.88770128  0.03281083  1
  O2-  O209  1  0.41422735  0.89233196  0.54084451  1
  O2-  O210  1  0.74861550  0.23726319  0.02979882  1
  O2-  O211  1  0.75116190  0.21864948  0.52939572  1
  O2-  O212  1  0.78532800  0.55459762  0.02479103  1
  O2-  O213  1  0.76842983  0.54902267  0.53196617  1
  O2-  O214  1  0.77602580  0.87640761  0.04192490  1
  O2-  O215  1  0.79245415  0.90800621  0.53991048  1
