# generated using pymatgen
data_H2O
_symmetry_space_group_name_H-M   'P 1'
_cell_length_a   13.54708735
_cell_length_b   13.52653785
_cell_length_c   14.71538285
_cell_angle_alpha   90.09200205
_cell_angle_beta   89.92889879
_cell_angle_gamma   120.04527755
_symmetry_Int_Tables_number   1
_chemical_formula_structural   H2O
_chemical_formula_sum   'H144 O72'
_cell_volume   2334.18803808
_cell_formula_units_Z   72
loop_
 _symmetry_equiv_pos_site_id
 _symmetry_equiv_pos_as_xyz
  1  'x, y, z'
loop_
 _atom_type_symbol
 _atom_type_oxidation_number
  H+  1.0
  O2-  -2.0
loop_
 _atom_site_type_symbol
 _atom_site_label
 _atom_site_symmetry_multiplicity
 _atom_site_fract_x
 _atom_site_fract_y
 _atom_site_fract_z
 _atom_site_occupancy
  H+  H0  1  0.14394099  0.57364427  0.05190660  1
  H+  H1  1  0.63976385  0.16741847  -0.01568278  1
  H+  H2  1  0.10038822  -0.15722377  0.95326178  1
  H+  H3  1  0.81257675  0.29960997  0.73343850  1
  H+  H4  1  0.50510670  0.52857915  0.24197190  1
  H+  H5  1  0.44557973  0.90865916  0.60117285  1
  H+  H6  1  0.35224298  0.85281773  0.50239063  1
  H+  H7  1  0.43302118  0.61449766  0.00964486  1
  H+  H8  1  0.41176801  0.20328041  0.59023660  1
  H+  H9  1  0.93996331  0.87547312  0.44534468  1
  H+  H10  1  0.69590542  0.83674585  0.74603413  1
  H+  H11  1  0.85708737  0.35774017  0.48043950  1
  H+  H12  1  0.48624051  0.98831214  0.50230296  1
  H+  H13  1  0.84103509  0.50257607  0.23515148  1
  H+  H14  1  0.12858265  0.17921514  0.74503013  1
  H+  H15  1  0.03626834  0.50044195  0.51033109  1
  H+  H16  1  0.57960250  0.79906141  0.64331533  1
  H+  H17  1  0.86636077  0.73985614  0.46382259  1
  H+  H18  1  0.43806929  0.54187896  0.75462014  1
  H+  H19  1  0.24821166  0.50397549  0.99916148  1
  H+  H20  1  0.52269156  0.71253262  0.25169141  1
  H+  H21  1  0.49155302  0.70471366  0.71044132  1
  H+  H22  1  0.81892847  0.19228020  0.50362482  1
  H+  H23  1  0.42100940  0.21716677  0.23570952  1
  H+  H24  1  0.03766980  0.21844674  0.05025715  1
  H+  H25  1  0.87742959  0.48525164  0.45917907  1
  H+  H26  1  0.15228614  0.13668409  0.49141470  1
  H+  H27  1  0.46714456  0.63467637  0.49836729  1
  H+  H28  1  0.52213094  0.04652550  0.25389011  1
  H+  H29  1  0.14747221  0.96951737  0.50632360  1
  H+  H30  1  0.09524873  0.13793399  0.25812999  1
  H+  H31  1  0.63565829  0.15408872  0.75052827  1
  H+  H32  1  0.58094940  0.45027401  0.52423657  1
  H+  H33  1  0.25035092  0.79438395  0.40318635  1
  H+  H34  1  0.83184737  1.00993092  0.74695314  1
  H+  H35  1  0.80439361  0.17734461  0.72024327  1
  H+  H36  1  0.68753120  0.49501566  0.01109489  1
  H+  H37  1  0.82269828  0.64379731  0.76730014  1
  H+  H38  1  0.55368248  0.38451667  0.25757723  1
  H+  H39  1  0.35997437  0.15844335  0.76228121  1
  H+  H40  1  0.39253161  0.53539589  0.09565527  1
  H+  H41  1  1.04278771  0.42861080  0.29388315  1
  H+  H42  1  0.49075973  0.48058500  0.48842831  1
  H+  H43  1  -0.03646573  0.48222224  0.75537811  1
  H+  H44  1  0.31542529  0.52021971  0.74155012  1
  H+  H45  1  0.84379519  0.47860902  0.76053453  1
  H+  H46  1  0.13699592  0.53948871  0.19986459  1
  H+  H47  1  0.18779223  0.81550022  0.26974710  1
  H+  H48  1  0.05719877  0.83356921  0.50850555  1
  H+  H49  1  0.30498009  0.21722959  0.29437530  1
  H+  H50  1  0.16795818  0.46824929  0.49767799  1
  H+  H51  1  0.47624437  0.85913491  0.72323427  1
  H+  H52  1  0.82087207  -0.02012520  0.24375274  1
  H+  H53  1  0.65008072  0.47245539  0.78679857  1
  H+  H54  1  0.52925396  0.46018689  0.79383012  1
  H+  H55  1  0.90719415  0.77720231  0.86514029  1
  H+  H56  1  0.28330808  0.46907877  0.47537914  1
  H+  H57  1  0.85147048  0.68627801  0.23684883  1
  H+  H58  1  0.47349805  0.27946587  0.75382383  1
  H+  H59  1  0.96518888  0.81256966  0.76542533  1
  H+  H60  1  0.75868824  0.54763062  0.49199259  1
  H+  H61  1  0.54397484  0.10327894  0.39265053  1
  H+  H62  1  0.81974400  0.86056665  0.23282610  1
  H+  H63  1  0.48438065  0.86050183  0.22933771  1
  H+  H64  1  0.49764228  0.81778716  0.48053591  1
  H+  H65  1  -0.04136547  0.14581256  0.49452824  1
  H+  H66  1  0.44544562  0.28179552  0.50216686  1
  H+  H67  1  0.31116985  0.82788864  0.26648279  1
  H+  H68  1  0.38759339  0.52377441  0.25700572  1
  H+  H69  1  0.23057192  0.11602604  0.88016522  1
  H+  H70  1  1.00436600  0.18370199  0.26082890  1
  H+  H71  1  0.84304007  0.97400622  0.01101079  1
  H+  H72  1  0.18481124  0.44924190  0.86088788  1
  H+  H73  1  0.15466348  0.45019868  0.34336106  1
  H+  H74  1  0.84558957  0.52014093  0.00589052  1
  H+  H75  1  0.63749978  0.83323208  0.25434614  1
  H+  H76  1  1.00844963  0.17204420  0.73633457  1
  H+  H77  1  0.72620980  0.51209946  0.23912230  1
  H+  H78  1  0.85301931  0.17749410  0.01160883  1
  H+  H79  1  0.65391855  0.15614920  0.25085824  1
  H+  H80  1  0.83629135  0.15881147  0.26578241  1
  H+  H81  1  0.56431173  0.12960361  -0.10756698  1
  H+  H82  1  0.28931699  0.82187201  0.76063160  1
  H+  H83  1  0.81395601  0.83865098  0.76908567  1
  H+  H84  1  0.01959412  0.82184155  0.22212961  1
  H+  H85  1  0.17042713  0.81748417  0.74832268  1
  H+  H86  1  0.13340219  0.51659731  0.75055462  1
  H+  H87  1  0.49697643  0.19715865  0.00410639  1
  H+  H88  1  0.13723951  0.63727674  0.74625016  1
  H+  H89  1  0.53026026  0.20045134  0.23885932  1
  H+  H90  1  0.82739132  0.32308626  1.00673379  1
  H+  H91  1  0.32230551  0.19747009  1.01435874  1
  H+  H92  1  0.30339423  0.16101003  0.30195581  1
  H+  H93  1  0.17128900  0.66697249  0.19123701  1
  H+  H94  1  0.78306833  0.85436150  0.50595573  1
  H+  H95  1  0.49224710  0.80304566  0.97324989  1
  H+  H96  1  0.14165657  -0.03374316  0.74675094  1
  H+  H97  1  0.84807160  0.34119436  0.24541078  1
  H+  H98  1  0.88927541  0.71114650  -0.00005544  1
  H+  H99  1  0.48055477  0.97789875  0.74039777  1
  H+  H100  1  0.15405778  0.36171749  0.77474617  1
  H+  H101  1  0.99345087  0.49373542  0.97099079  1
  H+  H102  1  0.21293850  0.83836565  0.49464889  1
  H+  H103  1  0.14206125  0.29710842  0.50381627  1
  H+  H104  1  0.54713528  0.36805801  1.01431950  1
  H+  H105  1  0.11503909  0.86339716  0.14514461  1
  H+  H106  1  0.10819058  -0.01528294  0.25991642  1
  H+  H107  1  0.18525891  0.82849134  0.88586785  1
  H+  H108  1  0.89781798  0.44831685  0.89293126  1
  H+  H109  1  0.10307754  0.53999233  0.60549597  1
  H+  H110  1  0.74241927  0.12647576  0.16964545  1
  H+  H111  1  0.93231465  0.16497548  0.93902159  1
  H+  H112  1  0.75656627  0.56729064  0.68076830  1
  H+  H113  1  0.77502933  0.24346997  0.09745206  1
  H+  H114  1  0.47796853  0.23980167  0.10235627  1
  H+  H115  1  0.53833772  0.78073158  0.38985172  1
  H+  H116  1  0.87967319  0.77634392  0.31696132  1
  H+  H117  1  0.79815708  0.89440205  0.09538500  1
  H+  H118  1  0.84739834  0.09893177  0.82145256  1
  H+  H119  1  0.67006255  0.85685003  0.49866621  1
  H+  H120  1  0.19969960  0.09397062  1.03219581  1
  H+  H121  1  0.13114989  0.05263007  0.35475396  1
  H+  H122  1  0.57744323  0.45688357  0.34849223  1
  H+  H123  1  0.26821316  0.13367327  0.47873679  1
  H+  H124  1  0.80679117  0.55278430  0.10183813  1
  H+  H125  1  0.51350617  0.14812108  0.75436214  1
  H+  H126  1  0.48529223  0.13359664  0.47629170  1
  H+  H127  1  0.86685330  0.59802092  0.55466107  1
  H+  H128  1  0.58932986  0.44881440  0.92372371  1
  H+  H129  1  0.89085251  0.41701876  0.33634492  1
  H+  H130  1  0.42015534  0.89218396  0.15187802  1
  H+  H131  1  0.42012434  0.55541049  0.58770678  1
  H+  H132  1  0.23107080  0.00400901  0.86657351  1
  H+  H133  1  0.10313080  0.22177208  0.59613841  1
  H+  H134  1  0.77737463  0.23723770  0.58686196  1
  H+  H135  1  0.10728225  0.89898186  0.65054518  1
  H+  H136  1  0.60340363  0.79553847  0.98804004  1
  H+  H137  1  0.47937614  0.98116320  -0.02682286  1
  H+  H138  1  0.83224645  0.03220400  0.49566074  1
  H+  H139  1  0.89474100  0.83176743  0.99871967  1
  H+  H140  1  0.87685942  0.11899337  0.35846856  1
  H+  H141  1  0.28283715  0.87192586  1.01215045  1
  H+  H142  1  0.10222221  0.23181471  0.17312598  1
  H+  H143  1  0.16332920  0.23620676  0.04570080  1
  O2-  O144  1  0.08798196  0.20894016  0.24292295  1
  O2-  O145  1  0.09196831  0.22015064  0.72116221  1
  O2-  O146  1  0.13392800  0.59512700  0.15712611  1
  O2-  O147  1  0.09515132  0.55675393  0.72380476  1
  O2-  O148  1  0.10500016  0.86535607  0.21054461  1
  O2-  O149  1  0.09697275  0.89034016  0.71764295  1
  O2-  O150  1  0.49904674  0.25169678  0.21192842  1
  O2-  O151  1  0.42888355  0.20449695  0.72379824  1
  O2-  O152  1  0.45933733  0.56455178  0.22372578  1
  O2-  O153  1  0.39424938  0.56062329  0.71296363  1
  O2-  O154  1  0.44192784  0.90181263  0.21677809  1
  O2-  O155  1  0.43329003  0.90003010  0.71236452  1
  O2-  O156  1  0.75917325  0.19351701  0.20592823  1
  O2-  O157  1  0.76586244  0.22172245  0.70619101  1
  O2-  O158  1  0.80419873  0.54754642  0.21237806  1
  O2-  O159  1  0.77530237  0.56038379  0.74341848  1
  O2-  O160  1  0.77906932  0.90173761  0.21633016  1
  O2-  O161  1  0.77989307  0.88316242  0.74520932  1
  O2-  O162  1  0.08648800  0.03191064  0.29745247  1
  O2-  O163  1  0.23788541  0.06993971  0.83077962  1
  O2-  O164  1  0.12120459  0.44533040  0.28287862  1
  O2-  O165  1  0.19331407  0.44322655  0.79293388  1
  O2-  O166  1  0.23330081  0.78242305  0.29410861  1
  O2-  O167  1  0.20823531  0.78111191  0.78107086  1
  O2-  O168  1  0.56920274  0.12475912  0.27936833  1
  O2-  O169  1  0.55761410  0.11340346  0.77952478  1
  O2-  O170  1  0.58756827  0.46450381  0.28186289  1
  O2-  O171  1  0.57118966  0.42284698  0.81331218  1
  O2-  O172  1  0.55573755  0.79243382  0.27418322  1
  O2-  O173  1  0.55246031  0.78649882  0.70621941  1
  O2-  O174  1  0.88093632  0.12159307  0.28999102  1
  O2-  O175  1  0.86685395  0.09749790  0.75789027  1
  O2-  O176  1  0.89278610  0.42034323  0.26820078  1
  O2-  O177  1  0.88200502  0.43554859  0.77842412  1
  O2-  O178  1  0.88583684  0.76995405  0.25031898  1
  O2-  O179  1  0.89033437  0.76802106  0.79757971  1
  O2-  O180  1  0.18477209  0.08912114  0.46556502  1
  O2-  O181  1  0.23993150  0.16544291  0.99832354  1
  O2-  O182  1  0.20066852  0.42536603  0.46286476  1
  O2-  O183  1  0.16879403  0.47061002  0.97064430  1
  O2-  O184  1  0.25715959  0.80239936  0.47234227  1
  O2-  O185  1  0.34799847  0.87160701  1.04368686  1
  O2-  O186  1  0.52559547  0.09240181  0.45932157  1
  O2-  O187  1  0.55977579  0.12927702  0.96080473  1
  O2-  O188  1  0.53037406  0.43565861  0.47270519  1
  O2-  O189  1  0.59725065  0.45226112  0.99207152  1
  O2-  O190  1  0.53173163  0.77225450  0.45786911  1
  O2-  O191  1  0.52458403  0.75209242  0.96656067  1
  O2-  O192  1  0.87933539  0.11165102  0.47077519  1
  O2-  O193  1  0.90140964  0.14051930  0.99984471  1
  O2-  O194  1  0.90964865  0.43583229  0.44890730  1
  O2-  O195  1  0.90846633  0.45699915  0.96060473  1
  O2-  O196  1  0.86804221  0.80580774  0.43281379  1
  O2-  O197  1  0.93309175  0.78959039  0.97513725  1
  O2-  O198  1  0.11452282  0.25939064  0.07850717  1
  O2-  O199  1  0.10205881  0.21579889  0.52900188  1
  O2-  O200  1  0.13679445  0.55877257  -0.01690202  1
  O2-  O201  1  0.11289995  0.53586251  0.53911054  1
  O2-  O202  1  0.18150216  0.87644735  -0.06366263  1
  O2-  O203  1  0.12896500  0.89229224  0.53440518  1
  O2-  O204  1  0.46676162  0.24393504  0.03473977  1
  O2-  O205  1  0.40697741  0.20134190  0.52303487  1
  O2-  O206  1  0.37651595  0.53613917  0.03073358  1
  O2-  O207  1  0.43141645  0.55403375  0.52135730  1
  O2-  O208  1  0.42768630  0.89635466  -0.03213360  1
  O2-  O209  1  0.44873310  0.90386667  0.53226176  1
  O2-  O210  1  0.77914636  0.24259165  0.02880802  1
  O2-  O211  1  0.78584003  0.24121741  0.51985170  1
  O2-  O212  1  0.80166609  0.55611194  0.03302932  1
  O2-  O213  1  0.84053113  0.60218812  0.49379461  1
  O2-  O214  1  0.81169081  0.89365561  0.02896968  1
  O2-  O215  1  0.74527719  0.89482395  0.52989818  1
