# generated using pymatgen
data_H2O
_symmetry_space_group_name_H-M   'P 1'
_cell_length_a   13.51973231
_cell_length_b   13.52987623
_cell_length_c   14.66886232
_cell_angle_alpha   89.95228616
_cell_angle_beta   89.94434696
_cell_angle_gamma   120.03305045
_symmetry_Int_Tables_number   1
_chemical_formula_structural   H2O
_chemical_formula_sum   'H144 O72'
_cell_volume   2322.96966505
_cell_formula_units_Z   72
loop_
 _symmetry_equiv_pos_site_id
 _symmetry_equiv_pos_as_xyz
  1  'x, y, z'
loop_
 _atom_type_symbol
 _atom_type_oxidation_number
  H+  1.0
  O2-  -2.0
loop_
 _atom_site_type_symbol
 _atom_site_label
 _atom_site_symmetry_multiplicity
 _atom_site_fract_x
 _atom_site_fract_y
 _atom_site_fract_z
 _atom_site_occupancy
  H+  H0  1  0.71615117  0.23050123  0.23999753  1
  H+  H1  1  0.81008653  0.98084080  0.47685589  1
  H+  H2  1  0.17962000  0.12878850  0.29005676  1
  H+  H3  1  0.44688861  0.96789464  0.25621587  1
  H+  H4  1  0.68378352  0.16767914  1.00665601  1
  H+  H5  1  0.82546142  0.46435666  0.02725425  1
  H+  H6  1  0.38177711  0.52642481  0.50509283  1
  H+  H7  1  0.81535233  0.19991312  0.49234020  1
  H+  H8  1  0.79641964  0.64215303  0.25161814  1
  H+  H9  1  0.50987414  0.34061656  0.26546364  1
  H+  H10  1  0.80675361  0.48451649  0.72678915  1
  H+  H11  1  0.35438348  0.49167427  -0.00638415  1
  H+  H12  1  0.96478844  0.14848827  0.48111798  1
  H+  H13  1  0.46958982  0.92114813  0.59265148  1
  H+  H14  1  0.51416169  0.07286457  0.49855546  1
  H+  H15  1  0.62507163  0.46275566  0.74312682  1
  H+  H16  1  0.61466180  0.12384767  0.28866678  1
  H+  H17  1  0.96020265  0.82549227  1.00464947  1
  H+  H18  1  0.14401609  0.67722592  0.27125898  1
  H+  H19  1  0.85543159  0.38266254  0.48192258  1
  H+  H20  1  0.51095712  0.47858298  0.48938347  1
  H+  H21  1  0.37113458  0.82380430  -0.00892584  1
  H+  H22  1  0.14019730  0.48123801  0.75504182  1
  H+  H23  1  0.12429088  1.00414735  0.02467359  1
  H+  H24  1  0.35755132  0.17723712  0.23798719  1
  H+  H25  1  0.76067625  0.56257723  0.11142344  1
  H+  H26  1  0.48962351  0.80325594  0.25468749  1
  H+  H27  1  0.29600097  0.94976645  0.79994627  1
  H+  H28  1  0.63718474  0.14651441  0.75247513  1
  H+  H29  1  0.81900439  0.68765797  0.49759902  1
  H+  H30  1  0.33089309  0.79861970  0.22642343  1
  H+  H31  1  0.53471193  0.52532556  0.97141668  1
  H+  H32  1  0.36421313  0.16511746  -0.00075829  1
  H+  H33  1  0.85094961  1.03855378  -0.01233032  1
  H+  H34  1  0.19017099  0.40476137  0.47951437  1
  H+  H35  1  0.62482579  0.81582271  0.25133839  1
  H+  H36  1  0.96203172  0.50564352  0.49971742  1
  H+  H37  1  0.30904919  0.85228041  0.53468271  1
  H+  H38  1  0.46398985  0.27874795  0.75634650  1
  H+  H39  1  0.15047715  -0.04582175  0.26127264  1
  H+  H40  1  0.05843532  0.47628102  0.14241494  1
  H+  H41  1  0.17395859  0.66518395  0.52872935  1
  H+  H42  1  0.48445901  0.49317592  0.22782731  1
  H+  H43  1  0.16543011  0.31251630  -0.01112467  1
  H+  H44  1  0.92532223  0.93132483  0.67602430  1
  H+  H45  1  0.41187235  0.55370118  0.22720441  1
  H+  H46  1  0.16346012  0.23547143  0.51393211  1
  H+  H47  1  0.81268128  0.84269439  0.00571425  1
  H+  H48  1  0.19408167  0.86226160  0.74041319  1
  H+  H49  1  0.17124005  0.13313709  0.75834825  1
  H+  H50  1  0.77804377  -0.05005465  0.23495504  1
  H+  H51  1  0.51699884  0.70950632  0.48582864  1
  H+  H52  1  0.94196780  0.45283988  1.03287211  1
  H+  H53  1  1.11992917  0.60548551  0.43654865  1
  H+  H54  1  0.48326656  0.50813820  0.73294346  1
  H+  H55  1  0.81901979  0.18578799  0.72966124  1
  H+  H56  1  0.28682935  0.12644265  0.76312205  1
  H+  H57  1  0.14105151  0.59493034  0.72711860  1
  H+  H58  1  0.29842167  0.46342331  0.75874497  1
  H+  H59  1  0.11513895  0.57920624  0.07546249  1
  H+  H60  1  0.19458827  0.46286827  0.98239395  1
  H+  H61  1  0.82825944  0.80740310  0.47687016  1
  H+  H62  1  1.03838763  0.18710866  0.74596438  1
  H+  H63  1  0.64093440  0.77774646  0.71304684  1
  H+  H64  1  0.23048100  0.91375357  -0.04363027  1
  H+  H65  1  0.33456187  0.12833135  0.50169045  1
  H+  H66  1  0.77592520  0.11793135  0.27978465  1
  H+  H67  1  0.61771377  0.47312300  0.26669832  1
  H+  H68  1  0.45963060  0.15648098  0.23395966  1
  H+  H69  1  0.81060211  0.17987152  1.00590038  1
  H+  H70  1  0.70855130  0.53215801  0.01065988  1
  H+  H71  1  0.10393044  0.19022040  0.60951664  1
  H+  H72  1  0.46160132  0.78897407  0.76377407  1
  H+  H73  1  0.17280171  0.80273127  0.24661672  1
  H+  H74  1  0.49049662  0.88337991  0.49595111  1
  H+  H75  1  0.68264760  0.63123562  0.20304613  1
  H+  H76  1  0.69498180  0.84189170  -0.00063492  1
  H+  H77  1  0.79716958  0.50419210  0.49698198  1
  H+  H78  1  0.88381848  0.13727628  0.22460432  1
  H+  H79  1  0.25644320  0.78296252  0.85768560  1
  H+  H80  1  0.20958308  0.09616845  0.89786023  1
  H+  H81  1  0.80807465  0.60295056  0.72670478  1
  H+  H82  1  0.43878653  0.03006347  0.34662128  1
  H+  H83  1  0.64637793  0.60756243  0.91680765  1
  H+  H84  1  0.07703604  0.22467199  0.25395118  1
  H+  H85  1  0.47146226  0.16499970  0.75433215  1
  H+  H86  1  0.12728810  0.47873966  0.27041011  1
  H+  H87  1  0.12539920  0.95948331  0.72477298  1
  H+  H88  1  0.97042306  0.15895854  0.98633752  1
  H+  H89  1  0.82907983  0.76017191  0.78283815  1
  H+  H90  1  0.50537612  0.97435708  0.73308092  1
  H+  H91  1  0.23611298  0.41834450  0.25704710  1
  H+  H92  1  0.63163596  0.83084271  0.47937598  1
  H+  H93  1  0.20852087  0.52896911  0.48194988  1
  H+  H94  1  0.63984460  0.47690517  0.49261226  1
  H+  H95  1  0.87384239  1.05862972  0.75348222  1
  H+  H96  1  0.44473707  0.53716593  1.08263173  1
  H+  H97  1  0.51392735  0.27233562  0.50880502  1
  H+  H98  1  0.19511902  0.67313324  0.92047958  1
  H+  H99  1  0.83018539  0.35085299  0.75330558  1
  H+  H100  1  0.67072924  0.76473721  0.75119735  1
  H+  H101  1  0.37991928  0.87810740  0.71727361  1
  H+  H102  1  0.97024986  0.77330391  0.27667656  1
  H+  H103  1  0.85773795  0.69276478  1.00580510  1
  H+  H104  1  0.06658144  0.31058327  0.19133089  1
  H+  H105  1  0.50896765  0.67958438  0.98974739  1
  H+  H106  1  0.16966881  0.86843162  0.96521334  1
  H+  H107  1  0.18556038  1.16201389  -0.02150667  1
  H+  H108  1  0.01976563  0.98015908  0.08795354  1
  H+  H109  1  0.54388246  0.42533867  0.39598837  1
  H+  H110  1  0.20548699  0.10236546  0.51371375  1
  H+  H111  1  0.01842398  0.82946448  0.73003496  1
  H+  H112  1  0.37462180  0.70194261  0.83397101  1
  H+  H113  1  0.89184301  0.73633559  0.36642146  1
  H+  H114  1  0.79261132  0.91261693  0.56626682  1
  H+  H115  1  0.09743094  0.89868143  0.16624495  1
  H+  H116  1  0.81150537  0.31920074  1.01974474  1
  H+  H117  1  0.54703285  0.78384962  0.35359738  1
  H+  H118  1  0.56304751  0.45512181  0.83630726  1
  H+  H119  1  0.79592818  0.87689332  0.70538745  1
  H+  H120  1  0.75127227  0.52558621  0.59410758  1
  H+  H121  1  0.12669941  0.85261660  0.57876839  1
  H+  H122  1  0.48893802  0.83190099  0.00979387  1
  H+  H123  1  0.50899464  0.13005250  -0.01383901  1
  H+  H124  1  0.94914482  0.46473871  0.75986546  1
  H+  H125  1  0.96382401  0.49246784  0.34476011  1
  H+  H126  1  0.77645645  0.22372624  0.63981943  1
  H+  H127  1  0.56293032  0.09972794  0.84555002  1
  H+  H128  1  0.24189730  0.09802902  0.36743760  1
  H+  H129  1  0.42256311  0.85102807  0.14155326  1
  H+  H130  1  0.53066178  0.75713469  0.90278138  1
  H+  H131  1  0.51413281  0.01324506  0.98721729  1
  H+  H132  1  0.88970201  0.12383185  0.38847726  1
  H+  H133  1  0.70276330  0.21183637  0.49830179  1
  H+  H134  1  0.22902620  0.42393827  0.85656996  1
  H+  H135  1  0.11789728  0.22881205  0.07931550  1
  H+  H136  1  0.44185402  0.20369869  0.08702533  1
  H+  H137  1  0.16257007  0.29540382  0.74342850  1
  H+  H138  1  0.89166586  0.12496027  0.84877737  1
  H+  H139  1  0.45813959  0.55663566  0.59430304  1
  H+  H140  1  0.26526752  0.49256188  0.34718245  1
  H+  H141  1  0.89833021  0.74717609  0.86076155  1
  H+  H142  1  0.45592921  0.61270120  0.74098422  1
  H+  H143  1  0.74705180  0.87226220  0.14570276  1
  O2-  O144  1  0.11477505  0.27695634  0.20327565  1
  O2-  O145  1  0.11616508  0.21366686  0.72018920  1
  O2-  O146  1  0.04329245  0.44519867  0.25607608  1
  O2-  O147  1  0.09106107  0.51328935  0.73481273  1
  O2-  O148  1  0.10762626  0.87944994  0.22956324  1
  O2-  O149  1  0.08722796  0.88209406  0.69424475  1
  O2-  O150  1  0.43718891  0.21275737  0.21400624  1
  O2-  O151  1  0.41982587  0.19592442  0.74325398  1
  O2-  O152  1  0.47505519  0.55193727  0.19523947  1
  O2-  O153  1  0.43878976  0.54262358  0.70651656  1
  O2-  O154  1  0.41602735  0.84427475  0.20994195  1
  O2-  O155  1  0.45938953  0.89628657  0.70357440  1
  O2-  O156  1  0.69987235  0.17475281  0.28812733  1
  O2-  O157  1  0.76936178  0.21572954  0.70732983  1
  O2-  O158  1  0.72254875  0.58861083  0.21317467  1
  O2-  O159  1  0.76440405  0.52563190  0.70058976  1
  O2-  O160  1  0.73723941  0.86948051  0.21331281  1
  O2-  O161  1  0.86025493  0.94438703  0.67720908  1
  O2-  O162  1  0.22929565  0.09678727  0.29857072  1
  O2-  O163  1  0.20178889  0.08278945  0.77921771  1
  O2-  O164  1  0.26209237  0.49623063  0.27931424  1
  O2-  O165  1  0.22071436  0.42193075  0.78565824  1
  O2-  O166  1  0.20789243  0.75490113  0.26192476  1
  O2-  O167  1  0.26293407  0.87284814  0.77485163  1
  O2-  O168  1  0.47201648  0.04440950  0.28558534  1
  O2-  O169  1  0.55765608  0.10025179  0.77763092  1
  O2-  O170  1  0.54201641  0.41780127  0.29536996  1
  O2-  O171  1  0.54765870  0.43400551  0.77071661  1
  O2-  O172  1  0.54305715  0.77731279  0.28360966  1
  O2-  O173  1  0.44763935  0.72264532  0.80352144  1
  O2-  O174  1  0.83536037  0.09196385  0.27500147  1
  O2-  O175  1  0.89993993  0.13424217  0.78091917  1
  O2-  O176  1  1.01973645  0.53266071  0.29448562  1
  O2-  O177  1  0.86644538  0.43159157  0.77403901  1
  O2-  O178  1  0.90057638  0.71006864  0.30453084  1
  O2-  O179  1  0.88909217  0.74136981  0.79231448  1
  O2-  O180  1  0.25823060  0.09448566  0.47258704  1
  O2-  O181  1  0.21661841  0.10947147  0.96524246  1
  O2-  O182  1  0.24672110  0.48310443  0.46373110  1
  O2-  O183  1  0.23446693  0.42417726  0.96020102  1
  O2-  O184  1  0.23249680  0.79864543  0.56214354  1
  O2-  O185  1  0.27007247  0.73441278  0.90191404  1
  O2-  O186  1  0.54679885  0.15304381  0.47448172  1
  O2-  O187  1  0.55545692  0.09359098  0.96498058  1
  O2-  O188  1  0.54809250  0.43236111  0.46755495  1
  O2-  O189  1  0.60545943  0.52972538  0.94059016  1
  O2-  O190  1  0.54882736  0.78756753  0.45984987  1
  O2-  O191  1  0.55350769  0.76193416  0.96810729  1
  O2-  O192  1  0.88762767  0.12436940  0.45619202  1
  O2-  O193  1  0.88750070  0.11920683  0.96679080  1
  O2-  O194  1  0.89140906  0.46517258  0.46340731  1
  O2-  O195  1  0.86189160  0.41781281  1.00793613  1
  O2-  O196  1  0.86990669  0.76487838  0.47356997  1
  O2-  O197  1  0.88884703  0.76773825  0.97310317  1
  O2-  O198  1  0.11127719  0.22371886  0.01262461  1
  O2-  O199  1  0.09659406  0.17160740  0.54187612  1
  O2-  O200  1  0.07093649  0.49610580  0.07585126  1
  O2-  O201  1  0.13262127  0.58752006  0.49849264  1
  O2-  O202  1  0.06047148  0.94304182  0.06433809  1
  O2-  O203  1  0.15657254  0.83593629  0.52248247  1
  O2-  O204  1  0.44401121  0.19572631  0.02020558  1
  O2-  O205  1  0.48295382  0.19350718  0.53120349  1
  O2-  O206  1  0.44005922  0.54242572  0.01480678  1
  O2-  O207  1  0.46261467  0.55900061  0.52528714  1
  O2-  O208  1  0.44166851  0.86743113  0.02768181  1
  O2-  O209  1  0.46049085  0.92903381  0.52504452  1
  O2-  O210  1  0.76456434  0.21277133  0.03209398  1
  O2-  O211  1  0.78303197  0.24529128  0.51906645  1
  O2-  O212  1  0.77970546  0.55398418  0.04638714  1
  O2-  O213  1  0.74441116  0.52910238  0.52448869  1
  O2-  O214  1  0.77396472  0.88524338  0.02542654  1
  O2-  O215  1  0.76943823  0.90094717  0.50149765  1
