# generated using pymatgen
data_H2O
_symmetry_space_group_name_H-M   'P 1'
_cell_length_a   13.52431379
_cell_length_b   13.51305253
_cell_length_c   14.68536061
_cell_angle_alpha   90.04383326
_cell_angle_beta   89.97208935
_cell_angle_gamma   120.01203825
_symmetry_Int_Tables_number   1
_chemical_formula_structural   H2O
_chemical_formula_sum   'H144 O72'
_cell_volume   2323.97325458
_cell_formula_units_Z   72
loop_
 _symmetry_equiv_pos_site_id
 _symmetry_equiv_pos_as_xyz
  1  'x, y, z'
loop_
 _atom_type_symbol
 _atom_type_oxidation_number
  H+  1.0
  O2-  -2.0
loop_
 _atom_site_type_symbol
 _atom_site_label
 _atom_site_symmetry_multiplicity
 _atom_site_fract_x
 _atom_site_fract_y
 _atom_site_fract_z
 _atom_site_occupancy
  H+  H0  1  0.15801304  0.18152440  0.24050187  1
  H+  H1  1  0.97594440  0.07267645  0.43572209  1
  H+  H2  1  0.02968133  0.21401184  0.54573911  1
  H+  H3  1  0.62867978  0.82328509  0.99237219  1
  H+  H4  1  0.84211545  0.23735271  0.52414595  1
  H+  H5  1  0.37018465  0.27677582  0.03468629  1
  H+  H6  1  0.35071069  0.50290803  0.25898821  1
  H+  H7  1  0.51855664  0.06357843  0.18373256  1
  H+  H8  1  0.52527011  0.36398261  0.76698747  1
  H+  H9  1  -0.00301811  0.53375513  0.47622372  1
  H+  H10  1  0.77670193  0.33521739  0.48585583  1
  H+  H11  1  -0.12582492  0.75969604  0.41521914  1
  H+  H12  1  0.16323885  0.67479415  0.98926956  1
  H+  H13  1  0.29797930  0.14648732  0.75976423  1
  H+  H14  1  0.16916208  0.63769187  0.50642143  1
  H+  H15  1  0.53653979  0.37273256  0.99521094  1
  H+  H16  1  0.64826076  0.47990981  0.76908734  1
  H+  H17  1  0.14268697  0.94434741  0.01234602  1
  H+  H18  1  0.48089453  0.18842867  0.73714313  1
  H+  H19  1  0.79508078  0.81640833  0.51801508  1
  H+  H20  1  0.63207336  0.79254209  0.47370246  1
  H+  H21  1  0.82408983  0.64072606  0.74684269  1
  H+  H22  1  0.81426708  0.84968040  -0.00110328  1
  H+  H23  1  0.84486700  0.70241691  0.99089619  1
  H+  H24  1  0.81341190  0.35006481  0.52807928  1
  H+  H25  1  0.20301215  0.35944137  0.26145885  1
  H+  H26  1  0.13653631  0.95188208  0.51053048  1
  H+  H27  1  0.15686711  0.78848423  0.99234605  1
  H+  H28  1  0.95516983  0.80911255  0.27154698  1
  H+  H29  1  0.48258959  0.83520999  0.48429636  1
  H+  H30  1  0.81384013  0.96806248  0.00362984  1
  H+  H31  1  0.84946327  0.03347189  0.77567289  1
  H+  H32  1  0.18061892  0.02470799  0.75675272  1
  H+  H33  1  0.83514672  0.35743598  0.25746482  1
  H+  H34  1  0.81837784  0.30424528  0.01902425  1
  H+  H35  1  0.77765663  0.54807768  0.61155808  1
  H+  H36  1  0.17987965  0.80962137  0.48077845  1
  H+  H37  1  0.14804124  0.17218963  0.75231112  1
  H+  H38  1  0.52291939  0.69624667  0.76210154  1
  H+  H39  1  0.43902827  0.16011543  0.49299700  1
  H+  H40  1  0.18907683  0.36508411  0.50070278  1
  H+  H41  1  0.15228350  0.31288551  0.00805275  1
  H+  H42  1  0.47150329  0.19135630  0.23235843  1
  H+  H43  1  0.14053610  0.84178207  0.25425634  1
  H+  H44  1  0.84102579  0.81557342  0.26365894  1
  H+  H45  1  0.62328470  0.16387674  0.53250187  1
  H+  H46  1  0.17478327  0.35739812  0.76851476  1
  H+  H47  1  0.23198086  0.80137079  0.19764762  1
  H+  H48  1  0.51115151  0.70987726  0.99951793  1
  H+  H49  1  0.84534613  0.50038551  1.00187090  1
  H+  H50  1  0.64815724  0.18576219  0.98509222  1
  H+  H51  1  0.83127781  0.97377022  0.21879066  1
  H+  H52  1  0.37155865  0.50704014  0.50312626  1
  H+  H53  1  0.50257533  0.51835175  1.01384092  1
  H+  H54  1  0.14141134  0.83930538  0.74297411  1
  H+  H55  1  0.35273338  0.52033728  0.73326462  1
  H+  H56  1  0.87158801  0.17659783  0.23092789  1
  H+  H57  1  0.14102814  0.50458849  0.74100323  1
  H+  H58  1  0.96476242  0.15730956  0.99695009  1
  H+  H59  1  0.51727958  0.14845777  -0.00894155  1
  H+  H60  1  0.19303621  0.75616616  0.84782135  1
  H+  H61  1  0.36234452  0.83033624  0.48756259  1
  H+  H62  1  0.32608561  0.49144234  0.99204418  1
  H+  H63  1  0.82731964  0.52276833  0.75174896  1
  H+  H64  1  0.02216206  0.83025010  0.51343145  1
  H+  H65  1  0.70643878  0.85661600  0.76697105  1
  H+  H66  1  0.82851215  0.86596281  0.76524426  1
  H+  H67  1  0.51735037  0.47604697  0.49369273  1
  H+  H68  1  0.43070487  0.22272604  0.65154991  1
  H+  H69  1  0.85118174  0.36908261  0.77946348  1
  H+  H70  1  0.13947988  0.95945484  0.25116626  1
  H+  H71  1  0.82988700  0.53351324  0.51488928  1
  H+  H72  1  0.45558260  -0.00160438  0.45345912  1
  H+  H73  1  0.47778019  0.87095128  0.27769871  1
  H+  H74  1  0.02913671  0.17591943  0.75454992  1
  H+  H75  1  0.62676955  0.17034921  0.22546510  1
  H+  H76  1  0.29149022  0.14604145  0.26959738  1
  H+  H77  1  0.46818233  0.29050939  0.50424993  1
  H+  H78  1  0.45740344  0.70709442  0.24925715  1
  H+  H79  1  0.83225340  0.47477082  0.25150681  1
  H+  H80  1  0.70016509  0.52389885  0.01137422  1
  H+  H81  1  0.72892439  0.13095366  0.22838465  1
  H+  H82  1  0.33649871  0.82779083  0.72323585  1
  H+  H83  1  0.96518701  0.81662330  0.99380390  1
  H+  H84  1  0.16223082  0.14213230  0.50241200  1
  H+  H85  1  0.79885808  0.92845878  0.49010637  1
  H+  H86  1  0.80765986  0.63555628  0.24697251  1
  H+  H87  1  0.83840991  0.68311195  0.50638552  1
  H+  H88  1  0.06416141  0.44770337  0.04925496  1
  H+  H89  1  0.63270338  0.16696090  0.75140379  1
  H+  H90  1  0.19297968  0.48509549  0.49143152  1
  H+  H91  1  0.51241215  0.48819420  0.27056665  1
  H+  H92  1  0.56034959  0.14459657  0.83963839  1
  H+  H93  1  0.29036997  0.11422792  -0.00889002  1
  H+  H94  1  0.41804624  0.86396478  0.63843155  1
  H+  H95  1  0.88940798  0.11254812  0.46697939  1
  H+  H96  1  0.64283998  0.13399745  0.50009301  1
  H+  H97  1  0.49023237  0.62423513  0.50024649  1
  H+  H98  1  0.33893936  0.79277878  0.25677134  1
  H+  H99  1  0.96475088  0.50288680  1.00455575  1
  H+  H100  1  0.83161733  0.18630100  0.76329959  1
  H+  H101  1  0.55042698  0.73078834  0.38528444  1
  H+  H102  1  0.51093417  0.90557016  1.03867833  1
  H+  H103  1  0.63362719  0.47130352  0.49753336  1
  H+  H104  1  0.68893221  0.51758982  0.24321906  1
  H+  H105  1  0.04871572  0.19778122  0.22828710  1
  H+  H106  1  0.02334491  0.50617728  0.74077001  1
  H+  H107  1  0.47042937  0.30903971  0.25130018  1
  H+  H108  1  0.55501913  0.44414143  0.35666584  1
  H+  H109  1  0.22309808  0.44620832  0.85163475  1
  H+  H110  1  0.20702953  0.10300872  0.35644307  1
  H+  H111  1  0.81614856  0.24458679  0.67537634  1
  H+  H112  1  1.02298957  0.52299819  0.24440303  1
  H+  H113  1  0.09677689  0.87187471  0.10587213  1
  H+  H114  1  0.10754972  0.54759014  0.12435764  1
  H+  H115  1  0.43634278  0.55518533  0.64802415  1
  H+  H116  1  0.12016304  0.55586732  0.59519591  1
  H+  H117  1  0.89475076  0.77927530  0.85063679  1
  H+  H118  1  0.21564520  0.50437037  0.99704706  1
  H+  H119  1  0.77937021  0.88212579  0.14170987  1
  H+  H120  1  0.15738559  0.68164713  0.75589397  1
  H+  H121  1  0.28019031  0.14392593  0.49557509  1
  H+  H122  1  0.23639414  0.43608439  0.35531043  1
  H+  H123  1  0.21706944  0.77482929  0.38827526  1
  H+  H124  1  0.45538674  0.88264683  0.13321237  1
  H+  H125  1  0.55219570  0.77139421  0.85322442  1
  H+  H126  1  0.11706661  0.23488814  0.09657741  1
  H+  H127  1  0.84337495  0.15156619  0.99578624  1
  H+  H128  1  0.14645039  0.64273830  0.24403242  1
  H+  H129  1  0.77925615  0.11588457  0.56764688  1
  H+  H130  1  0.89515370  0.12182549  0.86033457  1
  H+  H131  1  0.57315453  0.44464117  0.90076683  1
  H+  H132  1  0.11321781  0.22428440  0.62385382  1
  H+  H133  1  0.89275245  0.45709706  0.86324646  1
  H+  H134  1  0.10930175  0.88176642  0.65148268  1
  H+  H135  1  0.77498810  0.56679412  0.10407830  1
  H+  H136  1  0.91063536  0.49571671  0.39131115  1
  H+  H137  1  0.48610903  0.07964558  0.36683768  1
  H+  H138  1  0.45714904  0.55324299  0.10320281  1
  H+  H139  1  0.97147687  0.81851513  0.75942347  1
  H+  H140  1  0.21636231  0.07980317  0.90018065  1
  H+  H141  1  0.77340363  0.21784138  0.10648934  1
  H+  H142  1  0.90083705  0.11445971  0.31203052  1
  H+  H143  1  0.41892726  0.23694205  0.11527948  1
  O2-  O144  1  0.13313781  0.23439958  0.21526354  1
  O2-  O145  1  0.10990343  0.21563516  0.73015840  1
  O2-  O146  1  0.10274815  0.56041166  0.22198008  1
  O2-  O147  1  0.10094688  0.54253670  0.71251972  1
  O2-  O148  1  0.09640189  0.87791079  0.23103915  1
  O2-  O149  1  0.10867150  0.88756621  0.71909748  1
  O2-  O150  1  0.42444908  0.22966670  0.22540961  1
  O2-  O151  1  0.43342373  0.22517302  0.71899212  1
  O2-  O152  1  0.44027091  0.55144328  0.22886188  1
  O2-  O153  1  0.43357890  0.56330588  0.71467281  1
  O2-  O154  1  0.42342900  0.80619862  0.24139958  1
  O2-  O155  1  0.41514315  0.85208607  0.70438326  1
  O2-  O156  1  0.76818321  0.21097221  0.20990146  1
  O2-  O157  1  0.79524476  0.23258055  0.73950045  1
  O2-  O158  1  0.76876307  0.55702215  0.21913022  1
  O2-  O159  1  0.78496768  0.55888692  0.72516680  1
  O2-  O160  1  0.78936517  0.89048636  0.20926719  1
  O2-  O161  1  0.79025500  0.91052943  0.75213639  1
  O2-  O162  1  0.20931336  0.10086329  0.28846337  1
  O2-  O163  1  0.21721961  0.10376287  0.78317489  1
  O2-  O164  1  0.24626190  0.43936994  0.28765235  1
  O2-  O165  1  0.20941145  0.43977942  0.78461804  1
  O2-  O166  1  0.22799890  0.77813900  0.26122396  1
  O2-  O167  1  0.19072128  0.76103734  0.77957678  1
  O2-  O168  1  0.54129648  0.12042707  0.23317153  1
  O2-  O169  1  0.55341186  0.13459616  0.77214768  1
  O2-  O170  1  0.55145412  0.44448822  0.28806193  1
  O2-  O171  1  0.57274134  0.43710524  0.79968716  1
  O2-  O172  1  0.50049448  0.66673543  0.26860813  1
  O2-  O173  1  0.57888699  0.76994967  0.79106885  1
  O2-  O174  1  0.91242554  0.13317616  0.24638986  1
  O2-  O175  1  0.89501587  0.12097800  0.79163864  1
  O2-  O176  1  0.87515989  0.43872458  0.27682290  1
  O2-  O177  1  0.89284528  0.45232063  0.79506387  1
  O2-  O178  1  0.87416018  0.77077828  0.29270215  1
  O2-  O179  1  0.89100746  0.77649733  0.78247651  1
  O2-  O180  1  0.19787298  0.10071101  0.47465852  1
  O2-  O181  1  0.21275868  0.06651095  0.96713009  1
  O2-  O182  1  0.22962915  0.44024904  0.46955596  1
  O2-  O183  1  0.24551323  0.45824764  0.96893413  1
  O2-  O184  1  0.22006915  0.77060906  0.45522903  1
  O2-  O185  1  0.19429600  0.75027151  0.96137232  1
  O2-  O186  1  0.44657881  0.06084954  0.42558290  1
  O2-  O187  1  0.58307716  0.18289561  0.95078543  1
  O2-  O188  1  0.55525804  0.43268756  0.47020574  1
  O2-  O189  1  0.57380478  0.45173210  0.97154474  1
  O2-  O190  1  0.55028960  0.75205710  0.44942601  1
  O2-  O191  1  0.54571913  0.78957607  0.97831426  1
  O2-  O192  1  0.90054835  0.06269803  0.42353747  1
  O2-  O193  1  0.88461853  0.11215079  0.97268762  1
  O2-  O194  1  0.93192325  0.53805984  0.44972414  1
  O2-  O195  1  0.88670197  0.45987267  0.97929937  1
  O2-  O196  1  0.88191839  0.76394754  0.48285876  1
  O2-  O197  1  0.88684095  0.78205753  0.96605412  1
  O2-  O198  1  0.09975427  0.23505482  0.03095846  1
  O2-  O199  1  0.10704004  0.22756548  0.55409986  1
  O2-  O200  1  0.10479805  0.53078367  0.05308918  1
  O2-  O201  1  0.12820042  0.55639428  0.52739093  1
  O2-  O202  1  0.09504331  0.86440913  0.03859849  1
  O2-  O203  1  0.10505185  0.87176490  0.53134590  1
  O2-  O204  1  0.41582183  0.24074909  0.04644526  1
  O2-  O205  1  0.41741080  0.21091832  0.52696981  1
  O2-  O206  1  0.45666672  0.55325699  0.03582109  1
  O2-  O207  1  0.45179089  0.54438808  0.52560645  1
  O2-  O208  1  0.48533286  0.94117874  0.08478098  1
  O2-  O209  1  0.44446759  0.87804774  0.50431378  1
  O2-  O210  1  0.77758563  0.22236364  0.03541042  1
  O2-  O211  1  0.85517297  0.17953930  0.55316955  1
  O2-  O212  1  0.78102282  0.56862711  0.03589183  1
  O2-  O213  1  0.77015851  0.54746008  0.54332105  1
  O2-  O214  1  0.77156445  0.88652693  0.02371360  1
  O2-  O215  1  0.75097513  0.85727333  0.52329595  1
