# generated using pymatgen
data_H2O
_symmetry_space_group_name_H-M   'P 1'
_cell_length_a   13.50193827
_cell_length_b   13.51367539
_cell_length_c   14.67499479
_cell_angle_alpha   89.98344813
_cell_angle_beta   89.99223077
_cell_angle_gamma   119.99708333
_symmetry_Int_Tables_number   1
_chemical_formula_structural   H2O
_chemical_formula_sum   'H144 O72'
_cell_volume   2318.94746854
_cell_formula_units_Z   72
loop_
 _symmetry_equiv_pos_site_id
 _symmetry_equiv_pos_as_xyz
  1  'x, y, z'
loop_
 _atom_type_symbol
 _atom_type_oxidation_number
  H+  1.0
  O2-  -2.0
loop_
 _atom_site_type_symbol
 _atom_site_label
 _atom_site_symmetry_multiplicity
 _atom_site_fract_x
 _atom_site_fract_y
 _atom_site_fract_z
 _atom_site_occupancy
  H+  H0  1  0.80690806  0.29633436  0.51457807  1
  H+  H1  1  0.81819074  0.61450035  0.25276919  1
  H+  H2  1  0.14086007  0.85397705  0.51647262  1
  H+  H3  1  0.52213920  0.14505678  0.75514256  1
  H+  H4  1  0.83538562  0.03127705  0.24346643  1
  H+  H5  1  0.17093218  0.46119854  0.74293070  1
  H+  H6  1  0.71281010  0.50767928  -0.01086227  1
  H+  H7  1  0.30642437  0.15049712  0.75262525  1
  H+  H8  1  0.52691517  0.33679259  1.00049658  1
  H+  H9  1  0.61181403  0.80033864  0.99101132  1
  H+  H10  1  0.84333545  0.69899814  0.76155611  1
  H+  H11  1  0.16235933  0.46045185  0.26861276  1
  H+  H12  1  0.81073249  0.51287161  0.74643888  1
  H+  H13  1  0.81719145  0.86167095  0.79201682  1
  H+  H14  1  0.13522490  0.50946606  1.00612734  1
  H+  H15  1  0.94698309  0.15587062  0.24015363  1
  H+  H16  1  0.50965330  0.47576701  0.26819403  1
  H+  H17  1  0.83470578  0.19393351  0.51065626  1
  H+  H18  1  0.47362761  0.84582797  0.50773759  1
  H+  H19  1  0.93953651  0.44694639  0.75563700  1
  H+  H20  1  0.55287663  0.46469971  1.02259128  1
  H+  H21  1  0.17746199  1.03037390  0.24200357  1
  H+  H22  1  0.28549066  0.46970945  0.26098887  1
  H+  H23  1  0.20975988  0.71030020  0.71565864  1
  H+  H24  1  0.07609353  0.24845214  0.50369825  1
  H+  H25  1  0.47728985  0.85324756  0.74074563  1
  H+  H26  1  0.32345239  0.86249148  0.26284612  1
  H+  H27  1  0.49621290  0.30954532  0.51988627  1
  H+  H28  1  -0.01369144  0.15764047  0.74843364  1
  H+  H29  1  0.96240622  0.82062233  0.76096424  1
  H+  H30  1  0.16171450  0.69632222  0.74917061  1
  H+  H31  1  0.15732914  0.18413372  0.73610383  1
  H+  H32  1  0.87966384  0.77785549  0.89837988  1
  H+  H33  1  0.81153385  0.28320709  0.74177905  1
  H+  H34  1  0.50681064  0.18984091  0.24240763  1
  H+  H35  1  0.97190627  0.08528459  0.44757046  1
  H+  H36  1  0.64134995  0.82336395  0.24614912  1
  H+  H37  1  0.54717144  0.42218806  0.85682704  1
  H+  H38  1  0.49887482  0.02816794  0.46713665  1
  H+  H39  1  0.70066964  0.49761344  0.26032877  1
  H+  H40  1  0.51935468  1.02270526  -0.01367236  1
  H+  H41  1  0.78542216  0.93120572  0.45463787  1
  H+  H42  1  0.46631833  0.55621768  0.79636338  1
  H+  H43  1  0.48739816  0.27891130  0.74318967  1
  H+  H44  1  0.48559810  0.68849257  0.99299721  1
  H+  H45  1  0.47466721  0.84525253  0.01106744  1
  H+  H46  1  0.82069225  0.85033467  0.23169749  1
  H+  H47  1  0.94721064  0.80101427  0.48770227  1
  H+  H48  1  0.10228859  0.89315258  0.65675210  1
  H+  H49  1  0.84610808  0.47383506  -0.01542221  1
  H+  H50  1  0.47001155  0.22059798  0.10664984  1
  H+  H51  1  0.50610560  0.17656001  1.01577252  1
  H+  H52  1  0.29693115  0.14634030  0.25078605  1
  H+  H53  1  0.86935113  0.08371472  1.07473737  1
  H+  H54  1  0.70182720  0.86909321  0.79027387  1
  H+  H55  1  0.32405432  0.88304173  0.78177686  1
  H+  H56  1  0.85569226  1.03352297  0.78296172  1
  H+  H57  1  0.79387972  0.81680297  0.45130819  1
  H+  H58  1  0.18484108  0.81433283  1.01588683  1
  H+  H59  1  0.80251407  0.30386527  0.02886508  1
  H+  H60  1  0.50473044  0.63245134  0.55716105  1
  H+  H61  1  0.56683056  0.10558719  0.89748739  1
  H+  H62  1  0.52154033  0.48131180  0.50644479  1
  H+  H63  1  -0.04378264  0.82550554  -0.01238737  1
  H+  H64  1  0.64193087  0.14351577  0.75370843  1
  H+  H65  1  0.68491094  0.17993096  0.01994726  1
  H+  H66  1  0.49822769  0.44370168  0.76403396  1
  H+  H67  1  0.15658127  0.88148012  0.75346566  1
  H+  H68  1  0.15915751  0.86013507  0.23719267  1
  H+  H69  1  0.49114361  0.97678239  0.73631046  1
  H+  H70  1  0.76922871  0.15860932  0.24490849  1
  H+  H71  1  0.13402392  0.17521569  0.22831493  1
  H+  H72  1  0.83021762  0.67399261  0.48188703  1
  H+  H73  1  0.43656002  0.50645167  0.00031903  1
  H+  H74  1  0.13519608  0.62575172  1.01912890  1
  H+  H75  1  1.02326523  0.19505146  1.00988856  1
  H+  H76  1  0.64641680  0.49280076  0.49181738  1
  H+  H77  1  0.16549643  0.36518724  0.98058327  1
  H+  H78  1  0.82404709  0.63177914  0.99323526  1
  H+  H79  1  0.07483492  0.52825675  0.44380461  1
  H+  H80  1  0.60627747  0.78105517  0.45276806  1
  H+  H81  1  0.87385227  0.41921487  0.85276560  1
  H+  H82  1  0.10777291  0.23387812  0.09359630  1
  H+  H83  1  0.30307095  0.83310503  0.49697362  1
  H+  H84  1  0.78616563  0.94476759  -0.00960104  1
  H+  H85  1  0.32328002  0.51117713  1.00442355  1
  H+  H86  1  0.00793023  0.48943054  0.24865248  1
  H+  H87  1  0.50301794  0.70786752  0.76083257  1
  H+  H88  1  0.79770833  0.83318665  -0.00333072  1
  H+  H89  1  0.16179214  0.14994946  0.47788400  1
  H+  H90  1  0.30222349  0.81472127  1.00875820  1
  H+  H91  1  0.33676018  0.51688261  0.49750087  1
  H+  H92  1  0.52552352  0.99893415  0.22449684  1
  H+  H93  1  0.11808597  0.87720570  -0.06142751  1
  H+  H94  1  0.14460197  -0.01084676  0.99002961  1
  H+  H95  1  0.26894577  0.48419982  0.39997481  1
  H+  H96  1  0.30573179  0.49258228  0.76069554  1
  H+  H97  1  0.16999840  0.15834278  0.98304048  1
  H+  H98  1  0.15473125  0.30200024  0.74044155  1
  H+  H99  1  0.81112534  0.48403553  0.49604694  1
  H+  H100  1  0.47629010  0.63421368  0.23798079  1
  H+  H101  1  0.92466228  0.47316811  0.50471024  1
  H+  H102  1  0.48863476  0.29730289  0.24895331  1
  H+  H103  1  0.96281752  0.81239216  0.25257442  1
  H+  H104  1  0.69521190  0.51391846  0.74708413  1
  H+  H105  1  0.10252587  0.56959280  0.69745917  1
  H+  H106  1  0.18650258  0.71493399  0.48528144  1
  H+  H107  1  0.11698435  0.95850840  0.50953894  1
  H+  H108  1  0.73102571  0.21002545  0.15389803  1
  H+  H109  1  0.42466299  0.54887622  0.15534866  1
  H+  H110  1  0.54737933  0.43920603  0.36011946  1
  H+  H111  1  0.55436669  0.79004505  0.32981844  1
  H+  H112  1  0.44954114  0.90075542  0.09978838  1
  H+  H113  1  0.10723208  0.88025044  0.14485860  1
  H+  H114  1  0.24829950  0.83588220  0.87169751  1
  H+  H115  1  0.53628160  0.78104804  0.85148090  1
  H+  H116  1  0.20692402  0.44347483  0.88883181  1
  H+  H117  1  0.77577604  0.88266797  0.14035434  1
  H+  H118  1  0.85452643  0.45001489  0.34497074  1
  H+  H119  1  0.83215844  0.15851469  1.02229857  1
  H+  H120  1  0.85598263  0.15803213  0.74679189  1
  H+  H121  1  0.44753518  0.55151117  0.64145190  1
  H+  H122  1  0.09159898  0.52655344  0.16350574  1
  H+  H123  1  0.77027848  0.56258834  0.58495920  1
  H+  H124  1  0.19090646  0.54705200  0.48462314  1
  H+  H125  1  0.89681343  0.11273673  0.38149368  1
  H+  H126  1  0.47964283  0.18557877  0.50615154  1
  H+  H127  1  0.95791175  0.46374750  0.99356400  1
  H+  H128  1  0.13704475  0.29370382  0.24048755  1
  H+  H129  1  0.73206422  0.87829407  0.62193409  1
  H+  H130  1  0.24078795  0.81963241  0.34986479  1
  H+  H131  1  0.78630599  0.21308835  0.64544893  1
  H+  H132  1  0.13411559  0.24669267  0.59532136  1
  H+  H133  1  0.21790651  0.12332249  0.89625926  1
  H+  H134  1  0.88267559  0.77197242  0.34086619  1
  H+  H135  1  0.79183388  0.92863189  0.62287256  1
  H+  H136  1  0.18020940  0.04125755  0.75555821  1
  H+  H137  1  0.17497831  0.09223240  0.38709782  1
  H+  H138  1  0.56004699  0.11401882  0.38347135  1
  H+  H139  1  0.46756162  0.68194207  0.44001493  1
  H+  H140  1  0.45143042  0.21219730  0.64696271  1
  H+  H141  1  0.07172688  0.49186005  0.61332147  1
  H+  H142  1  0.50096056  0.86900535  0.22878369  1
  H+  H143  1  0.44403206  0.89369891  0.59856674  1
  O2-  O144  1  0.09360569  0.21708728  0.20928394  1
  O2-  O145  1  0.11189929  0.22144123  0.71557492  1
  O2-  O146  1  0.08903815  0.51588280  0.23025613  1
  O2-  O147  1  0.06547265  0.48849738  0.68096805  1
  O2-  O148  1  0.10696060  0.88797778  0.21102154  1
  O2-  O149  1  0.09991167  0.89966433  0.72497041  1
  O2-  O150  1  0.45485482  0.21827535  0.22307127  1
  O2-  O151  1  0.44573110  0.20091361  0.71722555  1
  O2-  O152  1  0.43226007  0.55138101  0.22244861  1
  O2-  O153  1  0.42746552  0.56596010  0.74437426  1
  O2-  O154  1  0.46788116  0.91698048  0.20834153  1
  O2-  O155  1  0.44028792  0.89581981  0.71533184  1
  O2-  O156  1  0.72592409  0.19951781  0.22676849  1
  O2-  O157  1  0.78331769  0.20484091  0.71572707  1
  O2-  O158  1  0.77787204  0.53386111  0.23207715  1
  O2-  O159  1  0.77587463  0.55891273  0.72682552  1
  O2-  O160  1  0.78225690  0.89298963  0.20771259  1
  O2-  O161  1  0.78473537  0.91196106  0.80639478  1
  O2-  O162  1  0.21417283  0.11085120  0.26494663  1
  O2-  O163  1  0.22659466  0.12289487  0.77545099  1
  O2-  O164  1  0.20928738  0.42477685  0.29038294  1
  O2-  O165  1  0.21745404  0.43591048  0.77686074  1
  O2-  O166  1  0.24275679  0.82467992  0.28242608  1
  O2-  O167  1  0.26277744  0.88543304  0.81797300  1
  O2-  O168  1  0.60532917  0.13221915  0.25894840  1
  O2-  O169  1  0.56403385  0.10680580  0.78115465  1
  O2-  O170  1  0.54765930  0.43454490  0.29138987  1
  O2-  O171  1  0.55084075  0.42051073  0.78872627  1
  O2-  O172  1  0.55819433  0.78602730  0.26247716  1
  O2-  O173  1  0.54881963  0.78949700  0.78419754  1
  O2-  O174  1  0.86551377  0.11321053  0.26158933  1
  O2-  O175  1  0.90382702  0.12293702  0.77371189  1
  O2-  O176  1  0.86939721  0.44423926  0.27936765  1
  O2-  O177  1  0.86370228  0.41644984  0.78449083  1
  O2-  O178  1  0.88149657  0.77461527  0.27240750  1
  O2-  O179  1  0.88241593  0.77911105  0.78587645  1
  O2-  O180  1  0.13475604  0.07557242  0.44659283  1
  O2-  O181  1  0.20649388  0.11387304  0.96335510  1
  O2-  O182  1  0.29868059  0.54009702  0.45126228  1
  O2-  O183  1  0.20407506  0.44624128  0.95764106  1
  O2-  O184  1  0.22272946  0.79752973  0.47240428  1
  O2-  O185  1  0.21941684  0.77235400  0.98854950  1
  O2-  O186  1  0.51511046  0.10127434  0.43954670  1
  O2-  O187  1  0.56706814  0.10422103  0.96583164  1
  O2-  O188  1  0.55939481  0.44586522  0.47317640  1
  O2-  O189  1  0.55971260  0.42090631  0.97290045  1
  O2-  O190  1  0.52342988  0.76261978  0.45105181  1
  O2-  O191  1  0.53083716  0.76847667  0.97002235  1
  O2-  O192  1  0.91050840  0.10441040  0.44700329  1
  O2-  O193  1  0.87178969  0.11295629  1.01353466  1
  O2-  O194  1  0.84881196  0.43174039  0.47792050  1
  O2-  O195  1  0.87732682  0.42048970  0.96974294  1
  O2-  O196  1  0.87291314  0.75838582  0.45583748  1
  O2-  O197  1  0.87528585  0.77821262  0.96701031  1
  O2-  O198  1  0.10622680  0.23577377  0.02503618  1
  O2-  O199  1  0.14944086  0.26455420  0.52932472  1
  O2-  O200  1  0.09243145  0.54330970  0.03567027  1
  O2-  O201  1  0.12037244  0.55401069  0.49951374  1
  O2-  O202  1  0.10499625  0.90058081  -0.00167143  1
  O2-  O203  1  0.09246618  0.88436087  0.54140853  1
  O2-  O204  1  0.47532504  0.22505095  0.03866204  1
  O2-  O205  1  0.45428791  0.22982129  0.54404457  1
  O2-  O206  1  0.40462010  0.54837559  0.03067230  1
  O2-  O207  1  0.45707446  0.55155231  0.57204846  1
  O2-  O208  1  0.43905310  0.89131165  0.03121229  1
  O2-  O209  1  0.43948110  0.89132794  0.53029391  1
  O2-  O210  1  0.75789005  0.22405393  0.05693361  1
  O2-  O211  1  0.78858823  0.22080320  0.54183084  1
  O2-  O212  1  0.79383759  0.55003158  0.00758260  1
  O2-  O213  1  0.76825369  0.55689043  0.51835909  1
  O2-  O214  1  0.75234964  0.86938486  0.02003346  1
  O2-  O215  1  0.74185159  0.84943968  0.44065378  1
