# generated using pymatgen
data_H2O
_symmetry_space_group_name_H-M   'P 1'
_cell_length_a   13.51178041
_cell_length_b   13.52806764
_cell_length_c   14.69063207
_cell_angle_alpha   89.97279520
_cell_angle_beta   90.03687246
_cell_angle_gamma   119.94009683
_symmetry_Int_Tables_number   1
_chemical_formula_structural   H2O
_chemical_formula_sum   'H144 O72'
_cell_volume   2326.91862333
_cell_formula_units_Z   72
loop_
 _symmetry_equiv_pos_site_id
 _symmetry_equiv_pos_as_xyz
  1  'x, y, z'
loop_
 _atom_type_symbol
 _atom_type_oxidation_number
  H+  1.0
  O2-  -2.0
loop_
 _atom_site_type_symbol
 _atom_site_label
 _atom_site_symmetry_multiplicity
 _atom_site_fract_x
 _atom_site_fract_y
 _atom_site_fract_z
 _atom_site_occupancy
  H+  H0  1  0.39119370  0.86300315  0.52328334  1
  H+  H1  1  0.82124966  0.96591034  0.73389077  1
  H+  H2  1  0.52192282  0.47679516  0.25584789  1
  H+  H3  1  0.20902757  0.83269676  0.49440103  1
  H+  H4  1  0.82639703  0.30176830  0.50272631  1
  H+  H5  1  0.49187428  0.16073831  0.47342846  1
  H+  H6  1  0.79762922  0.15661496  0.73030210  1
  H+  H7  1  0.55566467  0.00797374  0.48016625  1
  H+  H8  1  0.78677515  0.91632653  0.02749680  1
  H+  H9  1  0.15703040  0.17938440  0.49108917  1
  H+  H10  1  0.35328378  0.21200958  0.52136116  1
  H+  H11  1  0.37577314  0.51069771  0.50689440  1
  H+  H12  1  0.97791518  0.79960862  0.24299600  1
  H+  H13  1  -0.10447931  0.42540957  0.75090812  1
  H+  H14  1  0.80221120  0.81728419  0.24346018  1
  H+  H15  1  0.52388686  0.81066266  0.49948809  1
  H+  H16  1  0.19649037  0.35926392  0.47232135  1
  H+  H17  1  0.21153103  0.10213625  0.38277187  1
  H+  H18  1  0.86038024  0.83481661  0.50329046  1
  H+  H19  1  0.50101030  0.97302313  0.75652523  1
  H+  H20  1  0.55480661  0.77108698  0.86436749  1
  H+  H21  1  0.75315922  0.20019058  0.64780195  1
  H+  H22  1  0.33225404  0.84631243  0.77926705  1
  H+  H23  1  0.83796922  0.31389855  0.24587828  1
  H+  H24  1  0.82265376  0.78569919  0.97710528  1
  H+  H25  1  0.18930165  0.03545624  1.13493555  1
  H+  H26  1  0.63650013  0.46931969  0.25369161  1
  H+  H27  1  -0.02599010  0.81991225  0.75884807  1
  H+  H28  1  0.85368693  0.03020512  0.49184113  1
  H+  H29  1  0.20082046  0.47907161  0.46404357  1
  H+  H30  1  0.70259242  0.50014665  0.00010215  1
  H+  H31  1  0.77505122  0.88632020  0.60175596  1
  H+  H32  1  0.81886050  0.50767002  0.22744244  1
  H+  H33  1  0.83841030  0.18840829  0.50614708  1
  H+  H34  1  0.81409765  0.52318765  0.73432128  1
  H+  H35  1  0.63312946  0.80082958  0.26474452  1
  H+  H36  1  0.09357184  0.92397671  0.24605240  1
  H+  H37  1  0.36128678  0.19947678  1.01117484  1
  H+  H38  1  0.88199134  0.38940543  0.98349969  1
  H+  H39  1  0.43394825  0.22235990  0.10472098  1
  H+  H40  1  0.64762739  0.17596864  0.26392423  1
  H+  H41  1  0.56134535  0.44161315  0.90124296  1
  H+  H42  1  0.04494992  0.55250944  0.00327130  1
  H+  H43  1  0.21247984  0.73514609  0.79182688  1
  H+  H44  1  0.51959428  0.68985409  0.49668073  1
  H+  H45  1  0.62547732  0.17391537  0.99371313  1
  H+  H46  1  0.78088146  0.54082940  0.09039839  1
  H+  H47  1  0.32468248  0.82825137  0.01656440  1
  H+  H48  1  0.70926776  0.52628403  0.50197191  1
  H+  H49  1  0.32698420  0.48450003  -0.01910370  1
  H+  H50  1  0.35533550  0.81557147  0.24435909  1
  H+  H51  1  0.68006280  0.13300815  0.47214129  1
  H+  H52  1  0.05090171  0.85293204  0.51655490  1
  H+  H53  1  0.51712354  0.79460637  0.98821374  1
  H+  H54  1  0.85766538  0.49431211  0.98678161  1
  H+  H55  1  0.97640469  0.15178341  0.72709137  1
  H+  H56  1  0.81705907  0.84559495  0.73828611  1
  H+  H57  1  0.50252548  0.16440544  -0.00702525  1
  H+  H58  1  0.11942837  0.21091260  0.11375302  1
  H+  H59  1  0.36253431  0.17460347  0.75057463  1
  H+  H60  1  -0.01225832  0.48672156  0.25070681  1
  H+  H61  1  0.31325556  0.48447110  0.23735260  1
  H+  H62  1  0.20504189  0.37429376  0.99227393  1
  H+  H63  1  0.15937227  0.63046688  0.22685145  1
  H+  H64  1  0.51172531  0.36580039  0.76789530  1
  H+  H65  1  0.47342728  0.81476471  0.24870570  1
  H+  H66  1  0.70064213  0.84435504  0.50971326  1
  H+  H67  1  1.04193177  0.20003574  1.02699369  1
  H+  H68  1  0.16983173  0.51506651  0.22405340  1
  H+  H69  1  0.47799020  0.29841528  0.24959595  1
  H+  H70  1  0.72932313  0.12284409  0.05217989  1
  H+  H71  1  0.89097953  0.10059426  0.39853194  1
  H+  H72  1  0.19266393  0.18568725  -0.01667956  1
  H+  H73  1  0.49300511  0.62283798  0.23713027  1
  H+  H74  1  0.55391949  0.75925614  0.35379853  1
  H+  H75  1  0.96952758  0.11324631  0.26327334  1
  H+  H76  1  0.18670011  0.15259075  0.74732994  1
  H+  H77  1  0.19255083  1.03087930  0.47459372  1
  H+  H78  1  0.19000136  0.45432043  0.76459743  1
  H+  H79  1  0.07821439  0.51768410  0.82587333  1
  H+  H80  1  0.12487157  0.22245627  0.63218757  1
  H+  H81  1  0.84037782  0.67876905  -0.02765697  1
  H+  H82  1  0.52229525  0.36572567  0.99409400  1
  H+  H83  1  0.03992744  0.18154875  0.49618825  1
  H+  H84  1  0.83913013  0.66389841  0.73074872  1
  H+  H85  1  0.18448297  0.69804147  1.00866470  1
  H+  H86  1  0.97750472  0.49014670  0.48103970  1
  H+  H87  1  0.84383366  1.00820161  0.25872344  1
  H+  H88  1  0.14192812  0.79813460  0.25690758  1
  H+  H89  1  0.50075238  0.51684039  0.00691212  1
  H+  H90  1  0.86599291  0.07416429  0.95607091  1
  H+  H91  1  0.48805193  0.64002659  0.74358924  1
  H+  H92  1  0.87409979  0.19167516  0.96546002  1
  H+  H93  1  0.17894888  0.64970137  0.48761225  1
  H+  H94  1  0.49687355  0.84999011  0.75920884  1
  H+  H95  1  0.16369928  0.29412874  0.72685638  1
  H+  H96  1  0.16561918  0.86809246  0.74986651  1
  H+  H97  1  0.82921235  0.64621364  0.50147735  1
  H+  H98  1  0.44389607  0.10389319  0.48830519  1
  H+  H99  1  0.77992798  0.23025858  0.11133912  1
  H+  H100  1  0.53427442  0.49821687  0.48854807  1
  H+  H101  1  0.85915242  0.49023582  0.48381977  1
  H+  H102  1  0.92036326  0.82422976  0.41489529  1
  H+  H103  1  0.62985440  0.81598124  0.76818141  1
  H+  H104  1  0.66047685  0.80305133  0.00338481  1
  H+  H105  1  0.50915306  0.16799721  0.75980114  1
  H+  H106  1  0.49064168  0.96019859  0.03202074  1
  H+  H107  1  0.24393774  0.42433157  0.84880325  1
  H+  H108  1  0.14485378  0.55887941  0.56520897  1
  H+  H109  1  0.75555345  0.85314442  0.15744809  1
  H+  H110  1  0.12492416  0.57427589  0.09334929  1
  H+  H111  1  0.52020226  0.16035875  0.27805049  1
  H+  H112  1  0.19710224  0.07278160  0.99385438  1
  H+  H113  1  0.86196067  0.45046688  0.84656911  1
  H+  H114  1  0.79611808  0.57589306  0.63262302  1
  H+  H115  1  0.91028369  0.12953314  0.81985315  1
  H+  H116  1  0.47240183  0.32715371  0.52747193  1
  H+  H117  1  0.11298546  0.91474576  0.09901470  1
  H+  H118  1  0.24735074  0.80886259  0.92456689  1
  H+  H119  1  0.35643517  0.18389410  0.24631344  1
  H+  H120  1  0.83589429  0.71054844  0.32758019  1
  H+  H121  1  0.49737147  0.63474428  0.00111448  1
  H+  H122  1  0.22187728  0.12425033  0.84504404  1
  H+  H123  1  0.13389406  0.89620918  0.60200663  1
  H+  H124  1  0.90891826  0.45404115  0.34158420  1
  H+  H125  1  0.23447558  0.44285691  0.32419565  1
  H+  H126  1  0.13567320  0.71187701  0.33181640  1
  H+  H127  1  0.55803300  0.13580545  0.86169998  1
  H+  H128  1  0.15578569  0.97928339  0.74174061  1
  H+  H129  1  0.43941324  0.22846153  0.66116951  1
  H+  H130  1  0.26749829  0.81654428  0.40600409  1
  H+  H131  1  0.44759409  0.87228041  0.11796036  1
  H+  H132  1  0.52026199  0.48711990  0.76643709  1
  H+  H133  1  0.37623754  0.51516696  0.74009099  1
  H+  H134  1  0.63991461  0.15944179  0.76168370  1
  H+  H135  1  0.09591132  0.55957444  0.72541757  1
  H+  H136  1  0.80580315  0.62105458  0.22346081  1
  H+  H137  1  0.47057278  0.90149328  0.61278642  1
  H+  H138  1  0.56791070  0.44936098  0.40084804  1
  H+  H139  1  0.46100797  0.55147489  0.14297161  1
  H+  H140  1  0.88245253  0.76713007  0.84471683  1
  H+  H141  1  0.58657855  0.09360347  0.37687040  1
  H+  H142  1  0.45067349  0.55426415  0.60027524  1
  H+  H143  1  0.82633507  0.18864451  0.24434265  1
  O2-  O144  1  0.12001176  0.14896391  0.22853191  1
  O2-  O145  1  0.11710592  0.21549162  0.70016562  1
  O2-  O146  1  0.12272185  0.55196763  0.20190903  1
  O2-  O147  1  0.07557833  0.49279545  0.76303010  1
  O2-  O148  1  0.06498816  0.84531966  0.22489753  1
  O2-  O149  1  0.11982115  0.89762308  0.72008548  1
  O2-  O150  1  0.43682213  0.21669613  0.22765425  1
  O2-  O151  1  0.44459886  0.21282654  0.72848111  1
  O2-  O152  1  0.45691255  0.54399487  0.21142750  1
  O2-  O153  1  0.45573107  0.56212171  0.71617067  1
  O2-  O154  1  0.43438158  0.85533370  0.22314549  1
  O2-  O155  1  0.45777025  0.89412635  0.73385746  1
  O2-  O156  1  0.78968175  0.23251378  0.22359521  1
  O2-  O157  1  0.74629576  0.18748805  0.71447622  1
  O2-  O158  1  0.76984114  0.53601792  0.20196357  1
  O2-  O159  1  0.79586323  0.58046761  0.70216006  1
  O2-  O160  1  0.76651898  0.86612248  0.22459612  1
  O2-  O161  1  0.77487223  0.88392715  0.71622547  1
  O2-  O162  1  0.17815918  0.09679827  0.25372875  1
  O2-  O163  1  0.22565735  0.11426730  0.77734370  1
  O2-  O164  1  0.23233106  0.45245365  0.25766230  1
  O2-  O165  1  0.23950274  0.42220900  0.77855869  1
  O2-  O166  1  0.18703793  0.76132832  0.28440361  1
  O2-  O167  1  0.25296050  0.81594427  0.80711196  1
  O2-  O168  1  0.57284058  0.13166434  0.29526082  1
  O2-  O169  1  0.55813124  0.13093079  0.79089206  1
  O2-  O170  1  0.55910875  0.43468917  0.28287262  1
  O2-  O171  1  0.55442778  0.44339801  0.79310734  1
  O2-  O172  1  0.55116367  0.75702933  0.28604983  1
  O2-  O173  1  0.55031820  0.77850762  0.79109933  1
  O2-  O174  1  0.88965285  0.08959307  0.28005121  1
  O2-  O175  1  0.89710275  0.11334946  0.75402100  1
  O2-  O176  1  0.90721536  0.44898562  0.27391694  1
  O2-  O177  1  0.83772288  0.43691885  0.78136562  1
  O2-  O178  1  0.85478479  0.73863768  0.26555417  1
  O2-  O179  1  0.89101619  0.77421692  0.77365774  1
  O2-  O180  1  0.22344426  0.10883014  0.44958232  1
  O2-  O181  1  0.23083978  0.14521305  0.95694768  1
  O2-  O182  1  0.24399662  0.43994717  0.45033753  1
  O2-  O183  1  0.24817799  0.44211633  0.95370670  1
  O2-  O184  1  0.25593465  0.79823874  0.47146380  1
  O2-  O185  1  0.24229853  0.79511796  0.99174944  1
  O2-  O186  1  0.61492781  0.06629284  0.43736231  1
  O2-  O187  1  0.54855645  0.13022009  0.96641137  1
  O2-  O188  1  0.57578328  0.45771967  0.46878452  1
  O2-  O189  1  0.56992561  0.44464398  0.97031099  1
  O2-  O190  1  0.56217581  0.77079288  0.47332242  1
  O2-  O191  1  0.55756386  0.75899488  0.96031974  1
  O2-  O192  1  0.89506009  0.10940493  0.46651056  1
  O2-  O193  1  0.91626913  0.15464910  0.94239486  1
  O2-  O194  1  0.89631766  0.44659478  0.46209975  1
  O2-  O195  1  0.91021670  0.46582289  0.95859931  1
  O2-  O196  1  0.90795527  0.80111115  0.47892141  1
  O2-  O197  1  0.86845218  0.75606142  0.94618434  1
  O2-  O198  1  0.12067671  0.23550574  0.04986180  1
  O2-  O199  1  0.12165279  0.22350769  0.51586537  1
  O2-  O200  1  0.12525205  0.59381143  0.02645743  1
  O2-  O201  1  0.13270768  0.56593257  0.50075058  1
  O2-  O202  1  0.17678167  0.98867097  0.08014052  1
  O2-  O203  1  0.13303661  0.89018096  0.53394516  1
  O2-  O204  1  0.43969661  0.22770517  0.03700598  1
  O2-  O205  1  0.41172167  0.26500192  0.56423586  1
  O2-  O206  1  0.45752208  0.55414487  0.02897357  1
  O2-  O207  1  0.45499437  0.55543485  0.53189620  1
  O2-  O208  1  0.44857366  0.87902959  0.04808380  1
  O2-  O209  1  0.47179336  0.89905160  0.54476543  1
  O2-  O210  1  0.76538978  0.20552793  0.04492695  1
  O2-  O211  1  0.78881227  0.22123908  0.52474623  1
  O2-  O212  1  0.78501192  0.54064288  0.02153329  1
  O2-  O213  1  0.79180581  0.56651643  0.52449336  1
  O2-  O214  1  0.74408321  0.83495930  0.03886324  1
  O2-  O215  1  0.78117956  0.88919588  0.53334329  1
