# generated using pymatgen
data_H2O
_symmetry_space_group_name_H-M   'P 1'
_cell_length_a   13.52767404
_cell_length_b   13.52914136
_cell_length_c   14.68965508
_cell_angle_alpha   90.01312247
_cell_angle_beta   90.01903492
_cell_angle_gamma   120.04110072
_symmetry_Int_Tables_number   1
_chemical_formula_structural   H2O
_chemical_formula_sum   'H144 O72'
_cell_volume   2327.31682742
_cell_formula_units_Z   72
loop_
 _symmetry_equiv_pos_site_id
 _symmetry_equiv_pos_as_xyz
  1  'x, y, z'
loop_
 _atom_type_symbol
 _atom_type_oxidation_number
  H+  1.0
  O2-  -2.0
loop_
 _atom_site_type_symbol
 _atom_site_label
 _atom_site_symmetry_multiplicity
 _atom_site_fract_x
 _atom_site_fract_y
 _atom_site_fract_z
 _atom_site_occupancy
  H+  H0  1  0.50176230  0.51139904  0.74833806  1
  H+  H1  1  0.28918038  0.18012821  0.47200588  1
  H+  H2  1  0.37172262  0.17631053  0.22046964  1
  H+  H3  1  0.19379319  0.36190747  1.00680741  1
  H+  H4  1  0.72760737  0.32443416  0.74502080  1
  H+  H5  1  0.81507335  0.18551233  0.79106648  1
  H+  H6  1  0.50885033  0.46685249  0.99088184  1
  H+  H7  1  0.34801185  0.18272576  0.76017753  1
  H+  H8  1  0.97639992  0.81160127  0.99216690  1
  H+  H9  1  0.68676887  0.18624804  0.00590399  1
  H+  H10  1  0.50927376  0.71837916  0.49096885  1
  H+  H11  1  0.78985313  0.64511020  0.25818759  1
  H+  H12  1  0.49193521  0.50854167  0.25294443  1
  H+  H13  1  0.52028575  0.08209649  0.86254535  1
  H+  H14  1  0.19148738  0.03415519  0.97303339  1
  H+  H15  1  0.10784600  0.22435066  0.10423507  1
  H+  H16  1  0.12556464  0.17496682  0.50029072  1
  H+  H17  1  0.02368005  0.53996958  0.03352404  1
  H+  H18  1  0.47772433  0.84621648  0.73415371  1
  H+  H19  1  0.28358243  0.34260405  0.67086552  1
  H+  H20  1  0.30294667  0.82020238  0.99916592  1
  H+  H21  1  0.47071501  0.97072973  0.50352134  1
  H+  H22  1  0.49416623  0.13522989  0.98197575  1
  H+  H23  1  0.54569761  0.69318040  0.24987350  1
  H+  H24  1  0.53562931  0.09513767  0.31111572  1
  H+  H25  1  0.48182699  0.84286365  1.00152337  1
  H+  H26  1  0.01312935  0.82675865  0.74137166  1
  H+  H27  1  0.57590548  0.40846429  0.71003026  1
  H+  H28  1  0.52292163  0.51215485  0.50602826  1
  H+  H29  1  0.48484218  0.85971880  0.49879458  1
  H+  H30  1  1.02226237  0.22655900  0.75363985  1
  H+  H31  1  0.31043394  0.48443664  0.78817214  1
  H+  H32  1  0.66948782  0.80699978  0.74102652  1
  H+  H33  1  0.79466813  0.26412637  0.23310208  1
  H+  H34  1  0.17548964  0.36829017  0.48412014  1
  H+  H35  1  0.84747056  0.11569158  0.24758110  1
  H+  H36  1  0.25384071  0.13462172  0.85716377  1
  H+  H37  1  0.47985076  0.46074954  0.53212228  1
  H+  H38  1  0.23543489  0.19637050  0.75177918  1
  H+  H39  1  0.17509896  0.83351881  0.77600288  1
  H+  H40  1  0.03943696  0.45677013  0.78742048  1
  H+  H41  1  0.79306756  0.90912388  0.76269133  1
  H+  H42  1  0.58659386  0.14547500  0.76178153  1
  H+  H43  1  0.13650418  0.17489063  0.01481122  1
  H+  H44  1  0.16139002  0.19890675  0.23115280  1
  H+  H45  1  0.16147794  0.25022121  0.63486751  1
  H+  H46  1  0.48919313  0.85700330  0.22568448  1
  H+  H47  1  0.14652212  -0.03149889  0.50852453  1
  H+  H48  1  0.84944618  0.80758139  0.49535472  1
  H+  H49  1  0.63053176  0.81494653  0.99161376  1
  H+  H50  1  0.84226008  0.19706816  0.74429487  1
  H+  H51  1  0.02538187  0.52204684  0.48975028  1
  H+  H52  1  0.16673294  0.32107213  0.23863233  1
  H+  H53  1  0.23461696  0.56592279  0.71229639  1
  H+  H54  1  0.62456767  0.46982240  -0.00129649  1
  H+  H55  1  1.01795298  0.19051896  0.50240581  1
  H+  H56  1  0.35745730  0.54383254  0.52326695  1
  H+  H57  1  0.37782481  0.51264765  0.01965140  1
  H+  H58  1  0.38304145  0.52580736  0.24589671  1
  H+  H59  1  0.96678517  0.47874287  0.23626984  1
  H+  H60  1  0.49396946  0.14864626  0.50779123  1
  H+  H61  1  0.18613745  0.38583595  0.77720495  1
  H+  H62  1  0.83169518  0.14355837  0.00600142  1
  H+  H63  1  0.28840598  0.82401784  0.77055092  1
  H+  H64  1  0.79442992  0.95369682  0.03734633  1
  H+  H65  1  0.97804089  0.15157765  0.25124286  1
  H+  H66  1  -0.00214706  0.19665061  0.70902432  1
  H+  H67  1  0.80746303  0.53056806  0.24336545  1
  H+  H68  1  0.14684415  0.64817178  0.02154467  1
  H+  H69  1  0.51639769  0.35256682  0.25731101  1
  H+  H70  1  0.31096621  0.15247615  0.98254930  1
  H+  H71  1  0.79405180  0.29775587  0.48527142  1
  H+  H72  1  0.84828260  0.71030583  0.99541209  1
  H+  H73  1  0.14605421  0.63256720  0.24588249  1
  H+  H74  1  0.54066991  0.77213601  0.85097416  1
  H+  H75  1  0.78311599  0.56905198  0.60569116  1
  H+  H76  1  0.17298567  0.48524898  0.47706899  1
  H+  H77  1  0.02828248  0.85042299  0.50573331  1
  H+  H78  1  0.29450345  0.81960730  0.48851210  1
  H+  H79  1  0.48823198  1.00001839  0.75560833  1
  H+  H80  1  0.18079036  0.03634478  0.21401072  1
  H+  H81  1  0.89439862  0.80561593  0.26030086  1
  H+  H82  1  0.99030174  0.46203087  0.76939866  1
  H+  H83  1  0.29399186  0.81626832  0.25340208  1
  H+  H84  1  0.80888918  0.54057535  0.03187098  1
  H+  H85  1  0.44643967  0.89370281  0.64259727  1
  H+  H86  1  0.51631765  0.69427598  0.98793402  1
  H+  H87  1  0.85330585  0.16261485  0.45751485  1
  H+  H88  1  0.73378354  0.46406239  0.79331679  1
  H+  H89  1  0.14724886  0.84671596  0.17237013  1
  H+  H90  1  0.49980179  0.01608918  0.98567446  1
  H+  H91  1  0.16933696  0.85143327  1.02434663  1
  H+  H92  1  0.19833421  0.49773853  0.25656000  1
  H+  H93  1  0.75329492  0.62559362  0.73238258  1
  H+  H94  1  0.85323072  0.65455630  0.52048618  1
  H+  H95  1  0.21879646  0.79171946  0.91269311  1
  H+  H96  1  0.60323067  0.14826389  0.47139071  1
  H+  H97  1  0.66613682  0.46228486  0.48573218  1
  H+  H98  1  0.88518565  0.08061138  0.79177163  1
  H+  H99  1  0.48045079  0.29365496  0.00072296  1
  H+  H100  1  0.51014784  0.30741722  0.54118790  1
  H+  H101  1  0.82787718  0.78239839  0.76110965  1
  H+  H102  1  0.83942261  0.36142579  0.99052495  1
  H+  H103  1  0.84970599  0.49127111  0.50409104  1
  H+  H104  1  0.74790241  0.79032725  0.26873628  1
  H+  H105  1  0.52258724  0.22650349  0.68144558  1
  H+  H106  1  0.70563632  0.83885345  0.50892470  1
  H+  H107  1  0.48920486  0.68430718  0.76888443  1
  H+  H108  1  0.87708701  0.74323449  0.84388018  1
  H+  H109  1  0.14232686  0.64147954  0.48823600  1
  H+  H110  1  0.09987992  0.88665650  0.66124586  1
  H+  H111  1  0.81522596  0.43945787  0.85605534  1
  H+  H112  1  0.73242755  0.85986538  0.11428830  1
  H+  H113  1  0.18754298  0.59171403  0.62189064  1
  H+  H114  1  0.58201183  0.40260694  0.40142949  1
  H+  H115  1  0.94515593  0.44198319  0.92849747  1
  H+  H116  1  0.75730817  0.57071728  0.11703828  1
  H+  H117  1  0.87419369  0.76487524  0.40104157  1
  H+  H118  1  0.30984154  0.08882776  0.43054497  1
  H+  H119  1  0.75896137  0.21435092  0.09916929  1
  H+  H120  1  0.35865804  0.62232344  0.60009149  1
  H+  H121  1  0.86073228  0.03658548  0.89169387  1
  H+  H122  1  0.48803586  0.16524543  0.21822853  1
  H+  H123  1  0.44491136  0.88485491  0.09251751  1
  H+  H124  1  0.11716340  0.56061313  0.15422085  1
  H+  H125  1  0.90676177  0.11618797  0.38447273  1
  H+  H126  1  0.48302955  0.97503576  0.22088196  1
  H+  H127  1  0.21346415  0.78718975  0.33992305  1
  H+  H128  1  0.56536883  0.78222556  0.39615326  1
  H+  H129  1  0.23321993  0.45232018  0.92705895  1
  H+  H130  1  0.23560705  0.45684297  0.34563097  1
  H+  H131  1  0.17715410  0.82254043  0.49263194  1
  H+  H132  1  0.75951659  0.19552049  0.55423416  1
  H+  H133  1  0.46844524  0.56026637  0.10081294  1
  H+  H134  1  0.62923032  0.47609326  0.26645980  1
  H+  H135  1  0.80263589  0.42975250  0.41265178  1
  H+  H136  1  0.20775229  0.09182702  0.31371202  1
  H+  H137  1  0.66895952  0.15018080  0.22381325  1
  H+  H138  1  0.90363999  0.44015679  0.32698871  1
  H+  H139  1  0.43990057  0.21031026  0.08892699  1
  H+  H140  1  0.76826004  0.85413653  0.60352683  1
  H+  H141  1  0.94997070  0.14238520  1.01237449  1
  H+  H142  1  0.73671713  0.22531391  0.69408365  1
  H+  H143  1  0.44487535  0.55069003  0.66924657  1
  O2-  O144  1  0.12123490  0.24108710  0.21446778  1
  O2-  O145  1  0.21166110  0.27690031  0.69053343  1
  O2-  O146  1  0.11372763  0.55262656  0.22313490  1
  O2-  O147  1  0.25506691  0.62068745  0.66154292  1
  O2-  O148  1  0.15263117  0.91648234  0.14550050  1
  O2-  O149  1  0.09445663  0.88200497  0.72828658  1
  O2-  O150  1  0.45174708  0.21611195  0.19936315  1
  O2-  O151  1  0.47186678  0.25882123  0.67285526  1
  O2-  O152  1  0.46442886  0.55851066  0.22621984  1
  O2-  O153  1  0.43890298  0.52664458  0.73401665  1
  O2-  O154  1  0.44039057  0.88652829  0.20358245  1
  O2-  O155  1  0.44640675  0.89501719  0.71135885  1
  O2-  O156  1  0.75526207  0.18776159  0.20534957  1
  O2-  O157  1  0.68100894  0.24866983  0.70848914  1
  O2-  O158  1  0.75711894  0.56120950  0.22805128  1
  O2-  O159  1  0.68983741  0.56800454  0.68970838  1
  O2-  O160  1  0.70180881  0.83064041  0.23791184  1
  O2-  O161  1  0.75081865  0.83988365  0.72283746  1
  O2-  O162  1  0.21620027  0.10930533  0.24824445  1
  O2-  O163  1  0.26929565  0.15209645  0.78387679  1
  O2-  O164  1  0.24148962  0.45937454  0.27761547  1
  O2-  O165  1  0.23025538  0.46310161  0.80255197  1
  O2-  O166  1  0.21257814  0.78015464  0.27239830  1
  O2-  O167  1  0.21953153  0.80165127  0.80683704  1
  O2-  O168  1  0.54151684  0.09677958  0.24480405  1
  O2-  O169  1  0.51329507  0.08022027  0.78923930  1
  O2-  O170  1  0.54973647  0.42566007  0.29227982  1
  O2-  O171  1  0.61415287  0.47611966  0.75095925  1
  O2-  O172  1  0.58396822  0.77594531  0.27133562  1
  O2-  O173  1  0.53168410  0.76678512  0.78233379  1
  O2-  O174  1  0.90162195  0.09608363  0.27553057  1
  O2-  O175  1  0.87210624  0.01563689  0.82883188  1
  O2-  O176  1  0.88720364  0.43857841  0.26200636  1
  O2-  O177  1  0.78968863  0.43749956  0.79240284  1
  O2-  O178  1  0.82520449  0.75468304  0.29396298  1
  O2-  O179  1  0.86186513  0.73340102  0.77661195  1
  O2-  O180  1  0.24907496  0.10680948  0.44020087  1
  O2-  O181  1  0.23216861  0.11424715  0.95072936  1
  O2-  O182  1  0.21908018  0.44823821  0.46167677  1
  O2-  O183  1  0.24599448  0.44324751  0.99190220  1
  O2-  O184  1  0.21503534  0.78269792  0.46398355  1
  O2-  O185  1  0.22019308  0.78722164  0.98244183  1
  O2-  O186  1  0.51841561  0.10672089  0.46733292  1
  O2-  O187  1  0.53460832  0.09496550  0.95685877  1
  O2-  O188  1  0.60795834  0.38797822  0.46164045  1
  O2-  O189  1  0.54707053  0.42316643  0.97203397  1
  O2-  O190  1  0.55959962  0.79389846  0.46213084  1
  O2-  O191  1  0.55086333  0.77396518  0.96329827  1
  O2-  O192  1  0.90793552  0.13529217  0.45140553  1
  O2-  O193  1  0.86763434  0.09585161  0.99567634  1
  O2-  O194  1  0.85727372  0.43593424  0.45927818  1
  O2-  O195  1  0.88164406  0.43992528  0.96168447  1
  O2-  O196  1  0.89504149  0.77303805  0.46799517  1
  O2-  O197  1  0.90572661  0.77176905  0.95639375  1
  O2-  O198  1  0.09744731  0.21538639  0.03592708  1
  O2-  O199  1  0.10093953  0.22392007  0.52894441  1
  O2-  O200  1  0.10445997  0.56946175  0.04726966  1
  O2-  O201  1  0.10579499  0.55943112  0.50814746  1
  O2-  O202  1  0.12679262  0.89503716  0.04708061  1
  O2-  O203  1  0.10769206  0.89054207  0.53300857  1
  O2-  O204  1  0.43531585  0.20900958  0.01957202  1
  O2-  O205  1  0.44606638  0.23799736  0.57349485  1
  O2-  O206  1  0.46270020  0.55826856  0.03345739  1
  O2-  O207  1  0.41197268  0.60374474  0.56526561  1
  O2-  O208  1  0.44287696  0.88543440  0.02331249  1
  O2-  O209  1  0.43890773  0.89105898  0.52732426  1
  O2-  O210  1  0.76542162  0.22788963  0.03010959  1
  O2-  O211  1  0.75124046  0.21202238  0.49116703  1
  O2-  O212  1  0.75935077  0.57102195  0.04797349  1
  O2-  O213  1  0.82655570  0.57676983  0.54950131  1
  O2-  O214  1  0.74721509  0.87057233  0.04824722  1
  O2-  O215  1  0.78057315  0.86212001  0.53671202  1
