# generated using pymatgen
data_H2O
_symmetry_space_group_name_H-M   'P 1'
_cell_length_a   13.50167611
_cell_length_b   13.50032986
_cell_length_c   14.70398333
_cell_angle_alpha   89.93113950
_cell_angle_beta   90.05112026
_cell_angle_gamma   119.99951392
_symmetry_Int_Tables_number   1
_chemical_formula_structural   H2O
_chemical_formula_sum   'H144 O72'
_cell_volume   2321.13012252
_cell_formula_units_Z   72
loop_
 _symmetry_equiv_pos_site_id
 _symmetry_equiv_pos_as_xyz
  1  'x, y, z'
loop_
 _atom_type_symbol
 _atom_type_oxidation_number
  H+  1.0
  O2-  -2.0
loop_
 _atom_site_type_symbol
 _atom_site_label
 _atom_site_symmetry_multiplicity
 _atom_site_fract_x
 _atom_site_fract_y
 _atom_site_fract_z
 _atom_site_occupancy
  H+  H0  1  0.59645511  0.14385292  0.98405078  1
  H+  H1  1  0.00017611  0.17392503  0.74702014  1
  H+  H2  1  0.30041646  0.81688034  0.98813436  1
  H+  H3  1  0.87363685  0.69408692  0.27166385  1
  H+  H4  1  0.50292969  0.48540995  0.23287370  1
  H+  H5  1  0.31129577  0.48741955  0.25266200  1
  H+  H6  1  0.69428842  0.84774710  0.22336709  1
  H+  H7  1  0.52257292  0.81819908  0.49539422  1
  H+  H8  1  0.59730154  0.78031143  0.73548168  1
  H+  H9  1  0.48698371  0.15520331  0.73195794  1
  H+  H10  1  0.52237412  0.70083515  0.49921532  1
  H+  H11  1  0.35712826  0.85564154  0.50540962  1
  H+  H12  1  0.68498045  0.17203104  0.72949107  1
  H+  H13  1  0.18888819  0.83048569  0.75140721  1
  H+  H14  1  0.82314570  0.46048910  0.27830534  1
  H+  H15  1  0.46489676  0.30300523  0.73838051  1
  H+  H16  1  0.85216810  0.69753103  0.98038847  1
  H+  H17  1  0.15169486  0.30676279  0.51483584  1
  H+  H18  1  0.35648472  0.85455251  0.72678500  1
  H+  H19  1  0.82015391  0.50677667  0.75088926  1
  H+  H20  1  0.49944558  0.18425319  0.22930801  1
  H+  H21  1  0.37291844  0.83512547  0.24234615  1
  H+  H22  1  0.98046498  0.14073668  0.24091739  1
  H+  H23  1  0.13963439  0.96318251  0.00908482  1
  H+  H24  1  0.76750409  0.18497582  1.01191281  1
  H+  H25  1  0.63038418  0.48032640  0.76162843  1
  H+  H26  1  0.26702570  0.74984228  0.35368573  1
  H+  H27  1  0.86599743  0.14255928  0.24647464  1
  H+  H28  1  0.15484161  -0.02404870  0.50165449  1
  H+  H29  1  0.15210821  -0.03148577  0.23177355  1
  H+  H30  1  0.15769301  0.63427068  0.01006162  1
  H+  H31  1  0.19122835  0.35363854  0.24864189  1
  H+  H32  1  0.02603877  0.83622243  0.24723196  1
  H+  H33  1  0.98540536  0.81734953  0.75276897  1
  H+  H34  1  0.19142351  0.82543322  0.48665135  1
  H+  H35  1  0.49723053  0.36584147  0.98874545  1
  H+  H36  1  -0.02402189  0.81319452  -0.01505214  1
  H+  H37  1  0.26864676  0.46155353  0.77247715  1
  H+  H38  1  0.19865093  0.71577585  0.75134819  1
  H+  H39  1  0.16982407  0.19136428  0.21896927  1
  H+  H40  1  0.15109546  0.84867981  0.00908776  1
  H+  H41  1  0.52568575  0.84317398  0.75031318  1
  H+  H42  1  0.05710188  0.52674124  0.51049936  1
  H+  H43  1  0.21435795  0.18370470  0.43985726  1
  H+  H44  1  0.70930982  0.17263881  0.22733120  1
  H+  H45  1  0.83844474  0.53230656  0.52666905  1
  H+  H46  1  0.49514046  -0.05030122  1.00668105  1
  H+  H47  1  0.15865579  0.52231479  0.74063173  1
  H+  H48  1  0.69545819  0.51451102  0.24836976  1
  H+  H49  1  1.04874472  0.51289181  1.00938326  1
  H+  H50  1  0.77089640  0.23107054  0.59881135  1
  H+  H51  1  0.85298972  0.48535682  0.99393980  1
  H+  H52  1  0.49623744  0.48335097  -0.01393116  1
  H+  H53  1  0.83933669  0.05021256  0.49158615  1
  H+  H54  1  0.82489206  0.33148942  0.76211732  1
  H+  H55  1  0.14340052  -0.02468340  0.73712363  1
  H+  H56  1  0.95072103  0.42397745  0.78707480  1
  H+  H57  1  0.19882632  0.70837658  0.49109770  1
  H+  H58  1  0.47683691  0.82618540  0.00823917  1
  H+  H59  1  0.34048349  0.18631110  0.73714731  1
  H+  H60  1  0.85235056  0.32696294  1.01645048  1
  H+  H61  1  0.81696391  0.85030464  0.99774219  1
  H+  H62  1  0.15113178  0.57085168  0.58856382  1
  H+  H63  1  1.05000471  0.51813373  0.24288071  1
  H+  H64  1  0.82018711  0.29620787  0.24339977  1
  H+  H65  1  0.31340909  0.16411223  0.47656877  1
  H+  H66  1  0.11215221  0.89821684  0.64575922  1
  H+  H67  1  0.81019851  0.19455131  0.50788856  1
  H+  H68  1  0.44852832  0.60537095  0.75629117  1
  H+  H69  1  0.31057404  0.48042598  0.48434668  1
  H+  H70  1  0.52517121  0.36752590  0.50838357  1
  H+  H71  1  0.15840442  0.14909388  0.76042631  1
  H+  H72  1  0.12393969  0.17945093  0.54194693  1
  H+  H73  1  0.46559955  0.62975939  0.00090155  1
  H+  H74  1  0.71583634  0.52543177  0.53197230  1
  H+  H75  1  0.81769651  0.95983754  0.21977338  1
  H+  H76  1  0.48947516  0.51997460  0.52157321  1
  H+  H77  1  0.30808552  0.13895539  0.24019404  1
  H+  H78  1  0.27229626  0.14363682  0.98889708  1
  H+  H79  1  0.77776449  0.54626437  0.16465701  1
  H+  H80  1  0.48654161  0.98226880  0.51084860  1
  H+  H81  1  0.67233431  0.52192310  0.01478709  1
  H+  H82  1  0.80634479  0.16442106  0.73651941  1
  H+  H83  1  0.86340220  0.37969969  0.50881083  1
  H+  H84  1  0.22277728  0.78464104  0.89968193  1
  H+  H85  1  0.03663896  0.85825890  0.50652813  1
  H+  H86  1  0.70990532  0.86330115  0.52680264  1
  H+  H87  1  0.50894412  0.81242879  0.26320571  1
  H+  H88  1  0.72528066  0.63089601  0.07496329  1
  H+  H89  1  0.86213708  1.03056348  -0.02654344  1
  H+  H90  1  0.02365679  0.18688105  -0.01199793  1
  H+  H91  1  0.14446548  0.35306915  0.76551656  1
  H+  H92  1  0.74762183  0.94960090  0.76434628  1
  H+  H93  1  0.06227440  0.55392271  0.71123542  1
  H+  H94  1  0.63696671  0.16140600  0.49959190  1
  H+  H95  1  0.52497992  0.01473185  0.25623244  1
  H+  H96  1  0.47165120  0.97855351  0.71841666  1
  H+  H97  1  0.21550208  0.67383045  0.26518426  1
  H+  H98  1  0.85840235  0.71375340  0.50255578  1
  H+  H99  1  0.46780890  0.49985591  0.74626544  1
  H+  H100  1  0.19567816  0.48579380  0.47779922  1
  H+  H101  1  0.44047354  0.17773810  -0.00815033  1
  H+  H102  1  0.54857512  0.44212432  0.84885475  1
  H+  H103  1  0.63497546  0.80852553  0.98780527  1
  H+  H104  1  0.15582913  0.14260877  0.98276744  1
  H+  H105  1  0.47744594  0.63888534  0.23814627  1
  H+  H106  1  0.95223940  0.16895751  0.49467754  1
  H+  H107  1  0.48179016  0.18672887  0.51406663  1
  H+  H108  1  0.91369326  0.78236387  0.35622097  1
  H+  H109  1  0.62946847  0.05191477  0.32053352  1
  H+  H110  1  0.59123120  0.46112863  0.43178856  1
  H+  H111  1  0.43710857  0.88892834  0.14520347  1
  H+  H112  1  0.43367916  0.55025753  0.60420147  1
  H+  H113  1  0.48926291  0.29736538  0.22487309  1
  H+  H114  1  0.55549298  0.11412675  0.41162353  1
  H+  H115  1  0.43218731  0.56337265  0.14442344  1
  H+  H116  1  0.55745069  0.77844878  0.89927135  1
  H+  H117  1  0.10330536  0.57455293  0.14771511  1
  H+  H118  1  0.85939279  0.83303117  0.49841290  1
  H+  H119  1  0.63827862  0.08985194  0.91022624  1
  H+  H120  1  0.08819831  0.22846776  0.66459645  1
  H+  H121  1  0.55386111  0.77412736  0.34917659  1
  H+  H122  1  0.89248362  0.10507843  0.88098390  1
  H+  H123  1  0.51071841  0.10256602  0.81758157  1
  H+  H124  1  0.76894767  0.35848725  0.34720562  1
  H+  H125  1  0.90615368  0.77338732  0.85271385  1
  H+  H126  1  0.86260628  0.68423150  0.76040725  1
  H+  H127  1  0.90768398  0.46038899  0.42331939  1
  H+  H128  1  0.34551653  0.50943261  0.00899857  1
  H+  H129  1  0.42912974  0.22375698  0.59776083  1
  H+  H130  1  0.10274362  0.88078723  0.14273102  1
  H+  H131  1  0.87403010  0.43229276  0.90245924  1
  H+  H132  1  0.77277609  0.88721276  0.08659180  1
  H+  H133  1  0.20194884  0.10694850  0.84540526  1
  H+  H134  1  0.42979606  0.21415775  0.09210034  1
  H+  H135  1  0.23071687  0.10512097  0.32866725  1
  H+  H136  1  0.15479391  0.34626649  0.92260093  1
  H+  H137  1  0.49543208  0.41658295  0.31858544  1
  H+  H138  1  0.79793981  0.93244900  0.60760666  1
  H+  H139  1  0.12609267  0.23814963  0.13523399  1
  H+  H140  1  0.79051384  0.55743226  0.66261618  1
  H+  H141  1  0.81453684  0.24118877  0.11571961  1
  H+  H142  1  0.43762072  0.89630170  0.60737070  1
  H+  H143  1  0.23083678  0.43464831  0.34876410  1
  O2-  O144  1  0.13573148  0.23961819  0.20318845  1
  O2-  O145  1  0.08575876  0.21910257  0.73163987  1
  O2-  O146  1  0.09104088  0.59148155  0.21211092  1
  O2-  O147  1  0.14398422  0.58089588  0.70703224  1
  O2-  O148  1  0.10846023  0.88518369  0.21219963  1
  O2-  O149  1  0.10954295  0.89416132  0.71401341  1
  O2-  O150  1  0.45250131  0.21524268  0.20592983  1
  O2-  O151  1  0.42056458  0.22449276  0.71142556  1
  O2-  O152  1  0.43553908  0.55804808  0.21250679  1
  O2-  O153  1  0.41945943  0.53257697  0.72445038  1
  O2-  O154  1  0.44324588  0.90097261  0.21216897  1
  O2-  O155  1  0.43738887  0.89587790  0.69938382  1
  O2-  O156  1  0.79070469  0.22340751  0.20777355  1
  O2-  O157  1  0.76701627  0.21425051  0.71448530  1
  O2-  O158  1  0.77661126  0.54388695  0.23199754  1
  O2-  O159  1  0.78703844  0.55462413  0.73147399  1
  O2-  O160  1  0.76894645  0.88210854  0.19260131  1
  O2-  O161  1  0.81612512  0.99456474  0.72700753  1
  O2-  O162  1  0.22710770  0.10327046  0.26079300  1
  O2-  O163  1  0.20387478  0.11106509  0.77732203  1
  O2-  O164  1  0.23054491  0.43526593  0.27880803  1
  O2-  O165  1  0.18814887  0.43438498  0.78901729  1
  O2-  O166  1  0.28886391  0.72450708  0.29861584  1
  O2-  O167  1  0.23552139  0.79654988  0.77373698  1
  O2-  O168  1  0.58852169  0.08567849  0.29042170  1
  O2-  O169  1  0.52622641  0.11105170  0.75242932  1
  O2-  O170  1  0.53416503  0.43711163  0.25974015  1
  O2-  O171  1  0.54887632  0.44064227  0.78068185  1
  O2-  O172  1  0.54755183  0.76966183  0.28173305  1
  O2-  O173  1  0.57481960  0.81779587  0.78106591  1
  O2-  O174  1  0.89996764  0.09457980  0.25921572  1
  O2-  O175  1  0.86528367  0.11007530  0.76945930  1
  O2-  O176  1  0.83851367  0.40423882  0.31173584  1
  O2-  O177  1  0.87346487  0.41263071  0.79021808  1
  O2-  O178  1  0.92263587  0.77485984  0.28962258  1
  O2-  O179  1  0.90543069  0.76824382  0.78163605  1
  O2-  O180  1  0.23542057  0.12462486  0.44666288  1
  O2-  O181  1  0.19376099  0.09747233  0.96432012  1
  O2-  O182  1  0.23127609  0.43919220  0.45787252  1
  O2-  O183  1  0.17317794  0.34823246  0.98781166  1
  O2-  O184  1  0.24054600  0.79125984  0.47211540  1
  O2-  O185  1  0.21941518  0.78230220  0.96704539  1
  O2-  O186  1  0.55298214  0.11473555  0.47900292  1
  O2-  O187  1  0.62830254  0.09343794  0.97574604  1
  O2-  O188  1  0.57213178  0.45287758  0.49634918  1
  O2-  O189  1  0.54145992  0.44632857  0.96677364  1
  O2-  O190  1  0.56516119  0.78069503  0.47524334  1
  O2-  O191  1  0.55257359  0.76642328  0.96597563  1
  O2-  O192  1  0.87235065  0.13128465  0.47325718  1
  O2-  O193  1  0.90834554  0.10912084  0.94837525  1
  O2-  O194  1  0.91197708  0.46268809  0.49053610  1
  O2-  O195  1  0.88654834  0.44112633  0.97034223  1
  O2-  O196  1  0.89835824  0.79163315  0.47519348  1
  O2-  O197  1  0.89875153  0.77504767  0.95375363  1
  O2-  O198  1  0.10627563  0.22727239  0.01875358  1
  O2-  O199  1  0.09639912  0.23361153  0.54583374  1
  O2-  O200  1  0.12386317  0.55751756  0.03821475  1
  O2-  O201  1  0.14194151  0.56757569  0.52106095  1
  O2-  O202  1  0.10444242  0.88266294  0.03311231  1
  O2-  O203  1  0.11912433  0.89787378  0.52719612  1
  O2-  O204  1  0.41568532  0.22307933  0.02639328  1
  O2-  O205  1  0.44051579  0.22871263  0.52973555  1
  O2-  O206  1  0.42586363  0.55082312  0.02873382  1
  O2-  O207  1  0.44264374  0.55579760  0.53665979  1
  O2-  O208  1  0.43995215  0.87184412  0.02701017  1
  O2-  O209  1  0.44209770  0.89883423  0.53246968  1
  O2-  O210  1  0.83361815  0.24925014  0.04424643  1
  O2-  O211  1  0.77000980  0.23779734  0.53082907  1
  O2-  O212  1  0.74570365  0.57773233  0.04692875  1
  O2-  O213  1  0.79735094  0.57123677  0.55106015  1
  O2-  O214  1  0.77269732  0.88680849  0.01643715  1
  O2-  O215  1  0.79213653  0.90838898  0.54320867  1
