# generated using pymatgen
data_H2O
_symmetry_space_group_name_H-M   'P 1'
_cell_length_a   13.49271280
_cell_length_b   13.50836075
_cell_length_c   14.66706016
_cell_angle_alpha   90.02435165
_cell_angle_beta   89.98650046
_cell_angle_gamma   119.93690764
_symmetry_Int_Tables_number   1
_chemical_formula_structural   H2O
_chemical_formula_sum   'H144 O72'
_cell_volume   2316.60158169
_cell_formula_units_Z   72
loop_
 _symmetry_equiv_pos_site_id
 _symmetry_equiv_pos_as_xyz
  1  'x, y, z'
loop_
 _atom_type_symbol
 _atom_type_oxidation_number
  H+  1.0
  O2-  -2.0
loop_
 _atom_site_type_symbol
 _atom_site_label
 _atom_site_symmetry_multiplicity
 _atom_site_fract_x
 _atom_site_fract_y
 _atom_site_fract_z
 _atom_site_occupancy
  H+  H0  1  0.81697483  0.62449777  1.01329359  1
  H+  H1  1  0.20406914  0.00994737  0.73863428  1
  H+  H2  1  0.84892349  0.50069200  0.49454988  1
  H+  H3  1  0.78325224  0.78412800  0.77215591  1
  H+  H4  1  0.51875954  0.17411117  0.99586953  1
  H+  H5  1  0.85604189  0.37685836  -0.00968734  1
  H+  H6  1  0.47716751  0.48372326  0.50440251  1
  H+  H7  1  0.18062303  0.34253000  0.00194027  1
  H+  H8  1  0.47766157  0.49370568  1.01268084  1
  H+  H9  1  0.34405722  0.47194526  0.49781018  1
  H+  H10  1  0.17016538  0.70040315  0.75667441  1
  H+  H11  1  0.97041846  0.49256253  0.26698336  1
  H+  H12  1  0.62951039  0.48431410  0.75677698  1
  H+  H13  1  0.83240201  0.22726134  0.74492600  1
  H+  H14  1  0.81147597  0.31013173  0.50987342  1
  H+  H15  1  0.82139745  0.97395800  0.51813680  1
  H+  H16  1  0.87243319  1.05429190  0.27435633  1
  H+  H17  1  0.14294536  0.84706128  0.01231492  1
  H+  H18  1  0.18553857  0.15881462  0.76761549  1
  H+  H19  1  0.67985596  0.83889459  0.25491425  1
  H+  H20  1  0.98324429  0.84199020  0.49787906  1
  H+  H21  1  0.07157876  0.14585084  0.49766585  1
  H+  H22  1  0.13230963  0.96600329  0.24042951  1
  H+  H23  1  0.80613911  0.51192247  0.24425174  1
  H+  H24  1  0.85577104  0.49480654  0.99106958  1
  H+  H25  1  0.47606607  0.30204100  0.01186278  1
  H+  H26  1  0.63111105  0.81837089  0.49189749  1
  H+  H27  1  0.85682079  0.15371960  0.50578810  1
  H+  H28  1  0.42461963  0.96709716  0.23969017  1
  H+  H29  1  0.47010964  0.91013023  -0.01482531  1
  H+  H30  1  0.48243556  0.61362717  1.02613111  1
  H+  H31  1  0.84715688  0.67694369  0.51807447  1
  H+  H32  1  0.48534334  0.19531284  0.74325681  1
  H+  H33  1  0.46993442  0.62412791  0.71352857  1
  H+  H34  1  0.07191966  0.23370390  0.28940980  1
  H+  H35  1  0.29438909  0.80529722  0.76303992  1
  H+  H36  1  0.16449579  0.19731050  0.01077173  1
  H+  H37  1  0.82737036  0.85692990  0.51008396  1
  H+  H38  1  0.03740178  0.51136667  0.00735938  1
  H+  H39  1  0.16170884  0.93078123  0.62859993  1
  H+  H40  1  0.64302240  0.79306853  0.03272038  1
  H+  H41  1  0.50990860  0.36682941  0.75845800  1
  H+  H42  1  0.82884854  0.21430264  1.01357372  1
  H+  H43  1  0.22312945  0.44303670  0.84041127  1
  H+  H44  1  0.95533651  0.81367674  0.26543979  1
  H+  H45  1  0.29839089  0.48562073  0.74986130  1
  H+  H46  1  0.14210053  0.51507086  0.74232865  1
  H+  H47  1  0.77941231  0.92885334  0.73170983  1
  H+  H48  1  0.13556508  0.50797330  0.51405359  1
  H+  H49  1  0.17130147  0.53097920  0.23582605  1
  H+  H50  1  0.17855801  0.21525822  0.28722145  1
  H+  H51  1  1.12708267  0.84491197  0.23691701  1
  H+  H52  1  0.19699932  0.88199440  0.73419705  1
  H+  H53  1  0.86987608  0.17031305  0.27289008  1
  H+  H54  1  0.20259073  0.32472096  0.48667137  1
  H+  H55  1  0.50996724  0.70865277  0.50002683  1
  H+  H56  1  0.85362905  0.37507378  0.26978357  1
  H+  H57  1  0.15418272  0.62894873  1.01084052  1
  H+  H58  1  0.63498302  0.47696510  0.99094744  1
  H+  H59  1  0.88483989  0.10449356  0.75781267  1
  H+  H60  1  0.60596056  0.42773505  0.47571745  1
  H+  H61  1  0.97936450  0.49666818  0.76572361  1
  H+  H62  1  0.15251123  0.68850144  0.25962811  1
  H+  H63  1  0.51908999  0.89469736  0.67587643  1
  H+  H64  1  0.32754970  0.17638604  0.51559811  1
  H+  H65  1  0.68412407  0.50526207  0.23941436  1
  H+  H66  1  0.70827157  0.21202219  0.01662637  1
  H+  H67  1  0.62615312  0.16226261  0.50313160  1
  H+  H68  1  0.98122963  0.86470254  0.73545446  1
  H+  H69  1  0.82431718  0.52983094  0.74524992  1
  H+  H70  1  0.13855061  0.21547850  0.64035253  1
  H+  H71  1  0.47269039  0.81273779  1.03677732  1
  H+  H72  1  1.00606293  0.20810801  0.74379904  1
  H+  H73  1  0.84572848  0.37328217  0.76668200  1
  H+  H74  1  0.84738557  0.79355819  1.00968871  1
  H+  H75  1  0.47031438  0.99594419  0.55374395  1
  H+  H76  1  0.72059355  0.57897461  0.52662271  1
  H+  H77  1  0.50861537  0.66989085  0.26806660  1
  H+  H78  1  1.01799742  0.50952261  0.51307647  1
  H+  H79  1  0.53807622  0.07169123  1.01622264  1
  H+  H80  1  0.71261419  0.19385135  0.25543049  1
  H+  H81  1  0.17146585  1.03157881  -0.00158069  1
  H+  H82  1  1.05054212  0.21159084  1.01008762  1
  H+  H83  1  0.16112626  0.70718238  0.49562692  1
  H+  H84  1  0.50362027  0.15724975  0.49596058  1
  H+  H85  1  -0.02698211  0.81523714  0.70667265  1
  H+  H86  1  0.15371538  0.86932669  0.51448216  1
  H+  H87  1  0.89748480  0.45927470  0.86647781  1
  H+  H88  1  0.48091157  0.45267066  0.25942480  1
  H+  H89  1  0.84042916  0.69438451  0.27470783  1
  H+  H90  1  0.82199164  0.92713466  0.04069234  1
  H+  H91  1  0.79003583  0.66188167  0.77795632  1
  H+  H92  1  0.29012399  0.80221753  0.99827509  1
  H+  H93  1  0.60996119  0.80157875  0.71843129  1
  H+  H94  1  0.29146157  0.13847101  0.27316108  1
  H+  H95  1  0.89735299  0.11767365  0.41713983  1
  H+  H96  1  0.57110914  0.03193193  0.29714654  1
  H+  H97  1  0.18773617  0.48450197  -0.00360111  1
  H+  H98  1  0.47782354  0.32523260  0.49351022  1
  H+  H99  1  0.36542059  0.19203592  0.75230263  1
  H+  H100  1  0.17303917  0.31195522  0.71971122  1
  H+  H101  1  0.47938440  0.50987237  0.73382574  1
  H+  H102  1  0.87259166  0.08748133  0.96139283  1
  H+  H103  1  0.70511986  0.21542173  0.75402964  1
  H+  H104  1  0.48090459  0.16991889  0.24004384  1
  H+  H105  1  0.47324986  0.28380824  0.24018328  1
  H+  H106  1  0.15502111  -0.00335094  0.52026754  1
  H+  H107  1  0.88461127  0.45755395  0.40471863  1
  H+  H108  1  0.21726875  0.11606050  0.86139761  1
  H+  H109  1  0.92911153  0.18594745  0.89128514  1
  H+  H110  1  0.76791939  0.87044661  0.63125464  1
  H+  H111  1  0.78812737  0.23912290  0.16396039  1
  H+  H112  1  0.56133760  0.12264695  0.85049885  1
  H+  H113  1  0.41665740  0.88630436  0.15966313  1
  H+  H114  1  0.22510725  0.39770153  0.39927492  1
  H+  H115  1  0.83570328  0.75230480  0.87254311  1
  H+  H116  1  0.29411196  0.14817342  0.99837085  1
  H+  H117  1  0.77116463  0.86685932  0.13388841  1
  H+  H118  1  0.43652689  0.21736702  0.09985250  1
  H+  H119  1  0.79108212  0.57804934  0.65518460  1
  H+  H120  1  0.90168479  0.78917481  0.40573690  1
  H+  H121  1  0.24218036  0.40058230  0.24751028  1
  H+  H122  1  0.96929734  0.80887721  0.98411473  1
  H+  H123  1  0.43049283  0.52481340  0.59626541  1
  H+  H124  1  0.31052668  0.48276520  -0.00377526  1
  H+  H125  1  0.54508930  0.06555895  0.74917403  1
  H+  H126  1  0.21454003  0.77271764  0.90774376  1
  H+  H127  1  0.55504345  0.44213704  0.90110449  1
  H+  H128  1  0.57277174  0.76548509  0.94193479  1
  H+  H129  1  0.52637679  0.41564919  0.34520717  1
  H+  H130  1  0.50982519  0.78160032  0.78671854  1
  H+  H131  1  0.70978932  0.95281833  0.20373898  1
  H+  H132  1  0.55482047  0.75070072  0.35783387  1
  H+  H133  1  0.42069234  0.21712035  0.60163213  1
  H+  H134  1  0.77444252  0.23968551  0.60117297  1
  H+  H135  1  0.26564924  0.80887499  0.26279277  1
  H+  H136  1  0.77213412  0.54344096  0.10191246  1
  H+  H137  1  0.21238002  0.10884339  0.36271555  1
  H+  H138  1  0.09534238  0.54943069  0.65377500  1
  H+  H139  1  0.18398795  0.77508329  0.40246562  1
  H+  H140  1  0.56396001  0.11407448  0.36922630  1
  H+  H141  1  0.11056238  0.54873778  0.15169629  1
  H+  H142  1  0.09666954  0.88720989  0.09762447  1
  H+  H143  1  0.41239297  0.52351257  0.15426917  1
  O2-  O144  1  0.15626936  0.27528611  0.29351520  1
  O2-  O145  1  0.12829409  0.22863170  0.70584746  1
  O2-  O146  1  0.11250685  0.55121758  0.21954260  1
  O2-  O147  1  0.09744535  0.55270084  0.72299981  1
  O2-  O148  1  0.09155511  0.88916426  0.21129423  1
  O2-  O149  1  0.20553307  0.94916502  0.69914337  1
  O2-  O150  1  0.43553279  0.20307210  0.21637693  1
  O2-  O151  1  0.44184509  0.23259533  0.72173482  1
  O2-  O152  1  0.40393760  0.52342544  0.22235665  1
  O2-  O153  1  0.43284130  0.53973457  0.70224037  1
  O2-  O154  1  0.40604217  0.88891854  0.22585139  1
  O2-  O155  1  0.52827949  0.97130889  0.66627376  1
  O2-  O156  1  0.79252321  0.23655303  0.23144414  1
  O2-  O157  1  0.78633251  0.26429838  0.72970420  1
  O2-  O158  1  0.76397534  0.54790491  0.21671485  1
  O2-  O159  1  0.77830104  0.56363087  0.72307807  1
  O2-  O160  1  0.74691313  0.91030663  0.22368721  1
  O2-  O161  1  0.74913189  0.85376741  0.70382264  1
  O2-  O162  1  0.21156550  0.10680554  0.29435103  1
  O2-  O163  1  0.22711359  0.12152480  0.79350031  1
  O2-  O164  1  0.28095693  0.48507896  0.23267703  1
  O2-  O165  1  0.21777103  0.44528868  0.77317432  1
  O2-  O166  1  0.18373495  0.76838042  0.28195352  1
  O2-  O167  1  0.21588558  0.77887781  0.78281415  1
  O2-  O168  1  0.57549179  0.10637761  0.30139390  1
  O2-  O169  1  0.57152451  0.13854420  0.78422635  1
  O2-  O170  1  0.52949118  0.41977485  0.27746608  1
  O2-  O171  1  0.55028677  0.44889564  0.78064812  1
  O2-  O172  1  0.57155251  0.74140816  0.29287195  1
  O2-  O173  1  0.52445901  0.76766359  0.72420318  1
  O2-  O174  1  0.91124289  0.13281488  0.29875834  1
  O2-  O175  1  0.92988411  0.18490186  0.77476949  1
  O2-  O176  1  0.89037628  0.45675033  0.28981960  1
  O2-  O177  1  0.89668533  0.45977528  0.79291351  1
  O2-  O178  1  0.88287077  0.77216502  0.30059098  1
  O2-  O179  1  0.78413419  0.72454959  0.81486888  1
  O2-  O180  1  0.20616788  0.12227092  0.48314881  1
  O2-  O181  1  0.21246707  0.11351771  0.97793209  1
  O2-  O182  1  0.23280938  0.40618998  0.46614998  1
  O2-  O183  1  0.22794586  0.44281392  0.97204150  1
  O2-  O184  1  0.18596362  0.78326058  0.47004384  1
  O2-  O185  1  0.21029392  0.76736205  0.97541134  1
  O2-  O186  1  0.54672562  0.11804104  0.47821904  1
  O2-  O187  1  0.56771669  0.13918004  0.97739924  1
  O2-  O188  1  0.52702968  0.40887117  0.46524834  1
  O2-  O189  1  0.55379508  0.43827754  0.96918143  1
  O2-  O190  1  0.55200290  0.78170170  0.46840859  1
  O2-  O191  1  0.56245360  0.75793336  1.00790751  1
  O2-  O192  1  0.89393787  0.11016768  0.48506575  1
  O2-  O193  1  0.91879368  0.17066080  0.95872067  1
  O2-  O194  1  0.88262138  0.45428611  0.47346324  1
  O2-  O195  1  0.89790837  0.45684420  0.96363366  1
  O2-  O196  1  0.90301004  0.79661285  0.47593543  1
  O2-  O197  1  0.88473083  0.76280623  0.96848857  1
  O2-  O198  1  0.13210572  0.24819593  0.02989978  1
  O2-  O199  1  0.15050328  0.18748520  0.52224520  1
  O2-  O200  1  0.11732685  0.54701616  0.03072183  1
  O2-  O201  1  0.09706822  0.54651777  0.54051589  1
  O2-  O202  1  0.09988844  0.88677365  0.02850803  1
  O2-  O203  1  0.12298135  0.91562631  0.54821217  1
  O2-  O204  1  0.43568789  0.21984766  0.03133387  1
  O2-  O205  1  0.41482113  0.21267239  0.53379273  1
  O2-  O206  1  0.43369576  0.53012922  0.03765678  1
  O2-  O207  1  0.43085298  0.52098236  0.52587150  1
  O2-  O208  1  0.43337966  0.85873024  0.03663506  1
  O2-  O209  1  0.43000211  0.94329470  0.60574197  1
  O2-  O210  1  0.78881792  0.25267085  0.03977640  1
  O2-  O211  1  0.77235152  0.23053375  0.53440128  1
  O2-  O212  1  0.77583430  0.54295464  0.03293592  1
  O2-  O213  1  0.79711955  0.59489396  0.54342160  1
  O2-  O214  1  0.77834573  0.85026059  0.06586129  1
  O2-  O215  1  0.78156744  0.89045744  0.53677049  1
