# generated using pymatgen
data_H2O
_symmetry_space_group_name_H-M   'P 1'
_cell_length_a   13.50973977
_cell_length_b   13.51260128
_cell_length_c   14.67861646
_cell_angle_alpha   89.94485326
_cell_angle_beta   90.04401125
_cell_angle_gamma   120.03008784
_symmetry_Int_Tables_number   1
_chemical_formula_structural   H2O
_chemical_formula_sum   'H144 O72'
_cell_volume   2319.90245255
_cell_formula_units_Z   72
loop_
 _symmetry_equiv_pos_site_id
 _symmetry_equiv_pos_as_xyz
  1  'x, y, z'
loop_
 _atom_type_symbol
 _atom_type_oxidation_number
  H+  1.0
  O2-  -2.0
loop_
 _atom_site_type_symbol
 _atom_site_label
 _atom_site_symmetry_multiplicity
 _atom_site_fract_x
 _atom_site_fract_y
 _atom_site_fract_z
 _atom_site_occupancy
  H+  H0  1  0.29131558  0.48096969  0.46471391  1
  H+  H1  1  0.69386196  0.86474236  0.74197647  1
  H+  H2  1  0.14032474  0.85464185  0.74374587  1
  H+  H3  1  0.35090794  0.86963110  1.00172557  1
  H+  H4  1  0.47675825  0.63229310  0.49851561  1
  H+  H5  1  0.46015021  0.28358517  0.49031321  1
  H+  H6  1  0.96032891  0.79528357  0.97923936  1
  H+  H7  1  0.28316318  0.47861002  0.75723453  1
  H+  H8  1  0.16212451  0.61839205  0.50988651  1
  H+  H9  1  0.51927518  1.01899391  0.74022755  1
  H+  H10  1  0.45272314  0.62514126  0.74083750  1
  H+  H11  1  0.16446318  0.85169626  0.24224034  1
  H+  H12  1  0.65680981  0.46397062  0.44972315  1
  H+  H13  1  0.81458844  0.29605970  0.51020658  1
  H+  H14  1  0.84903818  0.82627633  0.48926383  1
  H+  H15  1  0.04578760  0.85444217  0.24888011  1
  H+  H16  1  0.80951409  0.85911714  0.74037441  1
  H+  H17  1  0.86232627  0.36925486  1.00555369  1
  H+  H18  1  0.69704523  0.50963385  0.01021848  1
  H+  H19  1  0.63852418  0.49475427  0.48273710  1
  H+  H20  1  0.65271128  0.83913665  0.25836146  1
  H+  H21  1  0.43462373  0.87196882  0.64893671  1
  H+  H22  1  0.50578663  0.14523838  0.25917118  1
  H+  H23  1  0.81896821  0.51081096  0.00770697  1
  H+  H24  1  0.87486982  0.66025958  0.74667100  1
  H+  H25  1  0.84209220  0.03553470  0.76585549  1
  H+  H26  1  0.16584386  0.33131999  0.74354077  1
  H+  H27  1  0.49794200  0.85433667  0.22622512  1
  H+  H28  1  0.17185398  0.47205305  0.47674310  1
  H+  H29  1  0.16012392  0.46868838  0.76138824  1
  H+  H30  1  -0.03696626  0.14472491  0.50012817  1
  H+  H31  1  0.15973172  0.80072903  0.00090656  1
  H+  H32  1  0.36126673  0.83693480  0.50321308  1
  H+  H33  1  0.15006559  0.49616715  0.21000590  1
  H+  H34  1  0.59935712  0.71535312  0.80464590  1
  H+  H35  1  0.35845940  0.18530399  0.99821425  1
  H+  H36  1  0.47673542  -0.04183403  0.51230448  1
  H+  H37  1  0.87587889  0.48355764  0.49208557  1
  H+  H38  1  0.87021151  0.67025046  0.51085985  1
  H+  H39  1  0.50522445  0.16978547  0.99491797  1
  H+  H40  1  0.99120642  0.17065977  0.22494140  1
  H+  H41  1  0.81468300  0.96797350  0.50762909  1
  H+  H42  1  0.87547119  0.49464116  0.22781488  1
  H+  H43  1  0.87124491  1.05252157  0.23857836  1
  H+  H44  1  0.66425181  0.45060170  0.74858590  1
  H+  H45  1  1.02536286  0.50176623  0.74548610  1
  H+  H46  1  0.47380177  0.83654272  0.74004418  1
  H+  H47  1  0.83329951  0.86378074  0.24316610  1
  H+  H48  1  0.87498185  0.48786845  0.77041691  1
  H+  H49  1  0.83827413  0.68459230  0.98216308  1
  H+  H50  1  0.44921767  0.26104874  0.23719090  1
  H+  H51  1  0.15019987  0.00253146  0.50859442  1
  H+  H52  1  1.00867619  0.16472250  1.03411443  1
  H+  H53  1  0.21620881  0.50930484  0.05281705  1
  H+  H54  1  -0.02329363  0.45963495  0.49371485  1
  H+  H55  1  0.28650394  0.81072126  0.76495123  1
  H+  H56  1  0.66179320  0.15525517  0.74437463  1
  H+  H57  1  0.65463501  0.49209580  0.72117643  1
  H+  H58  1  0.81410529  0.84467836  0.00698868  1
  H+  H59  1  0.86733388  0.37011275  0.22237230  1
  H+  H60  1  0.16230762  0.35810631  0.23325809  1
  H+  H61  1  1.02710154  0.50873015  0.19402792  1
  H+  H62  1  0.84169994  0.18733713  0.21681376  1
  H+  H63  1  0.84422943  0.14129410  0.49646807  1
  H+  H64  1  0.79624025  0.17195364  0.00271616  1
  H+  H65  1  0.97659409  0.84659390  0.48960577  1
  H+  H66  1  0.63441028  0.81392355  0.48667356  1
  H+  H67  1  0.32978430  0.15099530  0.23567237  1
  H+  H68  1  0.56294199  0.42886212  0.21396711  1
  H+  H69  1  0.87473098  0.71775993  0.25644257  1
  H+  H70  1  0.19765013  1.04287605  -0.01829210  1
  H+  H71  1  0.50705061  0.55336383  0.23124379  1
  H+  H72  1  0.63152716  0.14276934  0.49867259  1
  H+  H73  1  0.71674871  0.17911209  0.22839198  1
  H+  H74  1  0.31126634  0.80824602  0.23822205  1
  H+  H75  1  0.44382854  0.50301595  0.74438559  1
  H+  H76  1  0.90312910  0.79297016  0.34863034  1
  H+  H77  1  0.47903840  0.17450168  0.50300613  1
  H+  H78  1  0.16463409  0.89550846  0.52193018  1
  H+  H79  1  0.48658853  0.96480221  0.22773131  1
  H+  H80  1  0.13898838  0.62444134  0.74593602  1
  H+  H81  1  0.49753465  0.66481502  0.23434684  1
  H+  H82  1  0.31065957  0.15148175  0.74721124  1
  H+  H83  1  0.18918210  0.31532533  0.08491770  1
  H+  H84  1  0.96323832  0.84033550  0.76033449  1
  H+  H85  1  0.17805285  0.16448340  0.24151908  1
  H+  H86  1  0.17294440  0.19941119  0.73347461  1
  H+  H87  1  0.15322818  0.19269234  0.50653607  1
  H+  H88  1  0.38006687  0.35019885  0.83074947  1
  H+  H89  1  0.81503267  0.96215737  0.01117740  1
  H+  H90  1  0.74082194  0.54685766  0.23571581  1
  H+  H91  1  0.50130961  0.42829561  0.86938243  1
  H+  H92  1  0.48035161  0.29014166  0.73657087  1
  H+  H93  1  0.62569031  0.15945015  -0.00653130  1
  H+  H94  1  0.60508128  0.79376902  0.00554500  1
  H+  H95  1  0.78528025  0.89201751  0.15324962  1
  H+  H96  1  0.15739749  0.75769848  0.45201716  1
  H+  H97  1  0.18531004  0.04100981  0.75445881  1
  H+  H98  1  0.29740034  0.15249454  0.47872501  1
  H+  H99  1  0.52062447  0.14284312  0.73809932  1
  H+  H100  1  0.12950471  0.24044184  0.64188133  1
  H+  H101  1  0.50072960  0.36886654  1.00788905  1
  H+  H102  1  0.14891511  0.30811539  0.50112525  1
  H+  H103  1  0.97615821  0.23276219  0.97011048  1
  H+  H104  1  0.04777178  0.93310615  0.04935124  1
  H+  H105  1  0.45115831  0.45360662  0.45801584  1
  H+  H106  1  0.81027858  0.17404948  0.75620667  1
  H+  H107  1  0.19121011  0.69267839  0.22797143  1
  H+  H108  1  0.45065165  0.22203842  0.64088329  1
  H+  H109  1  0.80671406  0.29435912  0.75448479  1
  H+  H110  1  0.87870573  0.78626706  0.84503798  1
  H+  H111  1  0.23419080  0.11716091  0.88983668  1
  H+  H112  1  0.18908088  0.44241923  0.32257021  1
  H+  H113  1  0.62108634  0.22289191  0.30722736  1
  H+  H114  1  0.88025954  0.59990652  0.65605697  1
  H+  H115  1  0.76849578  0.55069111  0.53928169  1
  H+  H116  1  0.17026559  0.03726721  0.25739373  1
  H+  H117  1  0.76898810  0.21525584  0.09454105  1
  H+  H118  1  0.49261048  0.48220744  1.01356147  1
  H+  H119  1  0.37624323  0.36010152  0.38696645  1
  H+  H120  1  0.17531945  0.69249709  1.01634622  1
  H+  H121  1  0.80660383  0.57965355  0.14167676  1
  H+  H122  1  0.76956797  0.88615166  0.59453485  1
  H+  H123  1  0.98303639  0.48455233  1.02022824  1
  H+  H124  1  0.77246915  0.21708517  0.59937667  1
  H+  H125  1  0.44246028  0.90615702  0.08261408  1
  H+  H126  1  0.20531266  0.76957782  0.85201792  1
  H+  H127  1  0.21480480  0.12169863  0.38967659  1
  H+  H128  1  0.55451086  0.44800992  0.32083874  1
  H+  H129  1  0.11866492  0.54632585  0.60390553  1
  H+  H130  1  0.42503616  0.54960653  0.58544934  1
  H+  H131  1  0.89678075  0.43396367  0.86077327  1
  H+  H132  1  0.49177818  0.03410988  0.99254415  1
  H+  H133  1  0.39561111  0.54885889  0.11535898  1
  H+  H134  1  0.56492922  0.79418885  0.34349255  1
  H+  H135  1  0.54023808  0.75948292  0.87172822  1
  H+  H136  1  0.10685058  0.90555907  0.65727505  1
  H+  H137  1  0.23196811  0.74962845  0.37536469  1
  H+  H138  1  0.47707549  0.68769082  1.00348890  1
  H+  H139  1  0.42412388  0.20798693  0.09515613  1
  H+  H140  1  0.55150123  0.09899720  0.41040385  1
  H+  H141  1  0.11799461  0.90066289  0.11398423  1
  H+  H142  1  0.51532734  0.81277901  0.48735364  1
  H+  H143  1  0.89666475  0.11445653  0.85375486  1
  O2-  O144  1  0.13203378  0.23383916  0.20098008  1
  O2-  O145  1  0.13300381  0.24116052  0.71151960  1
  O2-  O146  1  0.11675321  0.55325529  0.17609167  1
  O2-  O147  1  0.10564695  0.54505095  0.72195606  1
  O2-  O148  1  0.12655626  0.89591128  0.22449309  1
  O2-  O149  1  0.10661805  0.90255620  0.72508601  1
  O2-  O150  1  0.41343961  0.18378192  0.21263225  1
  O2-  O151  1  0.45300114  0.21409779  0.70877150  1
  O2-  O152  1  0.45615986  0.58288281  0.21538869  1
  O2-  O153  1  0.41388259  0.54808486  0.71240802  1
  O2-  O154  1  0.45149360  0.88851730  0.20103084  1
  O2-  O155  1  0.43848992  0.87999238  0.71733471  1
  O2-  O156  1  0.79083221  0.22371208  0.19779483  1
  O2-  O157  1  0.76717765  0.21306889  0.72974142  1
  O2-  O158  1  0.81875079  0.58402621  0.20914078  1
  O2-  O159  1  0.89208495  0.60217829  0.72297561  1
  O2-  O160  1  0.78993549  0.90085873  0.22067108  1
  O2-  O161  1  0.77195698  0.90251306  0.71671596  1
  O2-  O162  1  0.21357629  0.11939233  0.27520695  1
  O2-  O163  1  0.23216900  0.12417570  0.77151291  1
  O2-  O164  1  0.18373865  0.43873735  0.25487795  1
  O2-  O165  1  0.20278012  0.42793888  0.77973409  1
  O2-  O166  1  0.23110294  0.76604061  0.26215801  1
  O2-  O167  1  0.20538613  0.77237680  0.78434433  1
  O2-  O168  1  0.57156008  0.14312819  0.28932845  1
  O2-  O169  1  0.56267911  0.10254019  0.75823763  1
  O2-  O170  1  0.59539854  0.48468695  0.26318298  1
  O2-  O171  1  0.45833508  0.40144941  0.81047164  1
  O2-  O172  1  0.56965879  0.80121935  0.27556440  1
  O2-  O173  1  0.55416218  0.75358990  0.80265355  1
  O2-  O174  1  0.90937461  0.13672992  0.24469230  1
  O2-  O175  1  0.87524508  0.11498080  0.79011195  1
  O2-  O176  1  0.91822070  0.45291523  0.23567351  1
  O2-  O177  1  0.88860982  0.42474631  0.79366553  1
  O2-  O178  1  0.91037042  0.79765115  0.28056889  1
  O2-  O179  1  0.88075014  0.79515128  0.77748761  1
  O2-  O180  1  0.21660616  0.12203050  0.45852847  1
  O2-  O181  1  0.23924170  0.12127966  0.95748046  1
  O2-  O182  1  0.21072306  0.43623593  0.44302231  1
  O2-  O183  1  0.25657260  0.46345422  1.03549647  1
  O2-  O184  1  0.22447541  0.74943539  0.44402148  1
  O2-  O185  1  0.20397411  0.76530317  0.98057039  1
  O2-  O186  1  0.54857846  0.09977113  0.47777480  1
  O2-  O187  1  0.54334966  0.12423317  0.97194449  1
  O2-  O188  1  0.45011798  0.39274255  0.41765053  1
  O2-  O189  1  0.53911153  0.45093752  0.98795427  1
  O2-  O190  1  0.55412607  0.77288061  0.46174523  1
  O2-  O191  1  0.53005393  0.76257095  0.97566476  1
  O2-  O192  1  0.88284026  0.09793660  0.48006727  1
  O2-  O193  1  0.94619047  0.15451436  0.99164623  1
  O2-  O194  1  0.89589319  0.42539066  0.47426562  1
  O2-  O195  1  0.90733356  0.45093881  0.98777530  1
  O2-  O196  1  0.89844001  0.79502487  0.46562930  1
  O2-  O197  1  0.88031692  0.76689373  0.96156478  1
  O2-  O198  1  0.14282015  0.23249203  0.10005692  1
  O2-  O199  1  0.11616293  0.23332498  0.53443966  1
  O2-  O200  1  0.12580427  0.55235065  0.07431650  1
  O2-  O201  1  0.12010765  0.54051496  0.53603765  1
  O2-  O202  1  0.10137407  0.90447670  0.04672302  1
  O2-  O203  1  0.11361839  0.92388611  0.53882143  1
  O2-  O204  1  0.43833054  0.22586288  0.02890112  1
  O2-  O205  1  0.43419114  0.21117936  0.52427349  1
  O2-  O206  1  0.38131633  0.53933967  0.04670866  1
  O2-  O207  1  0.42832173  0.55033878  0.51791488  1
  O2-  O208  1  0.43232303  0.92240421  0.01824443  1
  O2-  O209  1  0.43717818  0.87652951  0.53323673  1
  O2-  O210  1  0.76003891  0.21483229  0.02465408  1
  O2-  O211  1  0.76649498  0.21368951  0.53240999  1
  O2-  O212  1  0.77943892  0.55380166  0.02607577  1
  O2-  O213  1  0.85195676  0.59562367  0.54058687  1
  O2-  O214  1  0.77399763  0.88309057  0.03308260  1
  O2-  O215  1  0.77163042  0.88357235  0.52695350  1
