# generated using pymatgen
data_H2O
_symmetry_space_group_name_H-M   'P 1'
_cell_length_a   13.50674704
_cell_length_b   13.51732491
_cell_length_c   14.68788211
_cell_angle_alpha   90.02542497
_cell_angle_beta   89.96213689
_cell_angle_gamma   120.00632995
_symmetry_Int_Tables_number   1
_chemical_formula_structural   H2O
_chemical_formula_sum   'H144 O72'
_cell_volume   2322.22088007
_cell_formula_units_Z   72
loop_
 _symmetry_equiv_pos_site_id
 _symmetry_equiv_pos_as_xyz
  1  'x, y, z'
loop_
 _atom_type_symbol
 _atom_type_oxidation_number
  H+  1.0
  O2-  -2.0
loop_
 _atom_site_type_symbol
 _atom_site_label
 _atom_site_symmetry_multiplicity
 _atom_site_fract_x
 _atom_site_fract_y
 _atom_site_fract_z
 _atom_site_occupancy
  H+  H0  1  0.49033477  0.50666383  0.50621913  1
  H+  H1  1  0.77954750  0.54885672  0.65201343  1
  H+  H2  1  0.51133794  0.81229374  0.25683133  1
  H+  H3  1  0.14068369  0.52189710  0.22847193  1
  H+  H4  1  0.80925393  0.61080479  0.51230709  1
  H+  H5  1  0.69721501  0.83453190  0.51031829  1
  H+  H6  1  0.18363075  0.47846198  0.75659309  1
  H+  H7  1  0.69301030  0.18510991  0.00416655  1
  H+  H8  1  0.81452486  0.63640670  0.00211771  1
  H+  H9  1  0.22599264  0.45708420  0.33338672  1
  H+  H10  1  1.02484871  0.17544688  0.51175231  1
  H+  H11  1  0.17159020  0.38220914  0.24576106  1
  H+  H12  1  0.80972687  0.50732448  0.23454303  1
  H+  H13  1  0.37546551  0.16993960  0.23800136  1
  H+  H14  1  0.81385743  0.95679119  0.51344142  1
  H+  H15  1  0.18029750  0.15314540  0.47806751  1
  H+  H16  1  0.84461786  0.35774463  0.25382229  1
  H+  H17  1  0.14666078  0.51425837  0.99809056  1
  H+  H18  1  0.20644178  0.11974828  0.21742304  1
  H+  H19  1  0.84847117  0.46590061  0.48962014  1
  H+  H20  1  0.03631663  0.84925858  -0.00538228  1
  H+  H21  1  0.36846083  0.85226620  0.00757408  1
  H+  H22  1  0.83754578  0.14068565  0.25405367  1
  H+  H23  1  0.51378297  0.78524862  0.48778327  1
  H+  H24  1  0.51224181  0.20021869  0.51826466  1
  H+  H25  1  0.36514772  0.84237876  0.23381525  1
  H+  H26  1  0.48727203  0.85436251  0.00085350  1
  H+  H27  1  0.81454147  0.29229836  0.50479452  1
  H+  H28  1  0.31957604  0.46760409  0.47479544  1
  H+  H29  1  0.52113714  0.14688930  0.24527847  1
  H+  H30  1  0.36056286  0.51556301  0.22541292  1
  H+  H31  1  0.14060760  0.63825156  0.51756250  1
  H+  H32  1  0.51236192  1.03885904  -0.02254555  1
  H+  H33  1  0.63262219  0.48396013  0.98772845  1
  H+  H34  1  0.33454432  0.16534974  0.77139234  1
  H+  H35  1  0.69317006  0.17493320  0.50220336  1
  H+  H36  1  0.64521863  0.47654593  0.76210472  1
  H+  H37  1  0.69307198  0.49350449  0.51167840  1
  H+  H38  1  0.95867461  0.47988500  0.25108430  1
  H+  H39  1  0.69830440  0.17319954  0.23411976  1
  H+  H40  1  0.52866882  0.30879185  0.76493883  1
  H+  H41  1  0.50917459  0.15518974  0.98828868  1
  H+  H42  1  0.51626494  1.02428419  0.24926861  1
  H+  H43  1  0.84393526  0.80252751  0.50103360  1
  H+  H44  1  0.48498614  0.64187951  0.72747788  1
  H+  H45  1  0.15443752  -0.03215941  0.99601053  1
  H+  H46  1  0.84837149  1.02759304  0.25488073  1
  H+  H47  1  0.81179867  0.18452150  0.00420287  1
  H+  H48  1  0.48073701  0.62901176  0.23193683  1
  H+  H49  1  -0.00898797  0.17642532  0.76510592  1
  H+  H50  1  0.86063359  0.08425128  0.75414081  1
  H+  H51  1  0.21062595  0.05580077  0.76164685  1
  H+  H52  1  0.82482464  0.51821145  0.74133522  1
  H+  H53  1  0.96447384  0.15563406  0.99077808  1
  H+  H54  1  0.55376788  0.76832523  0.34436711  1
  H+  H55  1  0.49165199  0.04824940  0.46276179  1
  H+  H56  1  0.67161261  0.20946078  0.72930900  1
  H+  H57  1  0.89314110  0.12771190  0.89887984  1
  H+  H58  1  0.11046214  0.55400651  0.65434694  1
  H+  H59  1  0.95367804  0.78578934  0.49024763  1
  H+  H60  1  0.67180325  0.83963147  0.74836367  1
  H+  H61  1  0.17586091  0.82839318  0.48189905  1
  H+  H62  1  0.48396117  0.51801229  -0.00244824  1
  H+  H63  1  0.51011193  0.47350752  0.25293543  1
  H+  H64  1  0.02773719  0.51495782  -0.00425805  1
  H+  H65  1  0.96554781  0.46825377  0.75712875  1
  H+  H66  1  0.14953678  0.83622096  0.24591154  1
  H+  H67  1  0.36200476  0.18534027  0.00849865  1
  H+  H68  1  0.84453208  0.48377993  -0.01921934  1
  H+  H69  1  0.51304939  0.36543944  -0.01130789  1
  H+  H70  1  0.18564138  0.00450266  0.26047546  1
  H+  H71  1  0.17852560  0.69189810  0.24774742  1
  H+  H72  1  1.03664995  0.51254096  0.51791714  1
  H+  H73  1  0.48849213  0.29500121  0.23788380  1
  H+  H74  1  0.18471762  0.82097251  0.99190572  1
  H+  H75  1  0.16998168  1.00054571  0.50173948  1
  H+  H76  1  -0.03138552  0.82619683  0.75115624  1
  H+  H77  1  0.18163830  0.15416428  -0.00994238  1
  H+  H78  1  0.52360919  0.82799436  0.76082825  1
  H+  H79  1  0.14643116  0.29139057  0.50598718  1
  H+  H80  1  0.52542343  0.67604300  0.48145403  1
  H+  H81  1  0.05100001  0.92713774  0.54692390  1
  H+  H82  1  1.03197454  0.83937343  0.25708315  1
  H+  H83  1  0.84785429  0.82276759  0.98139967  1
  H+  H84  1  0.84249327  0.36409808  0.98603897  1
  H+  H85  1  0.14790706  0.61762572  0.75170867  1
  H+  H86  1  0.13899962  0.21135535  0.25382628  1
  H+  H87  1  0.14923556  0.30531187  0.00194534  1
  H+  H88  1  0.80904209  0.84274532  0.74034482  1
  H+  H89  1  0.18215632  0.88587373  0.74196143  1
  H+  H90  1  0.18395206  0.69902446  -0.00466968  1
  H+  H91  1  0.44414043  0.55410837  0.58879287  1
  H+  H92  1  0.63678788  0.81991845  0.97928655  1
  H+  H93  1  0.17371690  0.19512103  0.74133655  1
  H+  H94  1  0.77800897  0.21593492  0.14575601  1
  H+  H95  1  0.12570175  0.74436871  0.79505923  1
  H+  H96  1  0.62989625  0.47684232  0.25324592  1
  H+  H97  1  0.47453310  0.91060566  0.52859218  1
  H+  H98  1  0.67515529  0.82041035  0.23137835  1
  H+  H99  1  0.01463292  0.18954234  0.23969353  1
  H+  H100  1  0.29969122  0.48538728  0.98389982  1
  H+  H101  1  0.81617929  -0.02031351  0.99482836  1
  H+  H102  1  0.52319193  0.36130330  0.49837945  1
  H+  H103  1  0.34801554  0.83081374  0.75035543  1
  H+  H104  1  0.48891221  0.23235804  0.61735096  1
  H+  H105  1  0.73294772  0.76989420  0.16964204  1
  H+  H106  1  0.83984712  0.13693614  0.49397542  1
  H+  H107  1  0.81166167  0.31492963  0.73313357  1
  H+  H108  1  0.54415808  0.15817363  0.84344562  1
  H+  H109  1  0.56208581  0.43640627  0.85037451  1
  H+  H110  1  0.56551732  0.78631694  0.85143470  1
  H+  H111  1  0.87614462  0.76141962  0.35533035  1
  H+  H112  1  0.10729635  0.22974608  0.09235612  1
  H+  H113  1  0.55401441  0.43128424  0.40227289  1
  H+  H114  1  0.23236086  0.12373646  0.90265695  1
  H+  H115  1  0.84785242  0.80933064  0.26594769  1
  H+  H116  1  0.77657669  0.55626200  0.09090090  1
  H+  H117  1  0.44613695  0.22265860  0.09532206  1
  H+  H118  1  0.51760536  0.69779168  0.97818698  1
  H+  H119  1  0.85389787  0.70227310  0.74947286  1
  H+  H120  1  0.77213109  0.89640667  0.08165874  1
  H+  H121  1  0.75747218  0.22636087  0.63659115  1
  H+  H122  1  0.44601430  0.55906247  0.08610891  1
  H+  H123  1  0.87909108  0.09853341  0.40469116  1
  H+  H124  1  0.56253748  0.11813864  0.37788880  1
  H+  H125  1  0.45524803  0.94958710  0.72611425  1
  H+  H126  1  0.19470692  0.36644353  0.75596115  1
  H+  H127  1  0.28066899  0.36278298  0.41183041  1
  H+  H128  1  0.44789749  0.88604427  0.14601918  1
  H+  H129  1  0.40861986  0.82332075  0.60355888  1
  H+  H130  1  0.12168366  0.22198209  0.65216153  1
  H+  H131  1  0.09855143  0.55606875  0.13823666  1
  H+  H132  1  0.88472853  0.77931779  0.89436410  1
  H+  H133  1  0.21959581  0.77402195  0.87149927  1
  H+  H134  1  0.21832026  0.76841291  0.33908527  1
  H+  H135  1  0.81327277  0.62688772  0.23895252  1
  H+  H136  1  0.14046772  0.91982777  0.65208373  1
  H+  H137  1  0.22082955  0.11274513  0.38845344  1
  H+  H138  1  0.36600912  0.52532468  0.72909971  1
  H+  H139  1  0.22265115  0.44337679  0.89451749  1
  H+  H140  1  0.88051327  0.42861627  0.84468873  1
  H+  H141  1  0.88900036  0.43097762  0.39913346  1
  H+  H142  1  0.28148785  0.80711650  0.48613885  1
  H+  H143  1  0.76481958  0.87950732  0.64854037  1
  O2-  O144  1  0.09591413  0.23743933  0.21769712  1
  O2-  O145  1  0.12655077  0.22842001  0.71984590  1
  O2-  O146  1  0.09586913  0.55773493  0.20640985  1
  O2-  O147  1  0.10443470  0.54161831  0.72331717  1
  O2-  O148  1  0.11273651  0.88372925  0.23735672  1
  O2-  O149  1  0.13315208  0.91551919  0.72005346  1
  O2-  O150  1  0.45460494  0.21546359  0.21285488  1
  O2-  O151  1  0.48401801  0.21805804  0.74322963  1
  O2-  O152  1  0.44217377  0.55007902  0.20632672  1
  O2-  O153  1  0.44036223  0.56849369  0.69643286  1
  O2-  O154  1  0.44753605  0.88418507  0.21428405  1
  O2-  O155  1  0.42436135  0.86689594  0.72077534  1
  O2-  O156  1  0.78035760  0.21287907  0.21407823  1
  O2-  O157  1  0.75244846  0.23427223  0.70633008  1
  O2-  O158  1  0.77093131  0.54907533  0.21145581  1
  O2-  O159  1  0.78693415  0.56089072  0.71977098  1
  O2-  O160  1  0.75064056  0.84143318  0.19972606  1
  O2-  O161  1  0.76371614  0.87987411  0.71826896  1
  O2-  O162  1  0.23281854  0.09407696  0.26918495  1
  O2-  O163  1  0.25238934  0.13502088  0.78609647  1
  O2-  O164  1  0.21940920  0.46291291  0.26623462  1
  O2-  O165  1  0.23124533  0.44655494  0.77996419  1
  O2-  O166  1  0.22687557  0.77173505  0.27175307  1
  O2-  O167  1  0.20671784  0.76825269  0.80085983  1
  O2-  O168  1  0.56058074  0.10594944  0.27030606  1
  O2-  O169  1  0.54766462  0.16124849  0.77443931  1
  O2-  O170  1  0.54984438  0.43377917  0.27727515  1
  O2-  O171  1  0.56633894  0.42288161  0.78369635  1
  O2-  O172  1  0.55105710  0.76953902  0.27627459  1
  O2-  O173  1  0.57099721  0.79419570  0.78078919  1
  O2-  O174  1  0.88182988  0.10448751  0.28059696  1
  O2-  O175  1  0.91265841  0.15208204  0.78868501  1
  O2-  O176  1  0.87996832  0.43725266  0.27796626  1
  O2-  O177  1  0.88261876  0.42825648  0.77574008  1
  O2-  O178  1  0.88390669  0.76561690  0.28782314  1
  O2-  O179  1  0.88716424  0.78425308  0.76963887  1
  O2-  O180  1  0.22230883  0.11479538  0.45582834  1
  O2-  O181  1  0.22567814  0.11663682  0.97045542  1
  O2-  O182  1  0.25090058  0.40861258  0.43900507  1
  O2-  O183  1  0.21844103  0.44344161  0.96307503  1
  O2-  O184  1  0.20449238  0.77851480  0.45977054  1
  O2-  O185  1  0.22885984  0.78011959  0.97361825  1
  O2-  O186  1  0.56111310  0.11889422  0.44752931  1
  O2-  O187  1  0.55092578  0.12021832  0.95732148  1
  O2-  O188  1  0.55970994  0.43995284  0.46960913  1
  O2-  O189  1  0.55222740  0.44557627  0.96452895  1
  O2-  O190  1  0.56530236  0.75987987  0.46225544  1
  O2-  O191  1  0.55670745  0.77877913  0.95442315  1
  O2-  O192  1  0.87976121  0.09587758  0.47241925  1
  O2-  O193  1  0.88425878  0.11678408  0.96712213  1
  O2-  O194  1  0.88854955  0.42537440  0.46709716  1
  O2-  O195  1  0.88358073  0.44212090  0.95788954  1
  O2-  O196  1  0.87326858  0.75403324  0.47352977  1
  O2-  O197  1  0.88426771  0.77775037  0.96186265  1
  O2-  O198  1  0.10740881  0.22443037  0.02525639  1
  O2-  O199  1  0.10567805  0.21348103  0.53300300  1
  O2-  O200  1  0.10726657  0.55582047  0.02050888  1
  O2-  O201  1  0.11285971  0.56227692  0.54521151  1
  O2-  O202  1  0.11834766  0.88506826  0.00981767  1
  O2-  O203  1  0.12026549  0.92293788  0.53651698  1
  O2-  O204  1  0.44471658  0.22578614  0.02741515  1
  O2-  O205  1  0.48042288  0.24113109  0.55144380  1
  O2-  O206  1  0.44602742  0.56195507  0.01812302  1
  O2-  O207  1  0.44765270  0.54828134  0.51985184  1
  O2-  O208  1  0.45075446  0.89630219  0.02661802  1
  O2-  O209  1  0.41789267  0.83004419  0.53621242  1
  O2-  O210  1  0.77252201  0.22506921  0.02911743  1
  O2-  O211  1  0.76982474  0.21252535  0.53210134  1
  O2-  O212  1  0.77533107  0.55506883  0.02287362  1
  O2-  O213  1  0.77367538  0.53157189  0.53596337  1
  O2-  O214  1  0.77460776  0.89657134  0.01435916  1
  O2-  O215  1  0.77593363  0.87688140  0.53864614  1
