# generated using pymatgen
data_H2O
_symmetry_space_group_name_H-M   'P 1'
_cell_length_a   13.44118400
_cell_length_b   13.50479996
_cell_length_c   14.72574925
_cell_angle_alpha   90.06853011
_cell_angle_beta   89.90634043
_cell_angle_gamma   119.88464490
_symmetry_Int_Tables_number   1
_chemical_formula_structural   H2O
_chemical_formula_sum   'H144 O72'
_cell_volume   2317.59070932
_cell_formula_units_Z   72
loop_
 _symmetry_equiv_pos_site_id
 _symmetry_equiv_pos_as_xyz
  1  'x, y, z'
loop_
 _atom_type_symbol
 _atom_type_oxidation_number
  H+  1.0
  O2-  -2.0
loop_
 _atom_site_type_symbol
 _atom_site_label
 _atom_site_symmetry_multiplicity
 _atom_site_fract_x
 _atom_site_fract_y
 _atom_site_fract_z
 _atom_site_occupancy
  H+  H0  1  0.86989003  0.44279706  0.42724076  1
  H+  H1  1  0.51566087  0.37661150  0.24548386  1
  H+  H2  1  0.18174991  0.83507731  0.82877670  1
  H+  H3  1  0.79705965  0.13661082  0.50325354  1
  H+  H4  1  0.81427072  0.68552962  0.21279560  1
  H+  H5  1  0.26457699  0.67955106  0.58642376  1
  H+  H6  1  0.19855894  0.12839249  -0.00801585  1
  H+  H7  1  0.47392266  0.19817109  0.67741655  1
  H+  H8  1  0.39196552  0.53318344  0.48705993  1
  H+  H9  1  1.02350668  0.10236803  1.01408481  1
  H+  H10  1  0.81047188  0.28913457  0.22105589  1
  H+  H11  1  0.82358285  0.36392258  0.51327941  1
  H+  H12  1  0.52757799  0.49195392  0.47235810  1
  H+  H13  1  0.20974483  0.37980072  0.46233742  1
  H+  H14  1  0.35657746  0.85231491  0.79355770  1
  H+  H15  1  0.50190580  0.52952601  1.00208686  1
  H+  H16  1  0.01067974  0.49011075  0.74704598  1
  H+  H17  1  0.69530053  0.50566362  -0.01852855  1
  H+  H18  1  1.03898191  0.83411916  0.76753539  1
  H+  H19  1  0.47561650  0.64337297  0.73366220  1
  H+  H20  1  0.50755740  0.19574781  0.00764534  1
  H+  H21  1  0.32577906  0.51219551  0.97065360  1
  H+  H22  1  0.50773385  0.02509702  0.78728607  1
  H+  H23  1  0.17185511  0.82192872  0.49160922  1
  H+  H24  1  0.34629277  0.17416606  -0.01757905  1
  H+  H25  1  0.58505531  0.71064496  0.47616304  1
  H+  H26  1  0.55787694  0.78039042  0.85549910  1
  H+  H27  1  0.16317220  0.81069703  0.27734866  1
  H+  H28  1  0.59606713  0.79241984  0.34266493  1
  H+  H29  1  0.50745518  0.36403929  0.47076791  1
  H+  H30  1  0.25544669  0.41719839  0.74540405  1
  H+  H31  1  0.85105716  0.81233746  0.75985628  1
  H+  H32  1  0.28442867  0.81535714  0.26293588  1
  H+  H33  1  0.82438191  0.69523390  0.47227616  1
  H+  H34  1  0.13545226  -0.02514561  0.46608053  1
  H+  H35  1  0.00883173  0.86008441  0.47624836  1
  H+  H36  1  0.82012441  0.63332093  -0.01035773  1
  H+  H37  1  0.68985412  0.51549003  0.50364446  1
  H+  H38  1  0.48024723  0.18478572  0.21555186  1
  H+  H39  1  0.53969469  0.04773803  1.00893309  1
  H+  H40  1  0.56155024  0.11942230  0.30509064  1
  H+  H41  1  0.34189557  0.87214430  0.53977449  1
  H+  H42  1  0.48323843  0.84673413  0.24040460  1
  H+  H43  1  0.85820853  1.03857252  0.25686761  1
  H+  H44  1  0.11501324  0.46227905  0.75632088  1
  H+  H45  1  0.31052965  0.49969115  0.23828890  1
  H+  H46  1  0.65961812  0.83227912  0.24967863  1
  H+  H47  1  0.38492904  0.88513024  0.00431610  1
  H+  H48  1  0.72964459  0.19031705  -0.00785235  1
  H+  H49  1  0.21477149  0.52458014  0.94922305  1
  H+  H50  1  0.80758458  0.16892000  0.73200385  1
  H+  H51  1  0.07215968  0.87906006  0.34808579  1
  H+  H52  1  0.15785003  0.66770862  -0.07533845  1
  H+  H53  1  0.10643229  0.24613322  0.79634802  1
  H+  H54  1  0.30128841  0.16291433  0.47242370  1
  H+  H55  1  0.15971808  0.02623101  0.25358885  1
  H+  H56  1  0.83669826  0.79789547  0.98495122  1
  H+  H57  1  0.65913236  0.19417588  0.55368701  1
  H+  H58  1  0.35905997  0.18065145  0.21882080  1
  H+  H59  1  0.88596804  0.33829664  0.34070181  1
  H+  H60  1  0.17733036  0.15219046  0.24605085  1
  H+  H61  1  0.47841778  0.96113881  0.22772019  1
  H+  H62  1  0.81026527  0.52093304  0.51773721  1
  H+  H63  1  0.88407313  0.15088374  0.96863234  1
  H+  H64  1  0.69092459  0.57807791  0.21440949  1
  H+  H65  1  0.30288326  0.14976112  0.75928541  1
  H+  H66  1  0.98103563  0.50019923  0.95616373  1
  H+  H67  1  0.52355652  0.82429871  -0.00871646  1
  H+  H68  1  0.86152375  0.87731349  0.23412501  1
  H+  H69  1  0.00805205  0.83355026  0.01012827  1
  H+  H70  1  0.80092887  0.51329808  0.73015883  1
  H+  H71  1  0.82722039  -0.04258500  0.99365349  1
  H+  H72  1  1.03331254  0.19019645  0.23922342  1
  H+  H73  1  0.17112938  0.13044427  0.78092472  1
  H+  H74  1  0.47787060  0.07510125  0.58170264  1
  H+  H75  1  0.14396260  0.18225537  0.45370966  1
  H+  H76  1  0.82898283  0.00837392  0.69744455  1
  H+  H77  1  0.49871778  0.65006827  0.23053406  1
  H+  H78  1  0.63682379  0.14836471  0.21622401  1
  H+  H79  1  0.36586950  0.59556096  0.67559022  1
  H+  H80  1  0.55744403  0.45086022  0.33677493  1
  H+  H81  1  0.03070898  0.18778267  0.47506099  1
  H+  H82  1  0.84432033  0.69203338  0.75349730  1
  H+  H83  1  0.52481598  0.70500758  -0.00972063  1
  H+  H84  1  0.62829005  0.49207918  0.74429744  1
  H+  H85  1  0.11374951  0.56452391  -0.14196096  1
  H+  H86  1  0.49087790  0.52823508  0.23108250  1
  H+  H87  1  0.12558788  0.62409111  0.28422697  1
  H+  H88  1  0.95470437  0.45584866  0.29063163  1
  H+  H89  1  0.48573442  0.29896491  0.74454134  1
  H+  H90  1  0.50956718  0.82059719  0.77289652  1
  H+  H91  1  0.20181049  0.88576621  0.97775019  1
  H+  H92  1  0.19415452  0.37810916  0.24223488  1
  H+  H93  1  0.52838440  0.37253661  0.97558369  1
  H+  H94  1  0.13984441  0.51399577  0.27324044  1
  H+  H95  1  0.88002016  0.76241476  0.89344366  1
  H+  H96  1  0.82920945  0.35648366  0.75733267  1
  H+  H97  1  0.15718762  0.95259509  0.76641678  1
  H+  H98  1  0.00289549  0.13499318  0.75246699  1
  H+  H99  1  0.70186491  0.82504882  0.58963975  1
  H+  H100  1  0.81045583  0.22605995  0.07544954  1
  H+  H101  1  0.47836968  0.19299721  0.54733292  1
  H+  H102  1  0.88535976  0.10455608  0.62268808  1
  H+  H103  1  0.69109114  0.16937264  0.76109713  1
  H+  H104  1  0.67493140  0.83388743  0.74463220  1
  H+  H105  1  0.81351546  0.17400944  0.22187229  1
  H+  H106  1  0.06689486  0.02171465  0.05804617  1
  H+  H107  1  0.82620350  0.50737503  0.98578525  1
  H+  H108  1  0.87120151  0.37264771  0.97955425  1
  H+  H109  1  0.55900752  0.45099577  0.88536033  1
  H+  H110  1  0.23166623  0.78399588  0.42142738  1
  H+  H111  1  0.76065787  0.22225496  0.61737138  1
  H+  H112  1  0.80574569  0.90043850  0.14592911  1
  H+  H113  1  0.45467168  0.23737369  0.08847405  1
  H+  H114  1  0.78757932  0.01635015  0.48045666  1
  H+  H115  1  0.46011792  0.56823038  0.09132800  1
  H+  H116  1  0.10755336  0.51877520  0.07872279  1
  H+  H117  1  0.08899688  0.51294188  0.12754777  1
  H+  H118  1  0.51715497  0.10918937  0.41706612  1
  H+  H119  1  0.22797245  0.11536989  0.37938975  1
  H+  H120  1  0.88112304  0.11662434  0.34554621  1
  H+  H121  1  0.10004437  0.19318488  0.14922300  1
  H+  H122  1  0.40986114  0.88427329  0.69254946  1
  H+  H123  1  0.51555532  0.14805510  0.78681143  1
  H+  H124  1  0.71819553  0.77876239  0.44981678  1
  H+  H125  1  0.44324748  0.88500893  0.09919081  1
  H+  H126  1  0.07573662  0.85700956  0.10222898  1
  H+  H127  1  0.46656334  0.57314972  0.57782603  1
  H+  H128  1  0.70360343  0.84688715  0.00553935  1
  H+  H129  1  0.50385509  0.48176853  0.74469560  1
  H+  H130  1  0.25110927  0.11778961  0.88618802  1
  H+  H131  1  0.87313440  0.77461110  0.38140853  1
  H+  H132  1  0.20654825  0.61661602  0.67744950  1
  H+  H133  1  0.39521591  0.27109395  0.56460856  1
  H+  H134  1  0.56877156  0.11686657  0.91637898  1
  H+  H135  1  0.95790044  0.12341495  0.89545997  1
  H+  H136  1  0.57757356  0.11971912  0.42359091  1
  H+  H137  1  0.76541444  0.56144083  0.64257054  1
  H+  H138  1  0.87108621  0.44318036  0.83980143  1
  H+  H139  1  0.19157295  0.29464847  0.61337879  1
  H+  H140  1  0.21829852  0.42287820  0.84762218  1
  H+  H141  1  0.47131564  0.90086492  0.54885618  1
  H+  H142  1  0.21273629  0.25674215  0.63217077  1
  H+  H143  1  0.25568577  0.46796245  0.38455301  1
  O2-  O144  1  0.11122469  0.22379175  0.21168231  1
  O2-  O145  1  0.06203852  0.16039733  0.80111848  1
  O2-  O146  1  0.08285327  0.54038191  0.27601480  1
  O2-  O147  1  0.09583483  0.52450394  0.75149025  1
  O2-  O148  1  0.06123908  0.87263390  0.27949177  1
  O2-  O149  1  0.12375415  0.86867938  0.76309277  1
  O2-  O150  1  0.44008213  0.22682140  0.19726246  1
  O2-  O151  1  0.44656480  0.21448438  0.73688688  1
  O2-  O152  1  0.45424559  0.57158655  0.20511287  1
  O2-  O153  1  0.42217850  0.57355474  0.69883687  1
  O2-  O154  1  0.43494864  0.87735169  0.21579643  1
  O2-  O155  1  0.42919510  0.88702028  0.75834702  1
  O2-  O156  1  0.77618296  0.21274306  0.19009035  1
  O2-  O157  1  0.76951739  0.21569647  0.73397436  1
  O2-  O158  1  0.74502141  0.64153024  0.17576369  1
  O2-  O159  1  0.76393056  0.55861323  0.71181222  1
  O2-  O160  1  0.81211935  0.91000752  0.21302865  1
  O2-  O161  1  0.75656704  0.86840622  0.71674564  1
  O2-  O162  1  0.21783583  0.10821088  0.25941484  1
  O2-  O163  1  0.22685346  0.10222459  0.79043317  1
  O2-  O164  1  0.23155457  0.45773383  0.26448360  1
  O2-  O165  1  0.18765961  0.38789879  0.78449494  1
  O2-  O166  1  0.21069522  0.77742322  0.29646444  1
  O2-  O167  1  0.23057813  0.81198596  0.87249486  1
  O2-  O168  1  0.55476900  0.11130795  0.23881032  1
  O2-  O169  1  0.55644455  0.10707342  0.80682090  1
  O2-  O170  1  0.55288141  0.45563873  0.26864086  1
  O2-  O171  1  0.54738012  0.44746473  0.76980182  1
  O2-  O172  1  0.58133220  0.79480635  0.27670185  1
  O2-  O173  1  0.55424596  0.78129499  0.78697766  1
  O2-  O174  1  0.88786130  0.11958109  0.27888113  1
  O2-  O175  1  0.87728040  0.09333771  0.68884961  1
  O2-  O176  1  0.87253582  0.39124351  0.30500934  1
  O2-  O177  1  0.86727636  0.43975567  0.77215292  1
  O2-  O178  1  0.93306432  0.81047145  0.27422326  1
  O2-  O179  1  0.88833945  0.76996970  0.78241451  1
  O2-  O180  1  0.21875856  0.11170347  0.44644813  1
  O2-  O181  1  0.26299538  0.12524363  0.95722202  1
  O2-  O182  1  0.26145792  0.46260438  0.45132428  1
  O2-  O183  1  0.24758019  0.47349740  0.94374405  1
  O2-  O184  1  0.22575271  0.79173051  0.48785607  1
  O2-  O185  1  0.27264079  0.89885020  0.94489819  1
  O2-  O186  1  0.52192192  0.15919554  0.58712709  1
  O2-  O187  1  0.57888076  0.12746399  0.98446407  1
  O2-  O188  1  0.56283421  0.44644715  0.44954738  1
  O2-  O189  1  0.56966948  0.45326382  0.95302424  1
  O2-  O190  1  0.64942809  0.78812044  0.45936403  1
  O2-  O191  1  0.56571958  0.78629395  0.96740079  1
  O2-  O192  1  0.84192917  0.09818654  0.48491281  1
  O2-  O193  1  0.91634236  0.10023878  0.95443436  1
  O2-  O194  1  0.87014968  0.44500042  0.49407814  1
  O2-  O195  1  0.89472064  0.45148038  0.95677878  1
  O2-  O196  1  0.84788690  0.77215026  0.44637709  1
  O2-  O197  1  0.87727240  0.75662649  0.96207830  1
  O2-  O198  1  0.08863704  0.10261647  0.04805836  1
  O2-  O199  1  0.10716655  0.23083435  0.44880611  1
  O2-  O200  1  0.12041634  0.58338649  -0.07491232  1
  O2-  O201  1  0.28145373  0.65902906  0.64575234  1
  O2-  O202  1  0.08316301  0.88646339  0.04054622  1
  O2-  O203  1  0.09028554  0.88874535  0.46038969  1
  O2-  O204  1  0.46360245  0.23749014  0.01979662  1
  O2-  O205  1  0.41803986  0.24517578  0.51078397  1
  O2-  O206  1  0.46183980  0.57035109  0.02283129  1
  O2-  O207  1  0.47422656  0.57466753  0.51090656  1
  O2-  O208  1  0.45828505  0.90063370  0.03254640  1
  O2-  O209  1  0.41576566  0.91804138  0.57648862  1
  O2-  O210  1  0.81332035  0.22927829  0.00753814  1
  O2-  O211  1  0.74266255  0.21651274  0.55107620  1
  O2-  O212  1  0.77934385  0.54616581  0.00384518  1
  O2-  O213  1  0.76762908  0.56325017  0.53221347  1
  O2-  O214  1  0.78646757  0.88124528  0.02322602  1
  O2-  O215  1  0.73956424  0.80013299  0.63464761  1
