# generated using pymatgen
data_H2O
_symmetry_space_group_name_H-M   'P 1'
_cell_length_a   13.53507087
_cell_length_b   13.51142185
_cell_length_c   14.66612184
_cell_angle_alpha   89.95983263
_cell_angle_beta   90.12874581
_cell_angle_gamma   120.08106501
_symmetry_Int_Tables_number   1
_chemical_formula_structural   H2O
_chemical_formula_sum   'H144 O72'
_cell_volume   2320.87109364
_cell_formula_units_Z   72
loop_
 _symmetry_equiv_pos_site_id
 _symmetry_equiv_pos_as_xyz
  1  'x, y, z'
loop_
 _atom_type_symbol
 _atom_type_oxidation_number
  H+  1.0
  O2-  -2.0
loop_
 _atom_site_type_symbol
 _atom_site_label
 _atom_site_symmetry_multiplicity
 _atom_site_fract_x
 _atom_site_fract_y
 _atom_site_fract_z
 _atom_site_occupancy
  H+  H0  1  0.62410324  0.46642719  0.75323523  1
  H+  H1  1  -0.02265549  0.83743481  0.48702607  1
  H+  H2  1  0.81775796  0.84170930  0.73166055  1
  H+  H3  1  0.81799487  0.63874616  0.75123055  1
  H+  H4  1  0.16619806  -0.01883118  0.99499439  1
  H+  H5  1  0.63561213  0.15479163  -0.02014091  1
  H+  H6  1  0.83565103  0.51951468  0.25768861  1
  H+  H7  1  0.77237191  0.88604290  0.59589021  1
  H+  H8  1  0.19912464  0.15857750  0.95230393  1
  H+  H9  1  0.50332907  0.46114538  0.74530887  1
  H+  H10  1  0.19327989  0.49410110  0.55865963  1
  H+  H11  1  0.21427397  0.53208186  0.51740713  1
  H+  H12  1  0.84992558  0.82928641  0.25291381  1
  H+  H13  1  0.12595785  0.91474254  0.09144665  1
  H+  H14  1  -0.13877599  0.13832309  0.74045862  1
  H+  H15  1  0.11635044  0.15613118  0.53350124  1
  H+  H16  1  0.83310736  0.54038191  0.01253095  1
  H+  H17  1  0.28974962  0.30886153  0.46756725  1
  H+  H18  1  0.82470611  -0.13621547  1.00829928  1
  H+  H19  1  0.68412598  0.53203480  0.46828532  1
  H+  H20  1  0.51962430  0.81786265  0.99329446  1
  H+  H21  1  0.04946664  0.16930750  0.74857850  1
  H+  H22  1  0.09612533  0.16973135  0.18264360  1
  H+  H23  1  0.29587280  0.45754347  0.74624914  1
  H+  H24  1  0.52807385  0.04395069  0.74870017  1
  H+  H25  1  0.81326645  -0.04284749  0.73525372  1
  H+  H26  1  0.03864143  0.87268914  0.23304094  1
  H+  H27  1  0.47782279  0.63326627  0.23434210  1
  H+  H28  1  0.62412667  0.81089981  0.25461065  1
  H+  H29  1  0.80652083  0.18550434  0.00740564  1
  H+  H30  1  0.50480327  0.14772518  0.50666554  1
  H+  H31  1  0.13323679  0.55163389  0.23444351  1
  H+  H32  1  0.15735022  0.87320865  0.23470554  1
  H+  H33  1  0.25544813  0.12958700  0.42541857  1
  H+  H34  1  0.95157396  0.15140323  0.50293182  1
  H+  H35  1  0.80054823  0.95985891  0.24405051  1
  H+  H36  1  0.56540995  0.11867297  -0.11617597  1
  H+  H37  1  0.70184981  0.53659472  0.24782969  1
  H+  H38  1  0.37501879  0.19521630  0.25927325  1
  H+  H39  1  0.53832765  0.16444951  0.73482067  1
  H+  H40  1  0.52416186  0.49600975  0.25932042  1
  H+  H41  1  0.19804372  0.03752417  0.27766709  1
  H+  H42  1  0.82352590  0.65846284  0.24673800  1
  H+  H43  1  0.67585695  0.17816847  0.49341215  1
  H+  H44  1  0.15737787  0.96528848  0.73415651  1
  H+  H45  1  0.48425621  -0.03071985  0.50715547  1
  H+  H46  1  0.48357010  0.61198877  0.75004826  1
  H+  H47  1  0.37057480  0.50319674  0.51044267  1
  H+  H48  1  0.90055143  0.80268002  0.34273534  1
  H+  H49  1  0.36970605  0.51599708  0.99261327  1
  H+  H50  1  0.52104140  0.69916651  -0.00555183  1
  H+  H51  1  0.86495098  0.72243387  0.98840005  1
  H+  H52  1  0.55729812  0.45334483  0.35068575  1
  H+  H53  1  0.79113926  0.30068236  0.48600628  1
  H+  H54  1  0.48785449  0.29636190  0.68935987  1
  H+  H55  1  0.95996863  0.51518509  0.25779441  1
  H+  H56  1  -0.01927542  0.84238969  -0.01538948  1
  H+  H57  1  0.93441480  0.49246625  0.48660196  1
  H+  H58  1  0.36934219  0.86363122  0.23424052  1
  H+  H59  1  0.50958274  0.16058166  0.26517282  1
  H+  H60  1  0.50729723  0.48159750  0.50090079  1
  H+  H61  1  0.83987089  0.36390680  1.00357251  1
  H+  H62  1  0.99953921  0.50324371  1.01524014  1
  H+  H63  1  0.15534594  0.31584578  -0.03728657  1
  H+  H64  1  0.32809287  0.16941567  0.52197560  1
  H+  H65  1  0.49731235  0.45519823  -0.02558210  1
  H+  H66  1  0.79397216  0.16451756  0.23574637  1
  H+  H67  1  0.49293615  0.31148426  0.24839895  1
  H+  H68  1  0.48860086  -0.02817552  0.99961778  1
  H+  H69  1  0.80693575  0.97196232  0.51017659  1
  H+  H70  1  0.78739638  0.21289505  0.62715409  1
  H+  H71  1  0.52859196  0.41087696  0.88157261  1
  H+  H72  1  0.63273916  0.81435146  0.48800611  1
  H+  H73  1  0.72627885  0.18600449  0.72168014  1
  H+  H74  1  0.44559518  0.89851315  0.65193380  1
  H+  H75  1  0.19019932  0.44435844  0.30571660  1
  H+  H76  1  0.48949155  0.85158535  0.50638111  1
  H+  H77  1  0.17372809  0.98110488  0.51640987  1
  H+  H78  1  0.50968401  0.04045098  0.26465909  1
  H+  H79  1  0.84717868  0.48390730  0.78184506  1
  H+  H80  1  0.04923217  0.65079531  0.56768534  1
  H+  H81  1  0.47819269  0.63460291  0.50836001  1
  H+  H82  1  0.17886952  0.70161599  -0.00341438  1
  H+  H83  1  0.85929831  0.84154348  0.48768761  1
  H+  H84  1  0.37146799  0.86274279  0.74185143  1
  H+  H85  1  0.18111728  0.80683689  0.76001498  1
  H+  H86  1  0.36181413  0.16434160  0.97845633  1
  H+  H87  1  0.18900128  0.15305598  0.74059116  1
  H+  H88  1  0.77114955  0.88900285  0.14990004  1
  H+  H89  1  0.17237287  0.86324151  0.50094526  1
  H+  H90  1  0.70197425  0.85541712  0.01020778  1
  H+  H91  1  0.48984251  0.16948568  -0.01855119  1
  H+  H92  1  0.07425034  0.56086044  0.61168489  1
  H+  H93  1  0.14034160  0.49521438  0.73884095  1
  H+  H94  1  0.18637095  0.14492641  0.29372590  1
  H+  H95  1  0.18082887  0.72867017  0.25138041  1
  H+  H96  1  0.21072821  0.51238998  0.93786524  1
  H+  H97  1  0.96000942  0.47460373  0.77996536  1
  H+  H98  1  0.84429002  0.03784327  0.98954875  1
  H+  H99  1  0.36948917  0.50618125  0.23875803  1
  H+  H100  1  0.18638036  0.82351040  0.99322034  1
  H+  H101  1  0.96016285  0.15668402  0.97532168  1
  H+  H102  1  -0.02684893  0.81515941  0.75612701  1
  H+  H103  1  0.19821025  0.71003341  0.47893557  1
  H+  H104  1  0.94603005  0.13155252  0.27182714  1
  H+  H105  1  0.17548529  0.32715868  0.74914088  1
  H+  H106  1  0.63217322  0.78959772  0.75969654  1
  H+  H107  1  0.30572060  0.14524538  0.72539652  1
  H+  H108  1  0.53331490  0.11306521  0.40544619  1
  H+  H109  1  0.13701977  0.24697456  0.05125473  1
  H+  H110  1  0.37024408  0.85437227  0.00797875  1
  H+  H111  1  0.82090435  0.49720046  0.45957976  1
  H+  H112  1  0.44073590  0.54460190  0.08651282  1
  H+  H113  1  0.22898729  0.43668771  0.86252635  1
  H+  H114  1  0.23778457  0.11045689  0.86779118  1
  H+  H115  1  0.23439177  0.80302240  0.34139095  1
  H+  H116  1  0.87706627  0.09899430  0.83946601  1
  H+  H117  1  0.14481871  0.27374607  0.25485642  1
  H+  H118  1  0.75897856  0.21301554  0.09933156  1
  H+  H119  1  0.22276084  0.77263791  0.85009421  1
  H+  H120  1  0.55201277  0.77440721  0.39898391  1
  H+  H121  1  0.51475141  0.36555163  0.50935458  1
  H+  H122  1  0.48075466  0.29635633  -0.01912850  1
  H+  H123  1  0.80670587  0.65424402  0.46398871  1
  H+  H124  1  0.14815521  0.61761893  0.75076160  1
  H+  H125  1  0.24542283  0.38725663  0.36431911  1
  H+  H126  1  0.10007442  0.20976443  0.62713032  1
  H+  H127  1  0.68302377  0.17587348  0.23871857  1
  H+  H128  1  0.08597130  0.57696299  0.14456918  1
  H+  H129  1  0.44330428  0.54599681  0.65434606  1
  H+  H130  1  0.83436270  0.15425035  0.48743638  1
  H+  H131  1  0.86612921  0.09832188  0.35796495  1
  H+  H132  1  0.89722718  0.78772314  0.84673097  1
  H+  H133  1  0.11538640  0.49805009  0.04057747  1
  H+  H134  1  0.45283962  0.90121666  0.14831308  1
  H+  H135  1  0.79512879  0.58651852  0.09633559  1
  H+  H136  1  0.18500459  0.31241938  0.50237874  1
  H+  H137  1  0.87590656  0.46299629  0.35145475  1
  H+  H138  1  0.50872866  0.81613373  0.25564370  1
  H+  H139  1  0.32204782  0.82458762  0.48259852  1
  H+  H140  1  0.56021410  0.75748721  0.85163721  1
  H+  H141  1  0.88552962  0.44484836  0.91251105  1
  H+  H142  1  0.78451071  0.55572533  0.66624713  1
  H+  H143  1  0.11796546  0.88301381  0.64861850  1
  O2-  O144  1  0.09375924  0.18904405  0.24615471  1
  O2-  O145  1  0.12595288  0.21346408  0.72068568  1
  O2-  O146  1  0.09050246  0.58799687  0.21421522  1
  O2-  O147  1  0.10041102  0.53878910  0.72538452  1
  O2-  O148  1  0.11973330  0.91614206  0.21179922  1
  O2-  O149  1  0.11481350  0.88212825  0.71656432  1
  O2-  O150  1  0.45082353  0.23015275  0.22964014  1
  O2-  O151  1  0.45069595  0.21592166  0.66557734  1
  O2-  O152  1  0.44543685  0.55295873  0.21067486  1
  O2-  O153  1  0.43887953  0.53237658  0.72130729  1
  O2-  O154  1  0.45115360  0.89863253  0.21646735  1
  O2-  O155  1  0.44963296  0.91154264  0.71852741  1
  O2-  O156  1  0.75798242  0.20526876  0.20768087  1
  O2-  O157  1  0.80082325  0.20961334  0.69318266  1
  O2-  O158  1  0.78321849  0.57633936  0.22473529  1
  O2-  O159  1  0.77476699  0.55535151  0.73209636  1
  O2-  O160  1  0.76518437  0.88040349  0.21811231  1
  O2-  O161  1  0.77290359  0.87702613  0.70953535  1
  O2-  O162  1  0.23656817  0.11357286  0.30919768  1
  O2-  O163  1  0.23229065  0.10860801  0.75856339  1
  O2-  O164  1  0.23338184  0.40508623  0.29816239  1
  O2-  O165  1  0.21512579  0.41752874  0.76889786  1
  O2-  O166  1  0.22965683  0.80827427  0.27332352  1
  O2-  O167  1  0.22000516  0.76524632  0.78256631  1
  O2-  O168  1  0.54760131  0.11823577  0.29198638  1
  O2-  O169  1  0.57390061  0.12706333  0.76867211  1
  O2-  O170  1  0.56828734  0.46047951  0.28348310  1
  O2-  O171  1  0.54101163  0.41525896  0.76345527  1
  O2-  O172  1  0.54361099  0.77017050  0.27771407  1
  O2-  O173  1  0.55585784  0.73817558  0.78619059  1
  O2-  O174  1  0.86468391  0.09330769  0.28943816  1
  O2-  O175  1  0.88941115  0.09189729  0.77368836  1
  O2-  O176  1  0.87889697  0.47359895  0.28010505  1
  O2-  O177  1  0.88505259  0.44521461  0.81014808  1
  O2-  O178  1  0.89768319  0.79569609  0.27459852  1
  O2-  O179  1  0.89268389  0.77620967  0.77877008  1
  O2-  O180  1  0.24884352  0.13662216  0.49260123  1
  O2-  O181  1  0.23598096  0.11316609  0.93749519  1
  O2-  O182  1  0.25880570  0.36102796  0.46569989  1
  O2-  O183  1  0.23415736  0.45498835  0.93558450  1
  O2-  O184  1  0.24142200  0.78869501  0.45554905  1
  O2-  O185  1  0.22492952  0.78027719  0.97298919  1
  O2-  O186  1  0.53751466  0.10515571  0.47364810  1
  O2-  O187  1  0.55639488  0.11272407  0.95235368  1
  O2-  O188  1  0.54136740  0.43761699  0.47342841  1
  O2-  O189  1  0.52516880  0.40509695  0.94967860  1
  O2-  O190  1  0.55100325  0.77315139  0.46707116  1
  O2-  O191  1  0.56358473  0.78035471  0.97395978  1
  O2-  O192  1  0.87508092  0.11134662  0.47229792  1
  O2-  O193  1  0.87735774  0.11637187  0.96257017  1
  O2-  O194  1  0.86227983  0.45083131  0.45107532  1
  O2-  O195  1  0.88627379  0.44604721  0.98327958  1
  O2-  O196  1  0.89995249  0.80368218  0.45995047  1
  O2-  O197  1  0.90018430  0.80286883  0.96280342  1
  O2-  O198  1  0.12011020  0.23522036  -0.01359788  1
  O2-  O199  1  0.08562808  0.20495989  0.55342285  1
  O2-  O200  1  0.08599642  0.55083512  0.04161477  1
  O2-  O201  1  0.06074668  0.58745653  0.55121312  1
  O2-  O202  1  0.12496461  0.90403828  0.02392404  1
  O2-  O203  1  0.12869063  0.89718738  0.52829156  1
  O2-  O204  1  0.44306127  0.20708784  0.00347381  1
  O2-  O205  1  0.45721880  0.22832784  0.56317828  1
  O2-  O206  1  0.44781622  0.54883931  0.01893870  1
  O2-  O207  1  0.44634769  0.55681009  0.53650278  1
  O2-  O208  1  0.45133421  0.89476702  0.02886383  1
  O2-  O209  1  0.44442619  0.88726820  0.52776206  1
  O2-  O210  1  0.76397944  0.22319787  0.02999217  1
  O2-  O211  1  0.76013874  0.22121991  0.50782331  1
  O2-  O212  1  0.80608604  0.59366405  0.02982372  1
  O2-  O213  1  0.76700036  0.57046834  0.45360233  1
  O2-  O214  1  0.78236526  0.90079669  0.03380637  1
  O2-  O215  1  0.77230361  0.88920060  0.52705931  1
