# generated using pymatgen
data_H2O
_symmetry_space_group_name_H-M   'P 1'
_cell_length_a   13.51655554
_cell_length_b   13.51298746
_cell_length_c   14.69907836
_cell_angle_alpha   90.03796199
_cell_angle_beta   89.97616719
_cell_angle_gamma   119.93518570
_symmetry_Int_Tables_number   1
_chemical_formula_structural   H2O
_chemical_formula_sum   'H144 O72'
_cell_volume   2326.59783234
_cell_formula_units_Z   72
loop_
 _symmetry_equiv_pos_site_id
 _symmetry_equiv_pos_as_xyz
  1  'x, y, z'
loop_
 _atom_type_symbol
 _atom_type_oxidation_number
  H+  1.0
  O2-  -2.0
loop_
 _atom_site_type_symbol
 _atom_site_label
 _atom_site_symmetry_multiplicity
 _atom_site_fract_x
 _atom_site_fract_y
 _atom_site_fract_z
 _atom_site_occupancy
  H+  H0  1  0.51873270  0.16131760  0.50037973  1
  H+  H1  1  0.99991496  0.50030447  0.73342654  1
  H+  H2  1  0.49570261  0.35609948  1.01450291  1
  H+  H3  1  0.84187684  0.15541935  0.75146614  1
  H+  H4  1  0.19915640  0.66544020  0.76641419  1
  H+  H5  1  0.50962800  0.87026081  0.74584319  1
  H+  H6  1  0.56090215  0.11190727  0.89557892  1
  H+  H7  1  0.75692017  0.82043269  0.21536597  1
  H+  H8  1  0.19910205  0.36692160  0.49353866  1
  H+  H9  1  0.29149505  0.47471146  0.98267888  1
  H+  H10  1  0.51720029  0.48635277  0.49692893  1
  H+  H11  1  0.84720627  0.47731456  0.98061255  1
  H+  H12  1  0.38301235  0.58744877  0.72072078  1
  H+  H13  1  1.05355034  0.18508350  0.23892030  1
  H+  H14  1  0.20740919  0.82348293  0.47226688  1
  H+  H15  1  0.31000858  0.47440846  0.26003631  1
  H+  H16  1  0.85197993  0.83629015  -0.00678796  1
  H+  H17  1  0.01228938  0.95317031  0.67166200  1
  H+  H18  1  0.19156076  0.15390869  0.77167801  1
  H+  H19  1  0.19138701  0.47922575  0.27138562  1
  H+  H20  1  0.69754258  0.18780404  0.51190920  1
  H+  H21  1  0.15410436  0.98157321  0.00481924  1
  H+  H22  1  0.46351503  0.86988527  0.02958367  1
  H+  H23  1  0.68555186  0.17440401  0.27491726  1
  H+  H24  1  0.65198620  0.47408020  0.26544394  1
  H+  H25  1  0.12438144  0.98976605  0.72781053  1
  H+  H26  1  0.95908430  0.47716833  0.47878230  1
  H+  H27  1  0.81236816  0.63007981  0.99774738  1
  H+  H28  1  1.01970995  0.16585664  0.73379919  1
  H+  H29  1  0.13311191  0.62117284  0.99672958  1
  H+  H30  1  0.11565382  0.89956928  0.56955261  1
  H+  H31  1  0.89009502  0.83595841  0.24880364  1
  H+  H32  1  0.45821342  0.06137449  0.96490847  1
  H+  H33  1  0.87543596  0.03899409  0.27531866  1
  H+  H34  1  0.35904511  0.17038276  0.76526694  1
  H+  H35  1  0.49033926  0.07509256  0.25764537  1
  H+  H36  1  0.98269843  0.16102428  -0.02329730  1
  H+  H37  1  0.64926779  0.16561292  0.76295946  1
  H+  H38  1  0.49297738  0.92137425  0.27455203  1
  H+  H39  1  0.27890417  0.44227292  0.75277222  1
  H+  H40  1  0.15071323  0.30538378  0.99806688  1
  H+  H41  1  0.14739029  0.62519876  0.27271604  1
  H+  H42  1  0.17623655  0.48324401  0.97682191  1
  H+  H43  1  0.71979225  0.92039902  0.02977988  1
  H+  H44  1  0.15413623  0.83728608  0.23008641  1
  H+  H45  1  0.14357638  0.50000005  0.51007936  1
  H+  H46  1  0.51072286  0.46275216  0.73899054  1
  H+  H47  1  0.03855611  0.18488902  0.51055217  1
  H+  H48  1  0.84370840  0.03501551  0.75043191  1
  H+  H49  1  0.88433706  0.77205736  0.85872595  1
  H+  H50  1  0.33755418  0.85679317  -0.01770631  1
  H+  H51  1  0.83406672  0.53732976  0.49771827  1
  H+  H52  1  0.21874807  0.17528814  0.23330690  1
  H+  H53  1  0.71304197  0.85337218  0.73632803  1
  H+  H54  1  0.38641320  0.84934335  0.76121376  1
  H+  H55  1  0.68349715  0.85162257  0.51111106  1
  H+  H56  1  0.02851985  0.49930358  -0.00125437  1
  H+  H57  1  0.38189612  0.53712713  0.51236462  1
  H+  H58  1  0.50011287  0.85368259  0.50012964  1
  H+  H59  1  0.22583860  0.10605830  0.86343911  1
  H+  H60  1  0.62243537  0.82265339  0.26785510  1
  H+  H61  1  0.56119799  0.99262267  0.01624769  1
  H+  H62  1  0.80849172  0.49149880  0.73391064  1
  H+  H63  1  0.16330168  0.84154721  0.69732239  1
  H+  H64  1  -0.03930856  0.46760680  0.22536634  1
  H+  H65  1  0.49841085  -0.02566625  0.49505300  1
  H+  H66  1  0.52977252  1.04025230  0.76892541  1
  H+  H67  1  0.18396344  0.14223378  -0.01806299  1
  H+  H68  1  0.20600310  0.82855311  0.71894524  1
  H+  H69  1  0.50422814  0.66548429  0.51568364  1
  H+  H70  1  0.82828187  0.82384109  0.47005586  1
  H+  H71  1  0.52340342  0.44030455  0.26730751  1
  H+  H72  1  0.95352130  0.80656447  0.76436133  1
  H+  H73  1  0.84369337  0.35797652  0.24684129  1
  H+  H74  1  0.16673144  0.30563388  0.23463623  1
  H+  H75  1  0.33266966  0.79836101  0.98071770  1
  H+  H76  1  0.82287767  0.51627195  0.21220690  1
  H+  H77  1  0.12537769  0.80783327  0.97679441  1
  H+  H78  1  0.84710849  0.35980299  -0.01933423  1
  H+  H79  1  0.46612005  0.49089147  0.01959205  1
  H+  H80  1  0.07866798  0.52815174  0.34373764  1
  H+  H81  1  0.23272387  0.77862036  0.34835998  1
  H+  H82  1  0.48370274  0.29889229  0.51746528  1
  H+  H83  1  0.68135003  0.21168353  0.04577691  1
  H+  H84  1  0.49801455  0.59766008  0.24398347  1
  H+  H85  1  0.38198164  0.21269512  0.15761833  1
  H+  H86  1  0.32862126  0.82784014  0.46752739  1
  H+  H87  1  0.96909481  0.83451453  0.99664532  1
  H+  H88  1  0.82583487  0.84678154  0.74438697  1
  H+  H89  1  0.64322389  0.75371154  0.97580203  1
  H+  H90  1  0.56339491  0.80604799  0.99254867  1
  H+  H91  1  0.84719074  0.01260651  0.99801432  1
  H+  H92  1  0.45671730  0.18547874  0.04164388  1
  H+  H93  1  0.17493132  0.97663198  0.48427402  1
  H+  H94  1  0.81796639  0.19021352  0.51608003  1
  H+  H95  1  0.84228517  0.71126871  0.47752299  1
  H+  H96  1  0.29276128  0.80561413  0.24757961  1
  H+  H97  1  0.48828864  0.75325802  0.27727607  1
  H+  H98  1  0.81807899  0.31672642  0.73959023  1
  H+  H99  1  0.32620946  0.16404805  0.00970316  1
  H+  H100  1  0.83786055  0.37020933  0.48045952  1
  H+  H101  1  0.79853952  0.60668801  0.74362900  1
  H+  H102  1  0.19196224  0.15807592  0.47125633  1
  H+  H103  1  0.11629956  0.49215250  0.73263922  1
  H+  H104  1  0.11551429  0.22739086  0.08775484  1
  H+  H105  1  0.37148266  0.17979553  0.50501446  1
  H+  H106  1  0.84830076  0.03711517  0.50117443  1
  H+  H107  1  0.48878450  0.30536983  0.75201192  1
  H+  H108  1  0.13480235  0.28292981  0.73867275  1
  H+  H109  1  0.82458993  0.63589967  0.22828918  1
  H+  H110  1  0.61813148  0.47155822  1.00356699  1
  H+  H111  1  0.48986136  0.17490384  0.76350016  1
  H+  H112  1  0.90328568  0.11937676  0.41602722  1
  H+  H113  1  0.50096145  0.19583079  0.27304997  1
  H+  H114  1  0.24538952  0.13332197  0.38172947  1
  H+  H115  1  0.56103353  0.43820205  0.41587121  1
  H+  H116  1  0.77963780  0.55639670  0.08769963  1
  H+  H117  1  0.53870839  0.70690727  0.74343466  1
  H+  H118  1  0.45095822  0.57366727  0.63405868  1
  H+  H119  1  0.03687239  0.83418451  0.23421622  1
  H+  H120  1  0.78096951  0.89443141  0.59164441  1
  H+  H121  1  0.75438862  0.18446644  0.18632472  1
  H+  H122  1  0.46367239  0.60740360  0.01750919  1
  H+  H123  1  0.86239228  0.14757765  0.28147806  1
  H+  H124  1  0.56570095  0.77245696  0.42066616  1
  H+  H125  1  0.20964523  0.42992664  0.84384181  1
  H+  H126  1  0.88015320  0.44056218  0.82740121  1
  H+  H127  1  0.63210436  0.46416832  0.74136616  1
  H+  H128  1  0.77071122  0.22568139  0.65460500  1
  H+  H129  1  0.43904994  0.52523221  0.15457573  1
  H+  H130  1  0.80208780  0.91983071  0.14252058  1
  H+  H131  1  0.89726272  0.11622797  0.88831441  1
  H+  H132  1  0.11150613  0.89488521  0.09557583  1
  H+  H133  1  0.12081160  0.21580667  0.59521718  1
  H+  H134  1  0.05652187  0.70521356  0.90841505  1
  H+  H135  1  0.49427992  0.92740568  0.16648121  1
  H+  H136  1  0.23724406  0.44212536  0.40402217  1
  H+  H137  1  0.77744497  0.31033761  0.10676546  1
  H+  H138  1  0.55910425  0.13630861  0.40627990  1
  H+  H139  1  0.78841447  0.56573319  0.58828682  1
  H+  H140  1  0.22904296  0.74256418  0.85337986  1
  H+  H141  1  0.88156033  0.77524099  0.34498921  1
  H+  H142  1  0.57320926  0.77186695  0.83776885  1
  H+  H143  1  0.09089762  0.53530815  0.59261073  1
  O2-  O144  1  0.12950564  0.22584185  0.20883281  1
  O2-  O145  1  0.10249626  0.20275602  0.71621415  1
  O2-  O146  1  0.10169979  0.53879065  0.27972364  1
  O2-  O147  1  0.08710480  0.54277124  0.71433313  1
  O2-  O148  1  0.11324062  0.87568812  0.20545315  1
  O2-  O149  1  0.06142980  0.92481798  0.69363060  1
  O2-  O150  1  0.38162699  0.22116382  0.22717684  1
  O2-  O151  1  0.44323598  0.21242045  0.74535481  1
  O2-  O152  1  0.44479667  0.52006802  0.22236618  1
  O2-  O153  1  0.44439671  0.57150980  0.70747815  1
  O2-  O154  1  0.45178709  0.92595722  0.22184661  1
  O2-  O155  1  0.46478255  0.90964108  0.74374584  1
  O2-  O156  1  0.76055380  0.18707764  0.25344301  1
  O2-  O157  1  0.77305191  0.22715155  0.72295418  1
  O2-  O158  1  0.78056680  0.55810826  0.20073130  1
  O2-  O159  1  0.76027020  0.53043737  0.71520807  1
  O2-  O160  1  0.79070990  0.90302346  0.21043901  1
  O2-  O161  1  0.79546992  0.89415745  0.71750044  1
  O2-  O162  1  0.26437513  0.13853890  0.25385790  1
  O2-  O163  1  0.22882247  0.10990985  0.79128841  1
  O2-  O164  1  0.22971554  0.43379864  0.28360705  1
  O2-  O165  1  0.20254592  0.42025894  0.77508616  1
  O2-  O166  1  0.21759854  0.76445669  0.27636306  1
  O2-  O167  1  0.26486889  0.72569224  0.80181555  1
  O2-  O168  1  0.54022349  0.15140201  0.28353720  1
  O2-  O169  1  0.56835985  0.12307000  0.79115436  1
  O2-  O170  1  0.57872534  0.42351136  0.29665748  1
  O2-  O171  1  0.54779668  0.42133631  0.76171748  1
  O2-  O172  1  0.55761284  0.74948723  0.28705364  1
  O2-  O173  1  0.57920772  0.78508826  0.77149405  1
  O2-  O174  1  0.91568905  0.11899351  0.29593159  1
  O2-  O175  1  0.88427156  0.11557222  0.77259064  1
  O2-  O176  1  0.87857672  0.42616453  0.20766219  1
  O2-  O177  1  0.87691724  0.43755560  0.76057625  1
  O2-  O178  1  0.89450968  0.77164749  0.27432363  1
  O2-  O179  1  0.87675570  0.75919976  0.79142460  1
  O2-  O180  1  0.23429392  0.12051576  0.44796650  1
  O2-  O181  1  0.22694095  0.10364591  0.96455280  1
  O2-  O182  1  0.23851936  0.44757228  0.47165193  1
  O2-  O183  1  0.21468237  0.43950924  0.95330836  1
  O2-  O184  1  0.24712777  0.78608325  0.44345775  1
  O2-  O185  1  0.12811178  0.74362231  0.94177711  1
  O2-  O186  1  0.56420057  0.12633259  0.47226184  1
  O2-  O187  1  0.54129626  0.09666727  0.96435647  1
  O2-  O188  1  0.54411156  0.43247703  0.48195518  1
  O2-  O189  1  0.53539212  0.43586643  0.99125271  1
  O2-  O190  1  0.56377761  0.78020430  0.48654792  1
  O2-  O191  1  0.56854270  0.74425666  0.96072598  1
  O2-  O192  1  0.89727125  0.12046503  0.48333118  1
  O2-  O193  1  0.90058256  0.11667711  0.95634873  1
  O2-  O194  1  0.88157824  0.44577471  0.45071124  1
  O2-  O195  1  0.88880914  0.43857830  0.95756366  1
  O2-  O196  1  0.86480011  0.78311326  0.44198862  1
  O2-  O197  1  0.88692310  0.79045916  0.97440579  1
  O2-  O198  1  0.11110221  0.22452585  0.02019081  1
  O2-  O199  1  0.12158076  0.22221757  0.52760743  1
  O2-  O200  1  0.11009747  0.54318631  0.01770384  1
  O2-  O201  1  0.08891190  0.52580200  0.52539434  1
  O2-  O202  1  0.10325237  0.89830436  0.02724532  1
  O2-  O203  1  0.14247405  0.89789567  0.50803959  1
  O2-  O204  1  0.40594109  0.21599443  0.05150368  1
  O2-  O205  1  0.44725159  0.21582423  0.53451355  1
  O2-  O206  1  0.42000274  0.52893663  0.04107233  1
  O2-  O207  1  0.46024212  0.57716324  0.53824484  1
  O2-  O208  1  0.54369684  0.91934295  0.04784724  1
  O2-  O209  1  0.45229552  0.89169487  0.50785526  1
  O2-  O210  1  0.75828286  0.24153043  0.07082437  1
  O2-  O211  1  0.77679599  0.22934388  0.53809639  1
  O2-  O212  1  0.77608418  0.55016322  0.01918642  1
  O2-  O213  1  0.81351375  0.59186988  0.52561809  1
  O2-  O214  1  0.79613936  0.93001406  0.03291766  1
  O2-  O215  1  0.77250180  0.90148286  0.52559972  1
