# generated using pymatgen
data_H2O
_symmetry_space_group_name_H-M   'P 1'
_cell_length_a   13.48484901
_cell_length_b   13.50878665
_cell_length_c   14.69076866
_cell_angle_alpha   89.93059096
_cell_angle_beta   90.11514579
_cell_angle_gamma   119.91450040
_symmetry_Int_Tables_number   1
_chemical_formula_structural   H2O
_chemical_formula_sum   'H144 O72'
_cell_volume   2319.58459058
_cell_formula_units_Z   72
loop_
 _symmetry_equiv_pos_site_id
 _symmetry_equiv_pos_as_xyz
  1  'x, y, z'
loop_
 _atom_type_symbol
 _atom_type_oxidation_number
  H+  1.0
  O2-  -2.0
loop_
 _atom_site_type_symbol
 _atom_site_label
 _atom_site_symmetry_multiplicity
 _atom_site_fract_x
 _atom_site_fract_y
 _atom_site_fract_z
 _atom_site_occupancy
  H+  H0  1  0.63236002  0.83936082  0.76615017  1
  H+  H1  1  0.05335844  0.17735731  0.24382690  1
  H+  H2  1  0.36147044  0.49831463  0.22834911  1
  H+  H3  1  0.71633618  0.85301572  0.22696407  1
  H+  H4  1  0.48379990  0.52683097  0.50234594  1
  H+  H5  1  0.55023526  0.48019640  0.71389547  1
  H+  H6  1  0.18502671  0.81764734  0.26591732  1
  H+  H7  1  0.47950665  0.53698321  0.79014504  1
  H+  H8  1  0.48990980  0.98547411  0.00410870  1
  H+  H9  1  0.43098689  0.89879283  0.08622236  1
  H+  H10  1  0.68639543  0.50968508  0.24518347  1
  H+  H11  1  0.84520806  0.58915783  0.72704566  1
  H+  H12  1  0.96534903  0.48391167  0.25111225  1
  H+  H13  1  0.72536804  0.86593678  0.01118697  1
  H+  H14  1  -0.01459827  0.47031379  0.76584459  1
  H+  H15  1  0.49766230  0.94377029  0.30078634  1
  H+  H16  1  0.18851260  0.99806373  0.01111298  1
  H+  H17  1  0.84573230  0.81224691  0.26393159  1
  H+  H18  1  0.30936853  0.16273949  0.98075108  1
  H+  H19  1  0.65082614  0.46056556  0.74166440  1
  H+  H20  1  0.42420885  0.59060153  0.89519813  1
  H+  H21  1  0.84743056  0.48616591  0.25490382  1
  H+  H22  1  0.35222326  0.52035206  0.97681668  1
  H+  H23  1  0.01608371  0.21766628  0.73021839  1
  H+  H24  1  0.61119516  0.46963952  0.48447031  1
  H+  H25  1  0.48125647  0.60810925  0.20942036  1
  H+  H26  1  0.82333463  0.80842069  0.49549798  1
  H+  H27  1  0.82338710  0.20114894  0.00069596  1
  H+  H28  1  0.87465929  0.52094731  0.47499416  1
  H+  H29  1  0.84655544  0.03079052  0.49996478  1
  H+  H30  1  0.19044182  0.14834027  0.29096448  1
  H+  H31  1  0.15273546  0.53029103  0.74153411  1
  H+  H32  1  0.08559518  0.53001262  0.65161053  1
  H+  H33  1  0.16019908  0.29756745  0.50331808  1
  H+  H34  1  0.13708999  0.97048750  0.73016820  1
  H+  H35  1  0.81377584  0.87980244  0.74578995  1
  H+  H36  1  0.28431226  0.13207895  0.74741286  1
  H+  H37  1  0.15125071  0.63519225  0.24477372  1
  H+  H38  1  0.27220953  0.81552599  0.50794447  1
  H+  H39  1  0.41461269  0.89394962  0.61478402  1
  H+  H40  1  0.45487801  0.85531064  0.52705992  1
  H+  H41  1  0.76114124  0.89255905  0.60024561  1
  H+  H42  1  0.50493998  0.15094604  0.48599938  1
  H+  H43  1  0.96565551  0.84292711  0.76207573  1
  H+  H44  1  0.33921652  0.84458201  0.74762246  1
  H+  H45  1  0.18391072  0.14926629  -0.01343028  1
  H+  H46  1  0.55276709  0.11861625  0.89501053  1
  H+  H47  1  0.62421485  0.13059260  0.25422073  1
  H+  H48  1  0.30206983  0.50628535  0.76278667  1
  H+  H49  1  0.93193811  0.81737562  0.91835352  1
  H+  H50  1  0.97506620  0.16391746  0.98658370  1
  H+  H51  1  0.79261577  0.28932221  0.72737403  1
  H+  H52  1  0.18403074  0.48330929  0.25671348  1
  H+  H53  1  0.53733336  0.83874512  0.00337252  1
  H+  H54  1  0.01463220  0.83456365  0.26861416  1
  H+  H55  1  0.50553768  0.46785054  0.25382734  1
  H+  H56  1  0.07638198  0.87967061  0.60717559  1
  H+  H57  1  0.85697102  1.04960945  -0.01335267  1
  H+  H58  1  0.17316746  0.46068903  0.49352809  1
  H+  H59  1  0.79605100  0.29438949  0.23552071  1
  H+  H60  1  0.83972198  0.74369340  0.78964945  1
  H+  H61  1  0.16706160  0.29785158  0.23621026  1
  H+  H62  1  0.87620593  1.03210345  0.26482574  1
  H+  H63  1  0.15585564  0.69707127  0.74638036  1
  H+  H64  1  0.67266054  0.15735283  0.50261336  1
  H+  H65  1  0.49850901  0.71824463  0.48495578  1
  H+  H66  1  0.21233481  0.09314264  0.83917055  1
  H+  H67  1  0.79347382  0.62210166  0.50851754  1
  H+  H68  1  0.98746481  0.82869432  0.51042533  1
  H+  H69  1  0.30325781  0.48658350  0.49030922  1
  H+  H70  1  0.82481530  0.15356526  0.75859142  1
  H+  H71  1  0.50005615  0.66043007  0.76274885  1
  H+  H72  1  0.80646678  0.16010590  0.50745176  1
  H+  H73  1  0.12397298  0.84361755  0.72683074  1
  H+  H74  1  0.51682859  0.35491833  0.26187746  1
  H+  H75  1  0.63766985  0.16389132  0.98132986  1
  H+  H76  1  0.46054483  0.84619622  0.75475102  1
  H+  H77  1  0.17697641  0.39221325  0.75167885  1
  H+  H78  1  1.00513188  0.84221461  1.01009134  1
  H+  H79  1  0.80561094  -0.00848081  0.73795325  1
  H+  H80  1  0.48709574  0.31444048  -0.00066845  1
  H+  H81  1  0.84991692  0.87570085  0.01134849  1
  H+  H82  1  0.15320032  0.69667732  0.49654634  1
  H+  H83  1  0.82680824  0.66138939  1.01549710  1
  H+  H84  1  0.66744542  0.17345515  0.72889815  1
  H+  H85  1  0.70315359  0.54689966  0.00306623  1
  H+  H86  1  0.51444705  0.49664624  0.95875326  1
  H+  H87  1  0.49326560  1.02873205  0.50024765  1
  H+  H88  1  0.48764119  0.19635436  -0.00196586  1
  H+  H89  1  0.53041231  0.71813868  0.99103393  1
  H+  H90  1  0.82430977  0.46654955  0.73736385  1
  H+  H91  1  0.16993568  0.18813219  0.52387419  1
  H+  H92  1  0.01301147  0.38090725  0.56537980  1
  H+  H93  1  0.47369181  0.28916035  0.72011990  1
  H+  H94  1  0.96651780  0.15062139  0.50267873  1
  H+  H95  1  0.17491390  1.02566575  0.30593740  1
  H+  H96  1  0.49876600  0.02735816  0.75786796  1
  H+  H97  1  1.02988479  0.53179479  1.01581838  1
  H+  H98  1  0.48480758  0.17197685  0.23275773  1
  H+  H99  1  0.49859249  0.14508991  0.74584216  1
  H+  H100  1  0.15284900  0.64253851  1.00545391  1
  H+  H101  1  0.15091261  0.29449107  1.01363152  1
  H+  H102  1  0.91862654  0.35866819  0.82840122  1
  H+  H103  1  0.00598033  0.48043473  0.50856535  1
  H+  H104  1  0.19647569  0.83241996  -0.02127798  1
  H+  H105  1  0.68391599  0.85975584  0.50986692  1
  H+  H106  1  0.84625014  0.50949032  1.00002831  1
  H+  H107  1  0.52849237  0.79755476  0.26987636  1
  H+  H108  1  0.55055281  0.10347533  0.34553280  1
  H+  H109  1  0.11737381  0.21238490  0.10052964  1
  H+  H110  1  0.44654980  0.29747193  0.49190786  1
  H+  H111  1  0.20674233  0.93344440  0.09569543  1
  H+  H112  1  0.22652418  0.44402613  0.34387266  1
  H+  H113  1  0.56719901  0.80350343  0.86216496  1
  H+  H114  1  0.10153926  0.24910921  0.64476331  1
  H+  H115  1  0.80799819  0.90439989  0.14749771  1
  H+  H116  1  0.58511482  0.73213291  0.31389282  1
  H+  H117  1  0.86448091  0.76669713  0.40675143  1
  H+  H118  1  0.45489274  0.22601708  0.14818170  1
  H+  H119  1  0.76646029  0.56165988  0.15675778  1
  H+  H120  1  0.92126820  0.48889132  0.38657818  1
  H+  H121  1  0.20268229  0.44192286  0.90344471  1
  H+  H122  1  0.83382214  0.68681444  0.26941622  1
  H+  H123  1  0.81826356  0.31799899  1.00732029  1
  H+  H124  1  0.08489598  0.89788878  0.18239801  1
  H+  H125  1  0.75475136  0.20327141  0.59702411  1
  H+  H126  1  0.45397556  0.57248003  0.59228843  1
  H+  H127  1  0.76659861  0.52758896  0.58487477  1
  H+  H128  1  0.42240023  0.20966746  0.63294260  1
  H+  H129  1  0.27659686  0.14095647  0.43106503  1
  H+  H130  1  0.88024205  0.12649194  0.84714826  1
  H+  H131  1  0.19682809  0.77830673  0.83472608  1
  H+  H132  1  0.89055371  0.46932509  0.91397120  1
  H+  H133  1  0.16993382  0.48078550  0.99558146  1
  H+  H134  1  0.51014802  0.81712826  0.41495646  1
  H+  H135  1  0.11706722  0.83476795  0.51248527  1
  H+  H136  1  0.37861339  0.82705016  0.30569312  1
  H+  H137  1  0.20616096  0.77217657  0.35733626  1
  H+  H138  1  0.75654519  0.22267031  0.14433796  1
  H+  H139  1  0.30709178  0.82323890  0.96428298  1
  H+  H140  1  0.53548242  0.43837794  0.39412293  1
  H+  H141  1  0.56718314  0.45050254  0.88528180  1
  H+  H142  1  0.91064611  0.11111417  0.35230654  1
  H+  H143  1  0.11577909  0.56273414  0.15268633  1
  O2-  O144  1  0.13261039  0.21706345  0.21608771  1
  O2-  O145  1  0.08622685  0.27901841  0.70159079  1
  O2-  O146  1  0.11111172  0.55581733  0.22025630  1
  O2-  O147  1  0.09805924  0.55510968  0.71720453  1
  O2-  O148  1  0.09550800  0.88012658  0.24484210  1
  O2-  O149  1  0.08565992  0.88718064  0.70499288  1
  O2-  O150  1  0.45898166  0.22602901  0.21521600  1
  O2-  O151  1  0.42930160  0.20849184  0.70068834  1
  O2-  O152  1  0.43844416  0.52480242  0.20122821  1
  O2-  O153  1  0.45671793  0.57605012  0.74586496  1
  O2-  O154  1  0.46167150  0.85999243  0.31731636  1
  O2-  O155  1  0.42193215  0.88692519  0.72991224  1
  O2-  O156  1  0.74739112  0.21658043  0.21111768  1
  O2-  O157  1  0.74857106  0.21132020  0.70218938  1
  O2-  O158  1  0.76844414  0.55588919  0.22401980  1
  O2-  O159  1  0.79155867  0.51055681  0.70941041  1
  O2-  O160  1  0.80024613  0.89383393  0.21510355  1
  O2-  O161  1  0.76636903  0.90893931  0.71770080  1
  O2-  O162  1  0.20779508  0.10184779  0.33356234  1
  O2-  O163  1  0.20584628  0.08587101  0.77186529  1
  O2-  O164  1  0.22607224  0.44359775  0.27621670  1
  O2-  O165  1  0.22168609  0.46928050  0.78365376  1
  O2-  O166  1  0.22206348  0.77564249  0.29131535  1
  O2-  O167  1  0.19324705  0.77860432  0.76641073  1
  O2-  O168  1  0.54467532  0.08112263  0.28102045  1
  O2-  O169  1  0.54346175  0.11088212  0.77290190  1
  O2-  O170  1  0.55073023  0.43589013  0.28526357  1
  O2-  O171  1  0.56963771  0.43639560  0.75623424  1
  O2-  O172  1  0.57467439  0.75957374  0.25522223  1
  O2-  O173  1  0.55461437  0.79411532  0.79461619  1
  O2-  O174  1  0.92403754  0.11154779  0.28674026  1
  O2-  O175  1  0.87474458  0.12315450  0.77870482  1
  O2-  O176  1  0.88712806  0.44580699  0.27834561  1
  O2-  O177  1  0.90739192  0.41558286  0.79572724  1
  O2-  O178  1  0.87582601  0.76636086  0.29609986  1
  O2-  O179  1  0.89615046  0.82333778  0.80100895  1
  O2-  O180  1  0.28964407  0.15713934  0.49916720  1
  O2-  O181  1  0.22710923  0.11200020  0.96215481  1
  O2-  O182  1  0.22499027  0.43678265  0.46548888  1
  O2-  O183  1  0.20818000  0.43930887  0.97103204  1
  O2-  O184  1  0.19264338  0.77783908  0.48068265  1
  O2-  O185  1  0.22441854  0.78482006  0.94839220  1
  O2-  O186  1  0.54464612  0.10701589  0.47456674  1
  O2-  O187  1  0.55471027  0.11988584  0.96276096  1
  O2-  O188  1  0.53078656  0.43863071  0.46361589  1
  O2-  O189  1  0.56293902  0.46061446  0.95137326  1
  O2-  O190  1  0.53512668  0.80216699  0.47501571  1
  O2-  O191  1  0.57979210  0.80122730  0.98008377  1
  O2-  O192  1  0.88462511  0.11375045  0.48315045  1
  O2-  O193  1  0.89482545  0.12969315  0.96279111  1
  O2-  O194  1  0.94369046  0.52309269  0.44944175  1
  O2-  O195  1  0.88879647  0.46918031  0.98091121  1
  O2-  O196  1  0.86368607  0.76655239  0.47598185  1
  O2-  O197  1  0.92647153  0.80628567  0.98542633  1
  O2-  O198  1  0.11237428  0.21282350  0.03169911  1
  O2-  O199  1  0.11790849  0.21951401  0.53124424  1
  O2-  O200  1  0.11240186  0.56520041  0.03286685  1
  O2-  O201  1  0.05697062  0.46220228  0.55082116  1
  O2-  O202  1  0.15937738  0.91886634  0.04148291  1
  O2-  O203  1  0.07093403  0.87086319  0.53504529  1
  O2-  O204  1  0.44450860  0.23392804  0.02012033  1
  O2-  O205  1  0.41465741  0.21589920  0.51427327  1
  O2-  O206  1  0.43442217  0.56979894  -0.04311190  1
  O2-  O207  1  0.44864234  0.57273165  0.52577708  1
  O2-  O208  1  0.44898027  0.90179579  0.02164408  1
  O2-  O209  1  0.41052984  0.89290363  0.54644060  1
  O2-  O210  1  0.77494565  0.23451478  0.01921897  1
  O2-  O211  1  0.75580752  0.19535388  0.52738170  1
  O2-  O212  1  0.77919500  0.57968084  0.03328601  1
  O2-  O213  1  0.75887552  0.53826981  0.51955469  1
  O2-  O214  1  0.80644768  0.91388869  0.03094003  1
  O2-  O215  1  0.76365288  0.88970535  0.53207886  1
