# generated using pymatgen
data_H2O
_symmetry_space_group_name_H-M   'P 1'
_cell_length_a   13.51642601
_cell_length_b   13.50882479
_cell_length_c   14.70551880
_cell_angle_alpha   90.01041492
_cell_angle_beta   90.08764367
_cell_angle_gamma   119.99022301
_symmetry_Int_Tables_number   1
_chemical_formula_structural   H2O
_chemical_formula_sum   'H144 O72'
_cell_volume   2325.58615479
_cell_formula_units_Z   72
loop_
 _symmetry_equiv_pos_site_id
 _symmetry_equiv_pos_as_xyz
  1  'x, y, z'
loop_
 _atom_type_symbol
 _atom_type_oxidation_number
  H+  1.0
  O2-  -2.0
loop_
 _atom_site_type_symbol
 _atom_site_label
 _atom_site_symmetry_multiplicity
 _atom_site_fract_x
 _atom_site_fract_y
 _atom_site_fract_z
 _atom_site_occupancy
  H+  H0  1  0.23223347  0.49422349  0.78630520  1
  H+  H1  1  0.30042579  0.80819336  0.75723346  1
  H+  H2  1  0.86172729  0.64802326  1.00040268  1
  H+  H3  1  0.62851433  0.14835739  0.26636366  1
  H+  H4  1  0.39795368  0.52443372  0.74428323  1
  H+  H5  1  0.83578792  0.65475780  0.72655001  1
  H+  H6  1  0.85845601  0.53730308  0.23575898  1
  H+  H7  1  0.83575743  0.16160820  0.49397331  1
  H+  H8  1  0.59850767  0.45162519  0.26099536  1
  H+  H9  1  0.31052353  0.80644427  0.99040429  1
  H+  H10  1  0.89602197  0.36536871  0.45413378  1
  H+  H11  1  0.79438653  0.86455124  0.03861812  1
  H+  H12  1  0.55063488  0.41318220  0.82280513  1
  H+  H13  1  0.85822240  0.83357764  0.27363149  1
  H+  H14  1  0.52124258  0.46297523  0.73542333  1
  H+  H15  1  0.76258287  0.57483946  0.23455954  1
  H+  H16  1  0.31107611  0.18558913  0.27893883  1
  H+  H17  1  0.50918932  0.14721754  0.26199657  1
  H+  H18  1  0.66018463  0.45831414  0.52549617  1
  H+  H19  1  0.47875180  0.13096262  0.48911103  1
  H+  H20  1  0.83864135  0.02322728  0.77945664  1
  H+  H21  1  0.80404519  0.18412136  0.74883181  1
  H+  H22  1  0.49927792  0.46419443  0.49704626  1
  H+  H23  1  0.14633388  0.50331090  0.23591188  1
  H+  H24  1  0.95634390  0.17076176  0.48664663  1
  H+  H25  1  0.49687143  -0.02363366  1.00263375  1
  H+  H26  1  0.49810451  0.13626611  0.75356980  1
  H+  H27  1  0.47946752  0.16986334  1.00926351  1
  H+  H28  1  0.89676291  0.45180036  0.33605030  1
  H+  H29  1  0.42235140  0.26783477  0.50073296  1
  H+  H30  1  0.47652493  0.95805443  0.74008428  1
  H+  H31  1  0.07568179  0.22356847  0.70879599  1
  H+  H32  1  0.36637562  0.51086039  0.50554550  1
  H+  H33  1  0.50416818  0.62423577  1.00229222  1
  H+  H34  1  0.50940395  0.64504435  0.73022635  1
  H+  H35  1  0.19881070  0.48492610  1.00692817  1
  H+  H36  1  0.62087234  0.14584178  0.75891959  1
  H+  H37  1  0.87260701  0.82286440  0.50854193  1
  H+  H38  1  0.63328548  0.15178879  0.98344500  1
  H+  H39  1  0.50304283  0.79721921  0.97393793  1
  H+  H40  1  0.13289405  0.64669948  0.73671134  1
  H+  H41  1  0.21842444  0.18120005  0.51526352  1
  H+  H42  1  0.94813392  0.14527237  0.80268417  1
  H+  H43  1  0.43896038  0.87948555  0.65053374  1
  H+  H44  1  0.77238334  0.22633485  0.10632478  1
  H+  H45  1  1.04521846  0.90584067  0.23491589  1
  H+  H46  1  -0.02095849  0.48127469  -0.00724588  1
  H+  H47  1  0.89374518  0.73848737  0.26388515  1
  H+  H48  1  0.47082055  0.28222340  0.72399800  1
  H+  H49  1  0.52012237  0.34609374  -0.03011838  1
  H+  H50  1  0.88950157  0.80790581  0.96594354  1
  H+  H51  1  0.47369911  0.96108048  0.51370367  1
  H+  H52  1  0.81728271  0.18740034  0.23875294  1
  H+  H53  1  0.79416225  0.52574739  0.50727219  1
  H+  H54  1  0.01222301  0.81598283  -0.02277513  1
  H+  H55  1  0.10737607  0.51999588  0.71865042  1
  H+  H56  1  0.51952197  0.90520869  0.07704955  1
  H+  H57  1  0.97518994  0.48391657  0.24706728  1
  H+  H58  1  0.18602387  0.36144631  0.48434538  1
  H+  H59  1  0.12510106  0.89358799  0.65294711  1
  H+  H60  1  0.81573761  0.30601864  0.23746014  1
  H+  H61  1  0.14857752  0.62444472  0.24485741  1
  H+  H62  1  0.52466733  0.82110064  0.75077946  1
  H+  H63  1  0.96114851  0.13257787  0.25883406  1
  H+  H64  1  0.70907070  0.85829842  0.74598846  1
  H+  H65  1  0.50168874  0.81428931  0.25146360  1
  H+  H66  1  0.18969229  0.14414249  0.99533955  1
  H+  H67  1  0.80444259  0.97279900  0.25168943  1
  H+  H68  1  0.18714509  0.81923847  0.76243149  1
  H+  H69  1  0.66778168  0.18611413  0.51877920  1
  H+  H70  1  0.62549659  0.81575399  0.99147051  1
  H+  H71  1  -0.01138103  0.49349276  0.47177731  1
  H+  H72  1  0.46908811  0.28407671  0.23759620  1
  H+  H73  1  0.17450691  0.98083854  0.52023645  1
  H+  H74  1  0.81925456  0.96503303  0.51255152  1
  H+  H75  1  0.47102023  0.83987873  0.50730542  1
  H+  H76  1  0.15827930  0.64688291  0.49729590  1
  H+  H77  1  0.91456444  0.79063168  0.41980450  1
  H+  H78  1  0.16809943  0.24658990  0.63626556  1
  H+  H79  1  0.83060438  0.86117272  0.74810363  1
  H+  H80  1  0.17853049  0.30141423  1.02805729  1
  H+  H81  1  0.50126284  0.69526381  0.48337761  1
  H+  H82  1  0.82280654  0.15953004  1.00909651  1
  H+  H83  1  0.79667102  0.90228666  0.60667341  1
  H+  H84  1  0.16943129  0.84813896  1.00474330  1
  H+  H85  1  0.16309540  0.96617034  -0.00307809  1
  H+  H86  1  -0.01745208  0.82135546  0.74380324  1
  H+  H87  1  0.84877476  0.51572415  0.00963482  1
  H+  H88  1  0.18877168  0.35564351  0.25259156  1
  H+  H89  1  0.15196324  0.17642394  0.26520764  1
  H+  H90  1  0.53432918  0.46782807  0.96660197  1
  H+  H91  1  0.19186756  0.15010157  0.76013430  1
  H+  H92  1  0.18419712  0.82203989  0.49522420  1
  H+  H93  1  0.15371581  0.62717534  0.01107091  1
  H+  H94  1  0.30090362  0.81813321  0.49370674  1
  H+  H95  1  0.81515654  0.51986015  0.74529382  1
  H+  H96  1  0.94646164  0.48995405  0.76160793  1
  H+  H97  1  0.36244244  0.17138537  0.00933526  1
  H+  H98  1  0.22159393  0.37344564  0.76786469  1
  H+  H99  1  0.83091140  0.36736530  0.76612627  1
  H+  H100  1  0.22444575  0.43487240  0.33956045  1
  H+  H101  1  0.15533543  0.96732365  0.74538725  1
  H+  H102  1  0.81980546  0.30607922  0.01497060  1
  H+  H103  1  0.81649846  1.02720916  0.01612851  1
  H+  H104  1  0.28466652  0.79799500  0.26767926  1
  H+  H105  1  0.38741473  0.50894668  0.01327687  1
  H+  H106  1  0.49339749  0.47225485  0.25896678  1
  H+  H107  1  0.47434259  0.97218119  0.25302727  1
  H+  H108  1  0.45599671  0.55154819  0.14417785  1
  H+  H109  1  0.08027319  0.14594275  0.53717028  1
  H+  H110  1  0.82455244  0.57900292  0.10211506  1
  H+  H111  1  0.18309724  0.47975277  0.48206343  1
  H+  H112  1  0.90783426  0.76983609  0.83255220  1
  H+  H113  1  0.22555775  0.10586468  0.90185911  1
  H+  H114  1  0.56490624  0.77992399  0.83867842  1
  H+  H115  1  0.43786709  0.20628375  0.14836736  1
  H+  H116  1  0.53091526  0.77245080  0.39497330  1
  H+  H117  1  0.12506440  0.20611366  0.10568437  1
  H+  H118  1  0.50736389  0.69721519  0.24826449  1
  H+  H119  1  0.07967970  0.07620026  0.20238444  1
  H+  H120  1  0.30330061  0.13928836  0.75894054  1
  H+  H121  1  0.76692471  0.54123404  0.64497361  1
  H+  H122  1  0.23210684  0.76998250  0.90105093  1
  H+  H123  1  0.41340845  0.89883790  0.16501643  1
  H+  H124  1  0.75409886  0.89918060  0.12763707  1
  H+  H125  1  0.10364040  0.56600094  0.58271909  1
  H+  H126  1  0.44994585  0.55498564  0.59295253  1
  H+  H127  1  0.85525194  0.09968469  0.91715595  1
  H+  H128  1  0.76337553  0.31372485  0.53613264  1
  H+  H129  1  0.11203151  0.93043392  0.14166365  1
  H+  H130  1  0.53999723  0.10776333  0.40609975  1
  H+  H131  1  0.26318000  0.17029954  0.37928798  1
  H+  H132  1  0.88953680  0.44334182  0.90626389  1
  H+  H133  1  0.53056724  0.41741586  0.40925733  1
  H+  H134  1  0.55056556  0.10658077  0.89426955  1
  H+  H135  1  0.11009612  0.54942573  0.10146336  1
  H+  H136  1  0.04843802  0.86327992  0.51795419  1
  H+  H137  1  0.88142440  0.11735165  0.34562298  1
  H+  H138  1  0.40839867  0.18851997  0.64292901  1
  H+  H139  1  0.24421874  0.44289880  0.92356749  1
  H+  H140  1  0.36507170  0.51292801  0.22714928  1
  H+  H141  1  0.76369021  0.22434367  0.65938965  1
  H+  H142  1  0.68502260  0.84982990  0.25080340  1
  H+  H143  1  0.20655672  0.75645192  0.35432856  1
  O2-  O144  1  0.08546632  0.15108232  0.22056516  1
  O2-  O145  1  0.15769198  0.25265580  0.70722052  1
  O2-  O146  1  0.10674300  0.54471054  0.21500094  1
  O2-  O147  1  0.07575856  0.56987136  0.70840120  1
  O2-  O148  1  0.10657227  0.96656955  0.19785426  1
  O2-  O149  1  0.11763289  0.88656057  0.72168468  1
  O2-  O150  1  0.43829493  0.20415314  0.21680523  1
  O2-  O151  1  0.42550632  0.19594893  0.70906786  1
  O2-  O152  1  0.44815819  0.55373477  0.21223787  1
  O2-  O153  1  0.46902176  0.56425529  0.70824131  1
  O2-  O154  1  0.43185089  0.89164473  0.22812312  1
  O2-  O155  1  0.43950655  0.87681130  0.71928420  1
  O2-  O156  1  0.77374452  0.22474379  0.21606352  1
  O2-  O157  1  0.76723048  0.22742910  0.72746053  1
  O2-  O158  1  0.83596050  0.59417915  0.20792927  1
  O2-  O159  1  0.78790680  0.56824105  0.71206321  1
  O2-  O160  1  0.76627602  0.89205390  0.22768938  1
  O2-  O161  1  0.79355652  0.90697771  0.73298226  1
  O2-  O162  1  0.26506717  0.20562945  0.31901446  1
  O2-  O163  1  0.22281938  0.10281411  0.78482346  1
  O2-  O164  1  0.22398666  0.43569644  0.27127299  1
  O2-  O165  1  0.26365526  0.44630142  0.80441925  1
  O2-  O166  1  0.20502124  0.74706012  0.28699471  1
  O2-  O167  1  0.22054488  0.77080069  0.78269657  1
  O2-  O168  1  0.54901810  0.10748004  0.28960984  1
  O2-  O169  1  0.54088067  0.10007446  0.78104874  1
  O2-  O170  1  0.52297777  0.42305575  0.28664968  1
  O2-  O171  1  0.54420713  0.40741230  0.75478663  1
  O2-  O172  1  0.54602626  0.77741176  0.27149170  1
  O2-  O173  1  0.57146245  0.78608276  0.77119678  1
  O2-  O174  1  0.88096702  0.11191870  0.27822575  1
  O2-  O175  1  0.86533255  0.10230908  0.80963843  1
  O2-  O176  1  0.89256854  0.45122070  0.26741886  1
  O2-  O177  1  0.86888842  0.44776754  0.79027819  1
  O2-  O178  1  0.91412710  0.81117730  0.29425824  1
  O2-  O179  1  0.89986565  0.77723016  0.76589203  1
  O2-  O180  1  0.26415115  0.13133097  0.48844963  1
  O2-  O181  1  0.22578053  0.09960717  0.96958644  1
  O2-  O182  1  0.22239032  0.43943561  0.45803283  1
  O2-  O183  1  0.24454899  0.44811897  0.99087171  1
  O2-  O184  1  0.21973633  0.77765623  0.47073158  1
  O2-  O185  1  0.23061919  0.76800525  0.96928429  1
  O2-  O186  1  0.53544783  0.10720011  0.47424410  1
  O2-  O187  1  0.55315346  0.10382104  0.96296191  1
  O2-  O188  1  0.52753781  0.41107464  0.47663395  1
  O2-  O189  1  0.56275474  0.42064725  0.93821793  1
  O2-  O190  1  0.52582382  0.77362864  0.46192327  1
  O2-  O191  1  0.55383054  0.76705310  0.95706642  1
  O2-  O192  1  0.87684273  0.12559484  0.46673367  1
  O2-  O193  1  0.85664920  0.10627406  0.98651016  1
  O2-  O194  1  0.90871987  0.44268738  0.44688270  1
  O2-  O195  1  0.89498031  0.44323173  0.97440246  1
  O2-  O196  1  0.91678124  0.78613962  0.48679480  1
  O2-  O197  1  0.92700049  0.76468356  0.95018126  1
  O2-  O198  1  0.13634598  0.21793149  0.03912491  1
  O2-  O199  1  0.15184869  0.21907439  0.53755447  1
  O2-  O200  1  0.10984757  0.54635278  0.03271895  1
  O2-  O201  1  0.11641218  0.56303915  0.51702864  1
  O2-  O202  1  0.12139405  0.88337388  0.01874926  1
  O2-  O203  1  0.13037258  0.90046907  0.54198167  1
  O2-  O204  1  0.44272228  0.21223567  0.03348768  1
  O2-  O205  1  0.38278536  0.18663136  0.52388870  1
  O2-  O206  1  0.47032240  0.54713819  0.02981069  1
  O2-  O207  1  0.44764451  0.54934626  0.52497849  1
  O2-  O208  1  0.46370967  0.89708081  0.03104873  1
  O2-  O209  1  0.43341473  0.88146913  0.53706861  1
  O2-  O210  1  0.77461019  0.22500673  0.03683434  1
  O2-  O211  1  0.74853522  0.23487807  0.54228332  1
  O2-  O212  1  0.81942975  0.56985711  0.03256497  1
  O2-  O213  1  0.73686222  0.47998437  0.55288751  1
  O2-  O214  1  0.75105568  0.90138170  0.05599986  1
  O2-  O215  1  0.80140430  0.89225989  0.54081601  1
