# generated using pymatgen
data_H2O
_symmetry_space_group_name_H-M   'P 1'
_cell_length_a   13.50661354
_cell_length_b   13.50013231
_cell_length_c   14.67714775
_cell_angle_alpha   90.02058206
_cell_angle_beta   89.96619492
_cell_angle_gamma   119.95792145
_symmetry_Int_Tables_number   1
_chemical_formula_structural   H2O
_chemical_formula_sum   'H144 O72'
_cell_volume   2318.67943188
_cell_formula_units_Z   72
loop_
 _symmetry_equiv_pos_site_id
 _symmetry_equiv_pos_as_xyz
  1  'x, y, z'
loop_
 _atom_type_symbol
 _atom_type_oxidation_number
  H+  1.0
  O2-  -2.0
loop_
 _atom_site_type_symbol
 _atom_site_label
 _atom_site_symmetry_multiplicity
 _atom_site_fract_x
 _atom_site_fract_y
 _atom_site_fract_z
 _atom_site_occupancy
  H+  H0  1  0.15069567  0.83818421  0.50110747  1
  H+  H1  1  0.48773705  0.18773268  1.00797582  1
  H+  H2  1  0.52596101  1.01532173  0.28187456  1
  H+  H3  1  0.60022384  0.50036613  0.49844772  1
  H+  H4  1  0.30126645  0.79830764  0.48141725  1
  H+  H5  1  0.52409217  0.81278160  0.74936694  1
  H+  H6  1  0.50181089  0.64900643  0.99971042  1
  H+  H7  1  0.17979666  0.68333171  0.48090207  1
  H+  H8  1  1.00514531  0.17711327  0.24038287  1
  H+  H9  1  0.49133822  0.21253580  0.50355551  1
  H+  H10  1  0.48323965  0.51813583  0.74570632  1
  H+  H11  1  0.79008696  0.50107903  0.49903302  1
  H+  H12  1  0.81356685  0.18065631  0.01755507  1
  H+  H13  1  0.11024810  0.55245173  0.10647060  1
  H+  H14  1  0.84738971  0.68421192  0.49280270  1
  H+  H15  1  0.77600082  0.22496258  0.10716046  1
  H+  H16  1  0.17781580  0.81277096  0.25629500  1
  H+  H17  1  0.82333361  0.32071915  0.50576184  1
  H+  H18  1  0.86232945  0.17559767  0.48643862  1
  H+  H19  1  0.83906165  0.69063197  0.25451472  1
  H+  H20  1  0.97362400  0.81620701  1.00720490  1
  H+  H21  1  0.18491028  0.69166255  0.99219598  1
  H+  H22  1  0.17935764  0.52852459  0.71628343  1
  H+  H23  1  0.49221115  -0.03583733  0.72936250  1
  H+  H24  1  0.52098614  0.07708906  0.51478196  1
  H+  H25  1  0.06618729  0.51692485  0.25734939  1
  H+  H26  1  0.97758835  0.81646501  0.74883933  1
  H+  H27  1  0.97634058  0.16766933  0.48801141  1
  H+  H28  1  0.52898430  0.69363943  0.25687931  1
  H+  H29  1  0.63898422  0.15260613  0.75569531  1
  H+  H30  1  0.96090744  0.13237815  0.75967905  1
  H+  H31  1  0.20158703  0.36378370  0.50469330  1
  H+  H32  1  0.13920536  0.27092924  0.01323719  1
  H+  H33  1  0.80838897  0.81623208  0.51654498  1
  H+  H34  1  0.81697772  0.19749046  0.24606148  1
  H+  H35  1  0.58159089  0.46608150  0.68558599  1
  H+  H36  1  0.63788421  0.15383848  -0.00625961  1
  H+  H37  1  0.71585324  0.52685923  0.75810369  1
  H+  H38  1  0.63930360  0.13905438  0.27691267  1
  H+  H39  1  0.38398164  0.53088143  1.00132194  1
  H+  H40  1  0.49025671  0.91717022  0.47161297  1
  H+  H41  1  0.83352272  0.64416400  0.74288503  1
  H+  H42  1  0.39104720  0.48603988  0.51845751  1
  H+  H43  1  0.70031467  0.84335217  0.01668740  1
  H+  H44  1  0.39808769  0.51611109  0.23974944  1
  H+  H45  1  0.37116805  0.52059737  0.78528912  1
  H+  H46  1  0.81976030  0.18212695  0.73687407  1
  H+  H47  1  0.14961043  0.95699164  0.50237801  1
  H+  H48  1  0.15365447  0.17666802  0.51348148  1
  H+  H49  1  0.84424174  0.81474060  1.01607161  1
  H+  H50  1  0.15447407  0.27452474  0.75802107  1
  H+  H51  1  0.36469834  0.17744782  0.73742736  1
  H+  H52  1  0.50030316  0.66154272  0.76249198  1
  H+  H53  1  0.96746494  0.80354738  0.49098957  1
  H+  H54  1  0.37226669  0.85162027  1.01087691  1
  H+  H55  1  0.84483844  0.68503642  1.00532071  1
  H+  H56  1  0.82058926  0.51563167  1.00273186  1
  H+  H57  1  0.36333833  0.84172956  0.24325959  1
  H+  H58  1  0.80834024  0.94968364  0.73394103  1
  H+  H59  1  0.48892783  0.97218652  0.01157291  1
  H+  H60  1  0.19241914  0.02223046  0.75196841  1
  H+  H61  1  0.46878603  0.55887785  0.14682624  1
  H+  H62  1  0.95701110  0.13262388  0.98598806  1
  H+  H63  1  0.18566701  0.13280897  0.98350130  1
  H+  H64  1  0.94840615  0.48728766  0.46742876  1
  H+  H65  1  0.51658924  0.80619403  0.26593822  1
  H+  H66  1  0.51971897  0.65794571  0.48914469  1
  H+  H67  1  0.17419946  0.71135347  0.74898984  1
  H+  H68  1  0.10834521  0.88768477  0.15304498  1
  H+  H69  1  0.52633622  0.49191726  0.97155179  1
  H+  H70  1  0.70254601  0.51798815  -0.00730635  1
  H+  H71  1  0.15303990  0.50863886  0.51418771  1
  H+  H72  1  0.14549282  0.83738822  1.00649209  1
  H+  H73  1  0.02606875  0.84437711  0.24015510  1
  H+  H74  1  0.81673530  0.84677837  0.24524099  1
  H+  H75  1  0.43968525  0.22387567  0.64492076  1
  H+  H76  1  0.24662030  0.43470906  1.07731051  1
  H+  H77  1  0.84844412  0.36151036  0.99626947  1
  H+  H78  1  0.55280338  0.74289912  0.40146777  1
  H+  H79  1  0.68706110  0.81035215  0.51757918  1
  H+  H80  1  0.15027335  0.15728531  0.74540353  1
  H+  H81  1  0.56057101  0.44672716  0.88320158  1
  H+  H82  1  0.30928468  0.14354626  -0.01523286  1
  H+  H83  1  0.88534551  0.76643381  0.34523199  1
  H+  H84  1  0.56756524  0.79110338  0.90088287  1
  H+  H85  1  0.29799000  0.14566630  0.48805293  1
  H+  H86  1  0.20531317  0.36808639  0.27522049  1
  H+  H87  1  0.70953063  0.20265739  0.51467525  1
  H+  H88  1  0.21260400  0.48906479  0.27146702  1
  H+  H89  1  0.00028423  0.54613010  0.72269799  1
  H+  H90  1  0.15129566  0.95875052  0.00218650  1
  H+  H91  1  0.52411409  0.82769687  0.99054707  1
  H+  H92  1  0.17328278  0.03623795  0.25767638  1
  H+  H93  1  0.17227279  0.47567022  1.02174058  1
  H+  H94  1  0.36421799  0.20687096  0.24099747  1
  H+  H95  1  0.16634281  0.85474742  0.73653190  1
  H+  H96  1  0.16850994  0.15122661  0.26055019  1
  H+  H97  1  0.01696530  0.64863866  0.66063737  1
  H+  H98  1  0.84531913  0.47855608  0.76762211  1
  H+  H99  1  0.84729932  1.03437224  0.26816160  1
  H+  H100  1  0.76833178  0.49976241  0.24643639  1
  H+  H101  1  0.55184014  0.44823654  0.25059404  1
  H+  H102  1  0.19396263  0.44730954  0.80258658  1
  H+  H103  1  0.64612243  0.80948476  0.75066053  1
  H+  H104  1  0.13703946  0.47218273  0.69462055  1
  H+  H105  1  0.79988043  0.31059431  0.24616808  1
  H+  H106  1  0.17297828  0.64104651  0.24669069  1
  H+  H107  1  1.02621343  0.50615468  1.01785834  1
  H+  H108  1  0.56461769  0.11988459  0.41133045  1
  H+  H109  1  0.51920672  0.14883682  0.75426331  1
  H+  H110  1  0.89443788  0.12244846  0.35531114  1
  H+  H111  1  0.83806104  0.01949846  0.99239973  1
  H+  H112  1  0.21913148  0.77457065  0.34622771  1
  H+  H113  1  0.76286446  0.53746221  0.59534846  1
  H+  H114  1  0.45426155  0.88195920  0.64134549  1
  H+  H115  1  0.85616218  0.81078302  0.75254619  1
  H+  H116  1  0.48608903  0.30401612  -0.00327669  1
  H+  H117  1  0.69855033  0.84747150  0.24805031  1
  H+  H118  1  0.25027888  0.44775237  0.41942254  1
  H+  H119  1  0.56105996  0.11292089  0.90303878  1
  H+  H120  1  0.89413285  0.44045539  0.90601778  1
  H+  H121  1  0.30662374  0.81112826  0.75434349  1
  H+  H122  1  0.23479319  0.41716585  0.89325371  1
  H+  H123  1  0.06891375  0.28862078  0.18136123  1
  H+  H124  1  0.77513654  0.88408058  0.11025501  1
  H+  H125  1  0.09301867  0.18416655  0.09377109  1
  H+  H126  1  0.11624135  0.21484972  0.60425717  1
  H+  H127  1  0.22506335  0.77016039  0.90264170  1
  H+  H128  1  0.21615910  0.10720858  0.40105542  1
  H+  H129  1  0.46412928  0.31586704  0.50848957  1
  H+  H130  1  0.47945203  0.80157599  0.50088842  1
  H+  H131  1  0.44796304  0.88441262  0.15809060  1
  H+  H132  1  0.85608148  0.43856580  0.38001320  1
  H+  H133  1  0.85765838  0.36622459  0.75964609  1
  H+  H134  1  0.09423544  0.55757907  0.58314099  1
  H+  H135  1  0.49748416  0.35282911  0.73710698  1
  H+  H136  1  0.23102629  0.09650682  0.84508814  1
  H+  H137  1  0.87620829  0.09479021  0.84434017  1
  H+  H138  1  0.76776759  0.86001481  0.64756707  1
  H+  H139  1  0.12311317  0.88604713  0.64337904  1
  H+  H140  1  0.44343897  0.24893785  0.15293881  1
  H+  H141  1  0.90115883  0.48510131  0.25154538  1
  H+  H142  1  0.78825865  0.23394255  0.65012284  1
  H+  H143  1  0.75938309  0.54980869  0.15087368  1
  O2-  O144  1  0.08250371  0.22919305  0.20573490  1
  O2-  O145  1  0.10957512  0.20007357  0.72795708  1
  O2-  O146  1  0.13994041  0.55822796  0.22619635  1
  O2-  O147  1  0.05783962  0.61138216  0.68377628  1
  O2-  O148  1  0.10864542  0.88826277  0.22063777  1
  O2-  O149  1  0.12271445  0.89048075  0.71170395  1
  O2-  O150  1  0.44362842  0.23852724  0.21959618  1
  O2-  O151  1  0.44521764  0.22441220  0.71351450  1
  O2-  O152  1  0.47547703  0.56252747  0.21377301  1
  O2-  O153  1  0.44381033  0.56551303  0.74942564  1
  O2-  O154  1  0.44527843  0.87681253  0.22549388  1
  O2-  O155  1  0.45450714  0.88247091  0.70898441  1
  O2-  O156  1  0.77103045  0.22836278  0.21891888  1
  O2-  O157  1  0.78388488  0.22830741  0.71877094  1
  O2-  O158  1  0.75351137  0.55864503  0.21675433  1
  O2-  O159  1  0.78894557  0.55801900  0.72609318  1
  O2-  O160  1  0.77846456  0.88955656  0.22279546  1
  O2-  O161  1  0.76702436  0.86662373  0.71851402  1
  O2-  O162  1  0.21199933  0.11577147  0.28218640  1
  O2-  O163  1  0.23192365  0.10257449  0.77691964  1
  O2-  O164  1  0.25194376  0.44830079  0.29449267  1
  O2-  O165  1  0.24437084  0.42048347  0.82636891  1
  O2-  O166  1  0.21969507  0.77323614  0.27771197  1
  O2-  O167  1  0.23012301  0.78142642  0.78275242  1
  O2-  O168  1  0.57229469  0.08762877  0.31544064  1
  O2-  O169  1  0.55773839  0.10715313  0.77682810  1
  O2-  O170  1  0.53963894  0.39855661  0.30416370  1
  O2-  O171  1  0.54258097  0.44113997  0.74445321  1
  O2-  O172  1  0.56178205  0.77055843  0.28750638  1
  O2-  O173  1  0.56147441  0.77072491  0.77595694  1
  O2-  O174  1  0.89079545  0.11667598  0.28513845  1
  O2-  O175  1  0.87848724  0.09527603  0.77639617  1
  O2-  O176  1  0.83584439  0.42707729  0.28496610  1
  O2-  O177  1  0.89449245  0.44563720  0.78599274  1
  O2-  O178  1  0.88660938  0.77218309  0.27739650  1
  O2-  O179  1  0.89777797  0.77061052  0.77124977  1
  O2-  O180  1  0.21627074  0.09991941  0.46878906  1
  O2-  O181  1  0.22858585  0.09544562  0.96122089  1
  O2-  O182  1  0.24903225  0.44664488  0.48708432  1
  O2-  O183  1  0.21842272  0.43403126  1.01580252  1
  O2-  O184  1  0.22075514  0.76584870  0.46086910  1
  O2-  O185  1  0.22388221  0.77213550  0.97068035  1
  O2-  O186  1  0.56643460  0.14561300  0.47858249  1
  O2-  O187  1  0.55723838  0.11218961  0.97074820  1
  O2-  O188  1  0.51650537  0.46145814  0.48430522  1
  O2-  O189  1  0.56454665  0.44879557  0.94995136  1
  O2-  O190  1  0.54744155  0.73843772  0.46981986  1
  O2-  O191  1  0.56559621  0.78736315  0.96834412  1
  O2-  O192  1  0.89973876  0.13463498  0.46006481  1
  O2-  O193  1  0.87594894  0.09838644  0.96667692  1
  O2-  O194  1  0.86616662  0.44476614  0.45391903  1
  O2-  O195  1  0.89261378  0.44310037  0.97417900  1
  O2-  O196  1  0.88773875  0.76316855  0.46715252  1
  O2-  O197  1  0.88715948  0.77363660  0.99387226  1
  O2-  O198  1  0.10051484  0.18817316  0.02598697  1
  O2-  O199  1  0.12130375  0.22421102  0.53699530  1
  O2-  O200  1  0.10859115  0.54574305  0.03881237  1
  O2-  O201  1  0.10789885  0.54835702  0.51806669  1
  O2-  O202  1  0.10546245  0.87899237  0.02734568  1
  O2-  O203  1  0.11085856  0.87713276  0.52731631  1
  O2-  O204  1  0.44338556  0.22645596  0.02360907  1
  O2-  O205  1  0.43783914  0.23637048  0.52980844  1
  O2-  O206  1  0.46541209  0.56573148  0.01661899  1
  O2-  O207  1  0.47350843  0.52372482  0.53894588  1
  O2-  O208  1  0.45254236  0.89089415  0.03314055  1
  O2-  O209  1  0.44718495  0.85440782  0.51410395  1
  O2-  O210  1  0.77703484  0.22510360  0.03764213  1
  O2-  O211  1  0.79056543  0.24273604  0.53526295  1
  O2-  O212  1  0.78091640  0.55904483  0.01986290  1
  O2-  O213  1  0.75165541  0.54059362  0.52920048  1
  O2-  O214  1  0.78002219  0.88011842  0.04128469  1
  O2-  O215  1  0.76366726  0.84787203  0.54632850  1
