# generated using pymatgen
data_H2O
_symmetry_space_group_name_H-M   'P 1'
_cell_length_a   13.49458065
_cell_length_b   13.49730872
_cell_length_c   14.67544936
_cell_angle_alpha   90.04474483
_cell_angle_beta   89.93575724
_cell_angle_gamma   120.03276179
_symmetry_Int_Tables_number   1
_chemical_formula_structural   H2O
_chemical_formula_sum   'H144 O72'
_cell_volume   2314.11458471
_cell_formula_units_Z   72
loop_
 _symmetry_equiv_pos_site_id
 _symmetry_equiv_pos_as_xyz
  1  'x, y, z'
loop_
 _atom_type_symbol
 _atom_type_oxidation_number
  H+  1.0
  O2-  -2.0
loop_
 _atom_site_type_symbol
 _atom_site_label
 _atom_site_symmetry_multiplicity
 _atom_site_fract_x
 _atom_site_fract_y
 _atom_site_fract_z
 _atom_site_occupancy
  H+  H0  1  0.16203393  0.18668326  0.51755957  1
  H+  H1  1  0.96656043  0.14481220  0.51476885  1
  H+  H2  1  0.14346929  0.84066368  0.51409190  1
  H+  H3  1  0.28649405  0.80784939  0.49593699  1
  H+  H4  1  0.80079698  0.85000942  0.53216490  1
  H+  H5  1  0.53295023  0.57220322  0.11953773  1
  H+  H6  1  0.50092251  0.98425138  0.52529845  1
  H+  H7  1  0.51150147  0.81125870  0.28252153  1
  H+  H8  1  0.30258541  0.14431387  0.48704910  1
  H+  H9  1  0.70640355  0.30331591  0.94544581  1
  H+  H10  1  0.68699145  0.87287599  0.24056274  1
  H+  H11  1  0.83462940  0.19052701  0.26240818  1
  H+  H12  1  0.13377717  0.22861366  0.64334848  1
  H+  H13  1  0.82215771  0.96990962  0.00823093  1
  H+  H14  1  1.03074952  0.84101754  0.24360005  1
  H+  H15  1  0.16919163  0.47600848  0.49169151  1
  H+  H16  1  0.43060951  0.89155391  0.37923109  1
  H+  H17  1  0.52537677  0.36817203  0.48340310  1
  H+  H18  1  0.18022404  0.81601999  0.74406854  1
  H+  H19  1  0.64771156  0.47641726  0.26462315  1
  H+  H20  1  0.30682795  0.83014772  0.27716628  1
  H+  H21  1  0.30547148  0.80552164  0.74135651  1
  H+  H22  1  0.80771329  0.97115258  0.52819835  1
  H+  H23  1  0.67406318  0.17724541  0.73932968  1
  H+  H24  1  0.85236982  0.70022968  0.74310535  1
  H+  H25  1  0.86220604  0.82693042  -0.01196344  1
  H+  H26  1  0.17850684  0.13797495  -0.00631333  1
  H+  H27  1  0.57105354  0.78102680  0.35877642  1
  H+  H28  1  0.19963701  0.49132020  0.26887300  1
  H+  H29  1  0.38036842  0.54572560  0.77402746  1
  H+  H30  1  0.84887246  0.80000009  0.25837009  1
  H+  H31  1  0.00637487  0.52478570  0.74480982  1
  H+  H32  1  0.35489813  0.49744965  0.02468350  1
  H+  H33  1  0.63882473  0.14498023  0.25710444  1
  H+  H34  1  0.79830758  0.83731293  0.75924371  1
  H+  H35  1  0.67193447  0.87664606  0.67492093  1
  H+  H36  1  0.16742128  0.18107600  0.74656452  1
  H+  H37  1  0.04327513  0.83978324  0.74067475  1
  H+  H38  1  0.15239666  0.96657564  0.01343605  1
  H+  H39  1  0.50359463  0.02603501  0.75556608  1
  H+  H40  1  0.56390171  0.87590200  0.94542075  1
  H+  H41  1  0.18032780  1.02996549  0.26415418  1
  H+  H42  1  0.16969327  0.68151995  0.75167989  1
  H+  H43  1  0.52236592  0.36861082  0.73820625  1
  H+  H44  1  0.83682170  0.51494971  0.25383802  1
  H+  H45  1  0.48604971  0.29750858  0.24353598  1
  H+  H46  1  0.98419238  0.16070906  0.27560730  1
  H+  H47  1  0.04075755  0.36674329  1.00127109  1
  H+  H48  1  0.82481941  0.51564997  0.49769902  1
  H+  H49  1  0.18215811  0.14961999  0.26388601  1
  H+  H50  1  0.18287675  0.69721563  0.25377348  1
  H+  H51  1  0.64333460  0.48900657  0.49029786  1
  H+  H52  1  0.00166959  0.28820664  0.80508237  1
  H+  H53  1  1.00886072  0.50595834  0.49857171  1
  H+  H54  1  0.86108026  0.04787272  0.27562080  1
  H+  H55  1  0.10549921  0.49785048  0.74951216  1
  H+  H56  1  0.03435221  0.84708453  0.01128087  1
  H+  H57  1  0.83501430  0.49280985  0.73955224  1
  H+  H58  1  0.75391938  0.14688182  0.01364771  1
  H+  H59  1  0.59799853  0.10549478  0.91739445  1
  H+  H60  1  0.73797645  0.97756400  0.17335517  1
  H+  H61  1  0.48401887  0.84880947  0.72560134  1
  H+  H62  1  0.55316715  0.55904509  0.71410205  1
  H+  H63  1  0.32227259  0.51141065  0.79583628  1
  H+  H64  1  0.80731523  0.21344953  0.16404619  1
  H+  H65  1  0.97042708  0.49907694  0.99285510  1
  H+  H66  1  0.55745315  0.15305679  0.99816952  1
  H+  H67  1  0.03958774  0.52349930  0.26221010  1
  H+  H68  1  0.12681952  0.27311850  0.01633732  1
  H+  H69  1  0.47502724  0.27079869  0.00475017  1
  H+  H70  1  0.17889177  0.82580722  0.24097199  1
  H+  H71  1  0.18869283  0.82755209  0.99622259  1
  H+  H72  1  0.35781447  0.18160123  0.73467237  1
  H+  H73  1  0.52058759  0.14693645  0.25281086  1
  H+  H74  1  0.59624194  0.75425271  0.71671635  1
  H+  H75  1  0.87109978  0.37777825  0.26943240  1
  H+  H76  1  0.50315839  0.63547137  0.25046240  1
  H+  H77  1  0.29874092  0.13689804  -0.00640245  1
  H+  H78  1  0.36896354  0.81345142  0.03320124  1
  H+  H79  1  0.79037282  0.29795084  0.72654533  1
  H+  H80  1  0.77809088  0.43405342  0.98155057  1
  H+  H81  1  -0.05366445  0.45710138  0.03189164  1
  H+  H82  1  0.46149830  0.21092165  0.41788502  1
  H+  H83  1  0.44105390  0.20371168  0.09971760  1
  H+  H84  1  0.64047233  0.82581280  0.49835426  1
  H+  H85  1  0.16016282  0.47653109  0.01041549  1
  H+  H86  1  0.14717959  0.96231627  0.51660842  1
  H+  H87  1  0.48519850  0.51843720  0.49398965  1
  H+  H88  1  0.15976998  0.30692373  0.51838980  1
  H+  H89  1  0.18357339  0.02786213  0.76217796  1
  H+  H90  1  0.70355872  0.52929716  0.72347907  1
  H+  H91  1  0.55508735  0.46513713  0.98625713  1
  H+  H92  1  0.36475378  0.18012761  0.24615722  1
  H+  H93  1  0.28298335  0.64985272  0.08089798  1
  H+  H94  1  0.16796381  0.68996115  0.49230431  1
  H+  H95  1  0.37867151  0.53337057  0.98262053  1
  H+  H96  1  0.10801609  0.88677388  0.15163269  1
  H+  H97  1  0.83241741  0.17399904  0.78102860  1
  H+  H98  1  0.22155168  0.10496807  0.85321922  1
  H+  H99  1  0.85369685  0.68445782  0.26659546  1
  H+  H100  1  0.83250481  0.64874696  0.02089933  1
  H+  H101  1  0.48136312  -0.02492410  0.29338312  1
  H+  H102  1  0.50135311  0.14224879  0.75533178  1
  H+  H103  1  0.58495083  0.64845925  0.03062737  1
  H+  H104  1  0.12329707  0.28525734  0.75227232  1
  H+  H105  1  0.31597538  0.48638306  0.26316085  1
  H+  H106  1  0.81704354  0.63400843  0.50447581  1
  H+  H107  1  0.16176885  0.30451903  0.24040711  1
  H+  H108  1  0.11120899  0.21527419  0.15582381  1
  H+  H109  1  0.10998919  0.38159785  0.86153575  1
  H+  H110  1  0.79547390  0.55769028  0.16494064  1
  H+  H111  1  0.50480433  0.17716216  0.51120885  1
  H+  H112  1  0.49917901  0.86218558  0.50545633  1
  H+  H113  1  0.55668556  0.43702473  0.83090075  1
  H+  H114  1  0.89533584  0.11200360  0.42417292  1
  H+  H115  1  0.60747531  0.89798442  0.84505002  1
  H+  H116  1  0.89985945  0.78000216  0.90158446  1
  H+  H117  1  0.11927629  0.88307587  0.64888851  1
  H+  H118  1  0.18740255  0.65496751  0.03111225  1
  H+  H119  1  0.01109510  0.15680962  0.02288698  1
  H+  H120  1  0.08617228  0.54129824  0.59049636  1
  H+  H121  1  0.78302307  0.56617806  0.63247014  1
  H+  H122  1  0.95950973  0.81663943  0.50009218  1
  H+  H123  1  0.88427666  0.78047523  0.41036491  1
  H+  H124  1  0.52001229  0.70537045  0.48773260  1
  H+  H125  1  0.21894387  0.43858795  0.40719923  1
  H+  H126  1  0.43858960  0.83766503  0.12355520  1
  H+  H127  1  0.89932968  0.45593395  0.36569525  1
  H+  H128  1  0.50936724  0.59707443  0.62686445  1
  H+  H129  1  0.78533608  0.88376384  0.09036530  1
  H+  H130  1  0.43158103  0.21074154  0.64382041  1
  H+  H131  1  0.23353336  0.78989553  0.90900267  1
  H+  H132  1  0.43287476  0.87738556  0.63830053  1
  H+  H133  1  0.70752527  0.19861793  0.59625982  1
  H+  H134  1  0.21316650  0.10487991  0.40710851  1
  H+  H135  1  0.56761592  0.44276951  0.35295619  1
  H+  H136  1  0.70808731  0.57693663  0.05769772  1
  H+  H137  1  0.87617975  0.14326573  0.87607366  1
  H+  H138  1  0.83376919  0.42994594  0.83043014  1
  H+  H139  1  0.13190195  0.56661603  0.17643504  1
  H+  H140  1  0.84187531  0.37974291  0.47858030  1
  H+  H141  1  0.50279903  0.51532332  0.25237174  1
  H+  H142  1  0.36589193  0.51884395  0.50449898  1
  H+  H143  1  0.62324856  0.40607867  0.94362130  1
  O2-  O144  1  0.11788406  0.22169514  0.22390318  1
  O2-  O145  1  0.13384447  0.22509276  0.71564597  1
  O2-  O146  1  0.12518890  0.56911221  0.24402472  1
  O2-  O147  1  0.08962138  0.55808232  0.72688895  1
  O2-  O148  1  0.11166457  0.88464373  0.22043941  1
  O2-  O149  1  0.12479330  0.87904463  0.71857519  1
  O2-  O150  1  0.44393015  0.21679223  0.22079842  1
  O2-  O151  1  0.43740544  0.22076455  0.70986387  1
  O2-  O152  1  0.46632455  0.55700308  0.22370970  1
  O2-  O153  1  0.55546238  0.62522974  0.68321635  1
  O2-  O154  1  0.43040941  0.88991375  0.31200059  1
  O2-  O155  1  0.42543588  0.86869665  0.70651326  1
  O2-  O156  1  0.79384079  0.22413526  0.22847761  1
  O2-  O157  1  0.75284955  0.21531512  0.71136958  1
  O2-  O158  1  0.79244144  0.55374167  0.23318720  1
  O2-  O159  1  0.78496983  0.57419873  0.70205956  1
  O2-  O160  1  0.75958697  0.92953035  0.20807984  1
  O2-  O161  1  0.87486713  0.85933885  0.73518060  1
  O2-  O162  1  0.22146191  0.10897186  0.28909028  1
  O2-  O163  1  0.22128808  0.10811355  0.78437358  1
  O2-  O164  1  0.23541036  0.44484512  0.28552166  1
  O2-  O165  1  0.08351209  0.35973111  0.79755853  1
  O2-  O166  1  0.22782544  0.78596055  0.24534535  1
  O2-  O167  1  0.22105991  0.76930499  0.76692446  1
  O2-  O168  1  0.55682636  0.10280327  0.27439418  1
  O2-  O169  1  0.54175855  0.10410679  0.78064588  1
  O2-  O170  1  0.56572482  0.43823706  0.28423450  1
  O2-  O171  1  0.56737894  0.44712349  0.76363076  1
  O2-  O172  1  0.56312658  0.77945003  0.28950160  1
  O2-  O173  1  0.62585633  0.83827448  0.72926683  1
  O2-  O174  1  0.90596491  0.12510072  0.30316197  1
  O2-  O175  1  0.89642543  0.17095177  0.81172989  1
  O2-  O176  1  0.91050904  0.45810410  0.29108294  1
  O2-  O177  1  0.86723814  0.44692144  0.76814909  1
  O2-  O178  1  0.89382328  0.76896523  0.28499086  1
  O2-  O179  1  0.90292449  0.77698229  0.77643727  1
  O2-  O180  1  0.21833177  0.10661826  0.47533935  1
  O2-  O181  1  0.21908738  0.09934315  0.96758611  1
  O2-  O182  1  0.21548430  0.43887266  0.47499626  1
  O2-  O183  1  0.11998431  0.39892001  0.98114489  1
  O2-  O184  1  0.20687707  0.77249466  0.47455646  1
  O2-  O185  1  0.23276008  0.78943055  0.97570731  1
  O2-  O186  1  0.55446101  0.12079045  0.54675288  1
  O2-  O187  1  0.62644196  0.15759630  0.97026705  1
  O2-  O188  1  0.56237823  0.45061404  0.46583316  1
  O2-  O189  1  0.54714531  0.40221139  0.94641431  1
  O2-  O190  1  0.56196192  0.78714219  0.46726226  1
  O2-  O191  1  0.57302685  0.92296825  0.89230022  1
  O2-  O192  1  0.88789074  0.10282569  0.49127956  1
  O2-  O193  1  0.87756048  0.11096567  0.99019576  1
  O2-  O194  1  0.88857562  0.45927561  0.45939683  1
  O2-  O195  1  0.73891195  0.38596126  0.92855721  1
  O2-  O196  1  0.87914466  0.77840824  0.47772600  1
  O2-  O197  1  0.90255958  0.78334404  0.96892850  1
  O2-  O198  1  0.09638798  0.19393025  0.03896434  1
  O2-  O199  1  0.12605974  0.22837333  0.54674462  1
  O2-  O200  1  0.19959567  0.60048887  0.06874144  1
  O2-  O201  1  0.09270435  0.54227852  0.52368010  1
  O2-  O202  1  0.11384749  0.88637562  0.03832852  1
  O2-  O203  1  0.10572443  0.88285784  0.54138738  1
  O2-  O204  1  0.43795114  0.19265994  0.03226531  1
  O2-  O205  1  0.45519130  0.21701871  0.48375567  1
  O2-  O206  1  0.57812602  0.58187305  0.06230758  1
  O2-  O207  1  0.44969409  0.56359904  0.51618586  1
  O2-  O208  1  0.41394313  0.78841435  0.07005646  1
  O2-  O209  1  0.45097034  0.89735760  0.52102908  1
  O2-  O210  1  0.82411189  0.16375472  0.04767023  1
  O2-  O211  1  0.67849319  0.19200554  0.53253771  1
  O2-  O212  1  0.78015197  0.57455141  0.05183421  1
  O2-  O213  1  0.77893816  0.55275336  0.52542735  1
  O2-  O214  1  0.79261378  0.88660612  0.02363207  1
  O2-  O215  1  0.75844574  0.88933263  0.54974884  1
