# generated using pymatgen
data_H2O
_symmetry_space_group_name_H-M   'P 1'
_cell_length_a   13.51432442
_cell_length_b   13.50276917
_cell_length_c   14.69458723
_cell_angle_alpha   90.04724627
_cell_angle_beta   89.90533653
_cell_angle_gamma   120.01672764
_symmetry_Int_Tables_number   1
_chemical_formula_structural   H2O
_chemical_formula_sum   'H144 O72'
_cell_volume   2321.83516770
_cell_formula_units_Z   72
loop_
 _symmetry_equiv_pos_site_id
 _symmetry_equiv_pos_as_xyz
  1  'x, y, z'
loop_
 _atom_type_symbol
 _atom_type_oxidation_number
  H+  1.0
  O2-  -2.0
loop_
 _atom_site_type_symbol
 _atom_site_label
 _atom_site_symmetry_multiplicity
 _atom_site_fract_x
 _atom_site_fract_y
 _atom_site_fract_z
 _atom_site_occupancy
  H+  H0  1  0.52336704  0.36998137  0.48962331  1
  H+  H1  1  0.15674105  0.39582687  0.78518253  1
  H+  H2  1  0.29829020  0.48543735  0.25993154  1
  H+  H3  1  0.01849487  0.51456086  0.24616578  1
  H+  H4  1  0.50989483  0.64298690  0.02897084  1
  H+  H5  1  1.00831450  0.51210972  0.50070649  1
  H+  H6  1  0.35664959  0.18028902  0.23230682  1
  H+  H7  1  0.46977394  0.29009085  0.74110786  1
  H+  H8  1  0.59175768  0.81053859  0.49653421  1
  H+  H9  1  0.15150973  0.15313412  0.73243085  1
  H+  H10  1  0.98634436  0.82470730  0.49264261  1
  H+  H11  1  0.47220716  0.62238877  0.50832433  1
  H+  H12  1  0.82359758  0.20309292  0.24752577  1
  H+  H13  1  0.88088392  0.38992901  0.52466424  1
  H+  H14  1  0.38174181  0.82156727  0.00546061  1
  H+  H15  1  0.75742097  0.87904418  0.47390591  1
  H+  H16  1  0.61562545  0.46615163  0.74884044  1
  H+  H17  1  0.86517878  0.17635048  0.51987244  1
  H+  H18  1  0.46368745  0.62690003  0.73171160  1
  H+  H19  1  0.16724561  0.97366343  -0.00822464  1
  H+  H20  1  0.69653788  0.83645859  0.24503767  1
  H+  H21  1  0.84942670  0.81502023  0.99943567  1
  H+  H22  1  0.48802351  0.18276427  0.74110531  1
  H+  H23  1  0.47527753  0.29954885  0.23202351  1
  H+  H24  1  0.84037604  0.81053420  0.26639585  1
  H+  H25  1  0.12735908  0.82227124  0.75980444  1
  H+  H26  1  0.38693460  0.52281204  0.02234461  1
  H+  H27  1  0.99085973  0.82061462  0.76364062  1
  H+  H28  1  0.36025749  0.50156789  0.50584375  1
  H+  H29  1  -0.00601930  0.47763957  -0.03108563  1
  H+  H30  1  0.73389442  0.19748262  0.41797329  1
  H+  H31  1  0.57922402  0.12936647  0.46378423  1
  H+  H32  1  0.81330268  0.96489026  0.74747094  1
  H+  H33  1  0.52354631  0.48003046  0.99640527  1
  H+  H34  1  0.50166585  0.47461678  0.75782943  1
  H+  H35  1  0.45206503  0.84040662  0.48805425  1
  H+  H36  1  0.15392951  0.30201448  0.23726396  1
  H+  H37  1  0.14502285  0.65180209  0.72153119  1
  H+  H38  1  0.46108331  0.18251050  0.49986191  1
  H+  H39  1  0.28835720  0.49312532  0.76544946  1
  H+  H40  1  0.15967899  0.29773204  1.01151287  1
  H+  H41  1  0.15786324  0.64652629  0.49590417  1
  H+  H42  1  0.88482445  0.77159075  0.35586797  1
  H+  H43  1  0.84570074  0.19897987  0.76889355  1
  H+  H44  1  0.65833284  0.17600829  0.77227889  1
  H+  H45  1  0.90086297  0.14633175  0.35982510  1
  H+  H46  1  0.19145645  0.28199159  0.72887395  1
  H+  H47  1  0.29078330  0.83227937  0.76233667  1
  H+  H48  1  0.71535451  0.13606567  0.42851657  1
  H+  H49  1  0.97015590  0.14467183  0.99495177  1
  H+  H50  1  0.46381058  0.86744542  0.72312399  1
  H+  H51  1  0.86115509  0.32049862  0.79941253  1
  H+  H52  1  0.14218503  0.53536271  0.73101699  1
  H+  H53  1  0.36430447  0.84767844  0.23308412  1
  H+  H54  1  0.87082279  0.50340222  0.49328914  1
  H+  H55  1  0.70033419  0.19292578  0.23648003  1
  H+  H56  1  0.18281814  0.78949383  0.97946596  1
  H+  H57  1  0.15063679  0.85347164  0.50004450  1
  H+  H58  1  0.18274161  0.14604070  0.98264047  1
  H+  H59  1  0.17456224  0.69444363  0.25282805  1
  H+  H60  1  0.83849338  0.80948978  0.76600892  1
  H+  H61  1  0.29802316  0.16204043  0.48726691  1
  H+  H62  1  0.15361119  0.66101390  -0.01700452  1
  H+  H63  1  0.52651546  0.48814146  0.48776088  1
  H+  H64  1  0.84981121  0.49728345  0.25202720  1
  H+  H65  1  0.70002891  0.50721878  1.00587562  1
  H+  H66  1  0.97255242  0.17256133  0.26751738  1
  H+  H67  1  0.62586858  0.81937296  0.74357474  1
  H+  H68  1  0.42201005  0.54069615  0.64856828  1
  H+  H69  1  0.52311026  1.01854585  -0.00873390  1
  H+  H70  1  0.97867320  0.17048343  0.50289715  1
  H+  H71  1  0.18729163  0.48882889  0.48599472  1
  H+  H72  1  0.50456166  0.82802733  1.01600390  1
  H+  H73  1  0.47762252  0.51232188  0.24934398  1
  H+  H74  1  0.01175537  0.83919482  0.25339174  1
  H+  H75  1  0.62664132  0.48116039  0.25240690  1
  H+  H76  1  0.14952180  0.18110625  0.23924254  1
  H+  H77  1  0.29344185  0.12133806  0.74988873  1
  H+  H78  1  0.11747652  0.21685025  0.09849212  1
  H+  H79  1  0.17320733  0.81253620  0.25192487  1
  H+  H80  1  0.71273114  0.17979541  0.01182206  1
  H+  H81  1  0.55404229  0.43962812  0.90234357  1
  H+  H82  1  0.50482020  0.14885151  0.23872534  1
  H+  H83  1  0.84815251  0.37853879  0.25457724  1
  H+  H84  1  0.17394691  1.02766612  0.25948493  1
  H+  H85  1  0.83266225  0.64087888  0.49956922  1
  H+  H86  1  -0.03358913  0.81077128  -0.00929434  1
  H+  H87  1  0.80808465  0.63695533  0.23786256  1
  H+  H88  1  0.28723597  0.81438107  0.47980140  1
  H+  H89  1  -0.18093946  0.46716246  -0.05420227  1
  H+  H90  1  0.43499339  0.21484866  1.08840624  1
  H+  H91  1  0.76514456  0.53025094  0.63247721  1
  H+  H92  1  0.17693379  0.48206350  0.26251861  1
  H+  H93  1  0.83837131  0.99916815  0.51680306  1
  H+  H94  1  0.86784620  0.82322382  0.50112126  1
  H+  H95  1  0.17745951  0.15567195  0.48166990  1
  H+  H96  1  0.12723396  -0.05476628  0.75017175  1
  H+  H97  1  0.15491151  0.31002486  0.50795506  1
  H+  H98  1  0.70143188  0.83574072  0.02505390  1
  H+  H99  1  0.57145972  0.12199852  0.85420782  1
  H+  H100  1  0.19004691  0.48151334  1.01446822  1
  H+  H101  1  0.81854337  0.62534094  1.00376100  1
  H+  H102  1  0.80806266  0.55466417  0.73424359  1
  H+  H103  1  0.44778045  -0.04278487  0.48198148  1
  H+  H104  1  0.47982777  -0.01214181  0.75110692  1
  H+  H105  1  0.97162294  0.14001567  0.77111738  1
  H+  H106  1  0.50737312  0.69214757  0.26334025  1
  H+  H107  1  0.71474625  0.51873804  0.49020367  1
  H+  H108  1  0.07474169  0.87904336  0.15887467  1
  H+  H109  1  0.89348247  0.10344970  0.86187858  1
  H+  H110  1  0.19422127  0.91230021  0.06966842  1
  H+  H111  1  0.43928608  0.22305952  0.59751243  1
  H+  H112  1  0.78068639  0.87577758  0.15929223  1
  H+  H113  1  0.85105043  0.14497717  0.99765120  1
  H+  H114  1  0.50851701  0.03044524  0.24324209  1
  H+  H115  1  0.44708015  0.55478168  0.15851211  1
  H+  H116  1  0.22074538  0.44167708  0.39760873  1
  H+  H117  1  0.53071742  0.79272151  0.81751313  1
  H+  H118  1  0.23027284  0.46337563  0.91873414  1
  H+  H119  1  0.48352610  0.29218669  -0.00003731  1
  H+  H120  1  0.55431900  0.43936991  0.34456093  1
  H+  H121  1  -0.01539263  0.53968200  0.05580204  1
  H+  H122  1  0.30316627  0.14823860  0.97827829  1
  H+  H123  1  0.22090198  0.11178995  0.34538136  1
  H+  H124  1  0.83224951  0.27636466  0.65228598  1
  H+  H125  1  0.15236173  -0.02686963  0.49921622  1
  H+  H126  1  0.87464719  0.76825781  0.85768102  1
  H+  H127  1  0.77959123  0.89279474  0.65522826  1
  H+  H128  1  0.51200943  0.81385354  0.26032222  1
  H+  H129  1  0.44774007  0.87877805  0.14628867  1
  H+  H130  1  0.12385206  0.57093424  0.59134854  1
  H+  H131  1  0.21740120  0.09311827  0.84042954  1
  H+  H132  1  0.51476659  0.13328305  0.99200878  1
  H+  H133  1  0.74334198  0.24166773  0.57197214  1
  H+  H134  1  0.11842932  0.22402308  0.59488174  1
  H+  H135  1  0.58260373  0.75319888  0.93520590  1
  H+  H136  1  0.20968599  0.75895735  0.84637089  1
  H+  H137  1  0.82133371  0.95862877  0.01767041  1
  H+  H138  1  0.77283667  0.55846381  0.14680092  1
  H+  H139  1  0.09855272  0.54065709  0.15910958  1
  H+  H140  1  0.51149482  0.10242935  0.37267451  1
  H+  H141  1  0.78899125  0.22324543  0.10082243  1
  H+  H142  1  0.53709841  0.76716545  0.39571066  1
  H+  H143  1  0.20667962  0.77121270  0.39090696  1
  O2-  O144  1  0.11150293  0.22208455  0.21346880  1
  O2-  O145  1  0.12485229  0.20838468  0.71409769  1
  O2-  O146  1  0.10319575  0.55099728  0.22526512  1
  O2-  O147  1  0.10995152  0.57361594  0.69473016  1
  O2-  O148  1  0.09133297  0.88111026  0.22380474  1
  O2-  O149  1  0.07959828  0.85980024  0.74022090  1
  O2-  O150  1  0.43573514  0.22018219  0.20617742  1
  O2-  O151  1  0.43621964  0.20997344  0.71743467  1
  O2-  O152  1  0.43878280  0.55441186  0.22708175  1
  O2-  O153  1  0.41830275  0.54396964  0.71676599  1
  O2-  O154  1  0.44614910  0.88703762  0.21433291  1
  O2-  O155  1  0.42232931  0.90893766  0.73275653  1
  O2-  O156  1  0.78129289  0.23874293  0.21773302  1
  O2-  O157  1  0.82113510  0.25569654  0.75406257  1
  O2-  O158  1  0.76549743  0.55656653  0.21434500  1
  O2-  O159  1  0.74247690  0.50483395  0.69638567  1
  O2-  O160  1  0.77750297  0.86987683  0.22701846  1
  O2-  O161  1  0.77087535  0.88514750  0.72212180  1
  O2-  O162  1  0.21936864  0.10970572  0.27692055  1
  O2-  O163  1  0.21215231  0.08203328  0.77245105  1
  O2-  O164  1  0.21757406  0.44124981  0.28309740  1
  O2-  O165  1  0.21634803  0.47305388  0.80077810  1
  O2-  O166  1  0.21793586  0.77653585  0.27255235  1
  O2-  O167  1  0.20801010  0.77902268  0.78091490  1
  O2-  O168  1  0.54391448  0.11033798  0.26759854  1
  O2-  O169  1  0.57554048  0.13243861  0.78643413  1
  O2-  O170  1  0.54661245  0.43752940  0.27689242  1
  O2-  O171  1  0.53937567  0.43246052  0.78005991  1
  O2-  O172  1  0.54867314  0.77248240  0.28801065  1
  O2-  O173  1  0.54091690  0.77882874  0.75394208  1
  O2-  O174  1  0.89650031  0.15027513  0.29323717  1
  O2-  O175  1  0.89182712  0.10278912  0.79230222  1
  O2-  O176  1  0.89283489  0.46019710  0.27428190  1
  O2-  O177  1  0.91521302  0.41515827  0.88473231  1
  O2-  O178  1  0.88381571  0.77013929  0.28793563  1
  O2-  O179  1  0.87843623  0.76929704  0.78916361  1
  O2-  O180  1  0.22008649  0.11748476  0.45988754  1
  O2-  O181  1  0.22175455  0.10591420  0.95544316  1
  O2-  O182  1  0.22291610  0.44281754  0.46625243  1
  O2-  O183  1  0.23307790  0.44983787  0.98515328  1
  O2-  O184  1  0.20357399  0.76910425  0.45881148  1
  O2-  O185  1  0.21237601  0.73873756  0.96125844  1
  O2-  O186  1  0.50117576  0.09826036  0.44193272  1
  O2-  O187  1  0.56022867  0.09900801  0.96936569  1
  O2-  O188  1  0.56748891  0.44915603  0.46392711  1
  O2-  O189  1  0.55922533  0.43662447  0.96988519  1
  O2-  O190  1  0.52130374  0.75953581  0.46442942  1
  O2-  O191  1  0.57322833  0.76508825  0.99914937  1
  O2-  O192  1  0.89444770  0.13141462  0.48842231  1
  O2-  O193  1  0.89026739  0.10244397  0.97221372  1
  O2-  O194  1  0.91667661  0.46177479  0.48555409  1
  O2-  O195  1  0.81662429  0.42736752  0.88776234  1
  O2-  O196  1  0.90097126  0.77967803  0.47382642  1
  O2-  O197  1  0.88636404  0.77162380  0.97114964  1
  O2-  O198  1  0.11917386  0.21593351  0.02986941  1
  O2-  O199  1  0.11312423  0.22736439  0.52762189  1
  O2-  O200  1  0.04097512  0.52689722  0.02420824  1
  O2-  O201  1  0.12137596  0.56456470  0.52127435  1
  O2-  O202  1  0.13986144  0.89551576  0.02024176  1
  O2-  O203  1  0.11104930  0.89389790  0.52338927  1
  O2-  O204  1  0.43738718  0.21055012  0.02046611  1
  O2-  O205  1  0.43587625  0.23242872  0.53022945  1
  O2-  O206  1  0.46498710  0.55524605  0.04705997  1
  O2-  O207  1  0.43959442  0.54271610  0.53161792  1
  O2-  O208  1  0.45862649  0.86906818  0.03119073  1
  O2-  O209  1  0.41247133  0.88049936  0.51047428  1
  O2-  O210  1  0.79196363  0.21335483  0.03382707  1
  O2-  O211  1  0.82513273  0.27463844  0.58174731  1
  O2-  O212  1  0.78211932  0.54476026  0.02560967  1
  O2-  O213  1  0.79449497  0.55678964  0.51472886  1
  O2-  O214  1  0.78800272  0.87899670  0.04102878  1
  O2-  O215  1  0.79881342  0.91352389  0.53002842  1
