# generated using pymatgen
data_H2O
_symmetry_space_group_name_H-M   'P 1'
_cell_length_a   13.50275857
_cell_length_b   13.50790716
_cell_length_c   14.68317319
_cell_angle_alpha   89.95716007
_cell_angle_beta   89.95578743
_cell_angle_gamma   119.99036682
_symmetry_Int_Tables_number   1
_chemical_formula_structural   H2O
_chemical_formula_sum   'H144 O72'
_cell_volume   2319.54482867
_cell_formula_units_Z   72
loop_
 _symmetry_equiv_pos_site_id
 _symmetry_equiv_pos_as_xyz
  1  'x, y, z'
loop_
 _atom_type_symbol
 _atom_type_oxidation_number
  H+  1.0
  O2-  -2.0
loop_
 _atom_site_type_symbol
 _atom_site_label
 _atom_site_symmetry_multiplicity
 _atom_site_fract_x
 _atom_site_fract_y
 _atom_site_fract_z
 _atom_site_occupancy
  H+  H0  1  0.87986684  0.39796348  0.29198486  1
  H+  H1  1  0.29481452  0.47556595  0.75739554  1
  H+  H2  1  0.28748477  0.12684262  -0.00982691  1
  H+  H3  1  0.19399720  0.34050123  -0.01785743  1
  H+  H4  1  0.68656355  0.16319988  -0.00675390  1
  H+  H5  1  0.48222620  0.51437683  0.24589214  1
  H+  H6  1  0.82274699  0.99194800  -0.00097190  1
  H+  H7  1  0.18391922  0.17620707  0.26311055  1
  H+  H8  1  0.84673957  0.36109965  0.78153581  1
  H+  H9  1  0.15799751  0.96340226  0.51199701  1
  H+  H10  1  0.36675215  0.19111234  0.24168922  1
  H+  H11  1  0.03309814  0.18199980  0.22859798  1
  H+  H12  1  0.29487745  0.14074223  0.50308712  1
  H+  H13  1  0.63721617  0.48622041  0.99197620  1
  H+  H14  1  0.15618614  0.97389485  0.74967678  1
  H+  H15  1  0.28144273  0.43384452  0.45950972  1
  H+  H16  1  0.80814170  0.52349286  0.25222884  1
  H+  H17  1  0.82622286  0.12843790  0.98469769  1
  H+  H18  1  0.30247428  0.46553405  -0.01628828  1
  H+  H19  1  0.47871124  0.85155869  0.05325522  1
  H+  H20  1  0.51616327  0.81818122  0.48424646  1
  H+  H21  1  0.36160993  0.17939654  0.74745094  1
  H+  H22  1  0.51292412  0.15262164  -0.00581410  1
  H+  H23  1  0.51018917  -0.01287045  0.19959836  1
  H+  H24  1  0.70348596  0.83555237  0.74130600  1
  H+  H25  1  0.02294355  0.16026759  0.51683315  1
  H+  H26  1  0.18465142  0.82783102  0.78056898  1
  H+  H27  1  0.84810941  0.41039060  0.48439117  1
  H+  H28  1  0.61772891  0.81279403  1.00819600  1
  H+  H29  1  0.85797223  0.81184666  0.75539984  1
  H+  H30  1  0.47555061  0.58713122  0.66787830  1
  H+  H31  1  0.70576029  0.51718325  0.74316748  1
  H+  H32  1  0.55564443  0.44392571  0.90494241  1
  H+  H33  1  0.29450896  0.81335199  0.77565046  1
  H+  H34  1  0.81529003  0.84806858  0.00469725  1
  H+  H35  1  0.62002167  0.89824058  0.81564478  1
  H+  H36  1  0.18232834  0.81997654  0.49931954  1
  H+  H37  1  0.14839600  0.97757004  -0.00440414  1
  H+  H38  1  0.16686485  0.54712983  0.71667021  1
  H+  H39  1  0.51197182  0.15428023  0.24434736  1
  H+  H40  1  0.49204175  0.12887546  0.48088335  1
  H+  H41  1  0.47647543  0.95874460  0.50377762  1
  H+  H42  1  0.85355719  0.48069770  0.76675962  1
  H+  H43  1  0.16107978  0.69227731  0.00394474  1
  H+  H44  1  0.84571500  0.14414817  0.25599970  1
  H+  H45  1  0.47918766  0.17781316  0.74409269  1
  H+  H46  1  0.51427612  0.48841520  0.51802167  1
  H+  H47  1  0.17368824  0.05820595  0.28529766  1
  H+  H48  1  0.81348591  0.51616528  1.00390160  1
  H+  H49  1  0.03999689  0.84649906  0.51097099  1
  H+  H50  1  0.68421436  0.16862492  0.22592225  1
  H+  H51  1  0.81936924  0.16021858  0.77428169  1
  H+  H52  1  0.84507651  -0.00119590  0.48871252  1
  H+  H53  1  0.79744305  0.28197420  0.19684535  1
  H+  H54  1  0.85698598  0.82405629  0.25825299  1
  H+  H55  1  0.81718777  -0.03448603  0.23641073  1
  H+  H56  1  0.84007183  0.10832554  0.50671911  1
  H+  H57  1  0.81798721  0.24306720  0.47126179  1
  H+  H58  1  0.63290817  0.48638076  0.27157879  1
  H+  H59  1  0.21895921  0.43160895  0.84637784  1
  H+  H60  1  0.15831539  0.15007572  1.00524983  1
  H+  H61  1  0.51792437  0.36338608  0.75941670  1
  H+  H62  1  0.17969365  0.36132134  0.23764873  1
  H+  H63  1  0.61271189  0.14076318  0.46604925  1
  H+  H64  1  0.52459731  0.48605636  0.76376022  1
  H+  H65  1  0.51673461  0.69377586  0.25571302  1
  H+  H66  1  0.14515199  0.57680250  0.61893028  1
  H+  H67  1  0.50075010  0.69290948  1.00515330  1
  H+  H68  1  0.86393597  0.71497605  0.49251641  1
  H+  H69  1  0.04199264  0.52884953  0.48406346  1
  H+  H70  1  0.86667679  0.53454811  0.50049767  1
  H+  H71  1  0.49885175  0.65543571  0.51018522  1
  H+  H72  1  0.14553478  0.29850155  0.74962897  1
  H+  H73  1  -0.02874975  0.81496477  0.25600055  1
  H+  H74  1  0.85143569  0.36319898  -0.00833807  1
  H+  H75  1  0.18629188  0.14833622  0.77299481  1
  H+  H76  1  0.62578341  0.13670299  0.77252275  1
  H+  H77  1  0.96201532  0.82703368  -0.01312092  1
  H+  H78  1  0.47380685  -0.03694002  0.73767622  1
  H+  H79  1  0.05020284  0.53850363  0.24597178  1
  H+  H80  1  0.15817714  0.51913049  0.23504168  1
  H+  H81  1  0.52730084  0.81647437  0.24512403  1
  H+  H82  1  0.82680978  0.63572454  0.74622733  1
  H+  H83  1  0.69568940  0.83527579  0.50320785  1
  H+  H84  1  0.49053314  0.52081048  0.00998996  1
  H+  H85  1  0.81094151  0.63320463  0.00237111  1
  H+  H86  1  1.04211089  0.16333463  1.00918199  1
  H+  H87  1  0.16215245  0.94808045  0.20250752  1
  H+  H88  1  -0.02168870  0.81642211  0.76421180  1
  H+  H89  1  0.48655678  0.30603658  0.24129395  1
  H+  H90  1  0.85689831  1.01496059  0.76292424  1
  H+  H91  1  0.71273227  0.54355689  0.51956092  1
  H+  H92  1  1.02793501  0.52930859  1.01294108  1
  H+  H93  1  0.38070891  0.55644066  0.54886250  1
  H+  H94  1  0.81851438  0.83750627  0.50519375  1
  H+  H95  1  0.80478049  0.63851264  0.25769548  1
  H+  H96  1  0.55464754  0.77765998  0.39348209  1
  H+  H97  1  0.31579637  0.82723703  0.20029259  1
  H+  H98  1  0.14520131  0.16923262  0.52083269  1
  H+  H99  1  0.48823295  0.30366136  0.00639966  1
  H+  H100  1  0.15261560  0.51094086  0.47379622  1
  H+  H101  1  0.97477971  0.13876186  0.77112147  1
  H+  H102  1  0.56221524  0.42880371  0.57955178  1
  H+  H103  1  0.36415586  0.51523595  0.23921851  1
  H+  H104  1  0.15954469  0.83206094  0.21799904  1
  H+  H105  1  0.49714629  0.64412095  0.76495820  1
  H+  H106  1  0.46868918  0.27882092  0.51520342  1
  H+  H107  1  0.31150233  0.82228796  0.49850890  1
  H+  H108  1  0.44853524  0.22535408  0.09529042  1
  H+  H109  1  0.77407575  0.87395737  0.64735876  1
  H+  H110  1  0.44130521  0.88339714  0.59713789  1
  H+  H111  1  0.10367847  0.21297523  0.66434305  1
  H+  H112  1  0.80385193  0.22161172  0.69174264  1
  H+  H113  1  0.54370903  0.43266608  0.35420886  1
  H+  H114  1  0.76012429  0.25183157  0.56058067  1
  H+  H115  1  0.11211782  0.57175103  0.09982064  1
  H+  H116  1  0.78897325  0.57791195  0.61161704  1
  H+  H117  1  0.77886358  0.88973101  0.09972092  1
  H+  H118  1  0.11973902  0.89138596  0.66157063  1
  H+  H119  1  0.16188345  0.82161623  -0.00454928  1
  H+  H120  1  0.91201492  0.49692839  0.36002754  1
  H+  H121  1  0.18854016  0.69555993  0.48132468  1
  H+  H122  1  0.11523646  0.21035823  0.13865278  1
  H+  H123  1  0.87893225  0.08389228  0.90041196  1
  H+  H124  1  0.53783236  0.09570155  0.85459328  1
  H+  H125  1  0.89265582  0.44719475  0.90637083  1
  H+  H126  1  0.22130794  0.12063442  0.41283224  1
  H+  H127  1  0.88668561  0.10447574  0.34489720  1
  H+  H128  1  0.50931439  0.03299561  1.00800284  1
  H+  H129  1  0.88117970  0.78300696  0.89970713  1
  H+  H130  1  0.22125963  0.78688528  0.91102190  1
  H+  H131  1  0.90354910  0.79076287  0.39986040  1
  H+  H132  1  0.54116159  0.09880269  0.32907291  1
  H+  H133  1  0.70046116  0.84417323  0.23667069  1
  H+  H134  1  0.22210157  0.10247326  0.86228327  1
  H+  H135  1  0.44614479  0.55456220  0.09959573  1
  H+  H136  1  0.20967047  0.71023628  0.23252910  1
  H+  H137  1  0.76501340  0.18993135  0.08054372  1
  H+  H138  1  0.47016416  0.84388325  0.73967225  1
  H+  H139  1  0.20598337  0.42485365  0.33252408  1
  H+  H140  1  0.15910314  0.33279092  0.48546084  1
  H+  H141  1  0.55083378  0.79243421  0.87809719  1
  H+  H142  1  0.43474455  0.20297936  0.60599456  1
  H+  H143  1  0.09321309  0.88058026  0.08180598  1
  O2-  O144  1  0.11402314  0.22233197  0.20806742  1
  O2-  O145  1  0.10349112  0.21417420  0.73187640  1
  O2-  O146  1  0.12614910  0.56886053  0.21678337  1
  O2-  O147  1  0.17370290  0.61012367  0.67893064  1
  O2-  O148  1  0.10753869  0.86651586  0.20485944  1
  O2-  O149  1  0.11404320  0.89176944  0.72870325  1
  O2-  O150  1  0.44567257  0.22552315  0.21753578  1
  O2-  O151  1  0.44052190  0.21830458  0.71863099  1
  O2-  O152  1  0.44648110  0.55795865  0.22093984  1
  O2-  O153  1  0.46453736  0.57029077  0.73392931  1
  O2-  O154  1  0.49519869  0.91094264  0.17631274  1
  O2-  O155  1  0.43603487  0.88501629  0.70955562  1
  O2-  O156  1  0.76462031  0.19941830  0.20076039  1
  O2-  O157  1  0.77791497  0.20115677  0.75427460  1
  O2-  O158  1  0.75756599  0.55571039  0.24422338  1
  O2-  O159  1  0.78525970  0.55752028  0.71770445  1
  O2-  O160  1  0.78027344  0.88618998  0.21145610  1
  O2-  O161  1  0.78125836  0.87788833  0.71550345  1
  O2-  O162  1  0.22505324  0.13954154  0.29538316  1
  O2-  O163  1  0.22844232  0.10885042  0.79150432  1
  O2-  O164  1  0.21864915  0.43939274  0.26619774  1
  O2-  O165  1  0.21458829  0.43372628  0.77726226  1
  O2-  O166  1  0.24870107  0.79508914  0.24027804  1
  O2-  O167  1  0.22887376  0.79876773  0.81394579  1
  O2-  O168  1  0.55250266  0.11127265  0.26220575  1
  O2-  O169  1  0.54281752  0.09832118  0.78636858  1
  O2-  O170  1  0.54681414  0.43887742  0.28798119  1
  O2-  O171  1  0.56525113  0.44406551  0.78037007  1
  O2-  O172  1  0.56083893  0.77581709  0.27729709  1
  O2-  O173  1  0.57164348  0.81525784  0.81138963  1
  O2-  O174  1  0.88905678  0.10688046  0.27742220  1
  O2-  O175  1  0.89214333  0.09114946  0.79368878  1
  O2-  O176  1  0.91146338  0.48040688  0.29295050  1
  O2-  O177  1  0.89149499  0.44264461  0.79644798  1
  O2-  O178  1  0.89543961  0.78466409  0.28613746  1
  O2-  O179  1  0.89554304  0.77228227  0.78364228  1
  O2-  O180  1  0.21441501  0.10391180  0.47952066  1
  O2-  O181  1  0.20844796  0.08991430  0.96734384  1
  O2-  O182  1  0.20068243  0.40988894  0.45340954  1
  O2-  O183  1  0.22672912  0.41795659  0.95546478  1
  O2-  O184  1  0.22872453  0.78344019  0.47399835  1
  O2-  O185  1  0.20781680  0.78103543  0.98217286  1
  O2-  O186  1  0.53115075  0.09038867  0.45183401  1
  O2-  O187  1  0.54789635  0.10493180  0.97241327  1
  O2-  O188  1  0.55326680  0.44202624  0.51528573  1
  O2-  O189  1  0.55330084  0.44483031  0.97237965  1
  O2-  O190  1  0.55735538  0.77839519  0.46203539  1
  O2-  O191  1  0.53695638  0.77755607  0.98884450  1
  O2-  O192  1  0.88363304  0.08309811  0.47022274  1
  O2-  O193  1  0.86823048  0.08334672  0.96951307  1
  O2-  O194  1  0.90221234  0.49167079  0.47136235  1
  O2-  O195  1  0.88975053  0.44477197  0.97550572  1
  O2-  O196  1  0.90602630  0.79508695  0.46853219  1
  O2-  O197  1  0.87863171  0.78884381  0.96752294  1
  O2-  O198  1  0.11982456  0.19810730  0.03335279  1
  O2-  O199  1  0.10236527  0.20925843  0.53936590  1
  O2-  O200  1  0.10866291  0.57999883  0.03278174  1
  O2-  O201  1  0.12669477  0.56574709  0.48946043  1
  O2-  O202  1  0.09617063  0.88617080  0.01468128  1
  O2-  O203  1  0.12084189  0.88230950  0.53399707  1
  O2-  O204  1  0.45109988  0.22216512  0.02784146  1
  O2-  O205  1  0.43162845  0.19892909  0.53674019  1
  O2-  O206  1  0.44794897  0.55969114  0.03187674  1
  O2-  O207  1  0.46147583  0.57937889  0.54443582  1
  O2-  O208  1  0.45393463  0.90297717  0.08215016  1
  O2-  O209  1  0.43850886  0.87875926  0.52820188  1
  O2-  O210  1  0.76902499  0.19526217  0.01292199  1
  O2-  O211  1  0.75882743  0.25802913  0.49437752  1
  O2-  O212  1  0.76766963  0.55230506  0.02103052  1
  O2-  O213  1  0.79222070  0.58663704  0.54199717  1
  O2-  O214  1  0.77485897  0.89063710  0.03057476  1
  O2-  O215  1  0.77416703  0.87369588  0.53037622  1
