# generated using pymatgen
data_H2O
_symmetry_space_group_name_H-M   'P 1'
_cell_length_a   13.47894313
_cell_length_b   13.48821029
_cell_length_c   14.67283846
_cell_angle_alpha   90.04106768
_cell_angle_beta   89.88788030
_cell_angle_gamma   119.94604922
_symmetry_Int_Tables_number   1
_chemical_formula_structural   H2O
_chemical_formula_sum   'H144 O72'
_cell_volume   2311.47888643
_cell_formula_units_Z   72
loop_
 _symmetry_equiv_pos_site_id
 _symmetry_equiv_pos_as_xyz
  1  'x, y, z'
loop_
 _atom_type_symbol
 _atom_type_oxidation_number
  H+  1.0
  O2-  -2.0
loop_
 _atom_site_type_symbol
 _atom_site_label
 _atom_site_symmetry_multiplicity
 _atom_site_fract_x
 _atom_site_fract_y
 _atom_site_fract_z
 _atom_site_occupancy
  H+  H0  1  0.30417599  0.14538330  -0.01919233  1
  H+  H1  1  0.86885096  0.11330736  0.37619271  1
  H+  H2  1  -0.01655268  0.48093927  0.28586886  1
  H+  H3  1  0.97270707  0.15706369  0.77515973  1
  H+  H4  1  0.16814074  0.18195980  0.50634388  1
  H+  H5  1  0.69895742  0.84203981  1.01553673  1
  H+  H6  1  0.52194598  0.04035020  0.45823038  1
  H+  H7  1  0.52140359  0.81770003  0.26278242  1
  H+  H8  1  0.31957625  0.48312378  0.24787591  1
  H+  H9  1  0.17155712  0.80464527  0.71911354  1
  H+  H10  1  0.91542754  0.77809399  0.25172788  1
  H+  H11  1  0.20624678  0.09491870  0.40489724  1
  H+  H12  1  -0.14282567  0.47242303  0.76371887  1
  H+  H13  1  0.14243529  0.16834392  0.74370866  1
  H+  H14  1  0.31151719  0.81921119  0.25062852  1
  H+  H15  1  0.18554655  0.48605173  1.04662574  1
  H+  H16  1  0.03530511  0.18821614  0.00572384  1
  H+  H17  1  0.83432730  0.83940319  0.73291035  1
  H+  H18  1  0.65315205  0.59258959  0.34517453  1
  H+  H19  1  0.82888561  0.47435026  0.49724262  1
  H+  H20  1  0.81563744  0.29303608  0.51835796  1
  H+  H21  1  0.83786619  1.04738959  0.23427764  1
  H+  H22  1  0.49689731  0.56908882  0.60462846  1
  H+  H23  1  0.80056628  0.59568473  1.03449578  1
  H+  H24  1  0.55130347  0.48974224  0.73551033  1
  H+  H25  1  0.71405205  0.50490125  0.74302499  1
  H+  H26  1  0.84055781  0.33733026  0.00400871  1
  H+  H27  1  0.33660984  0.89603037  0.48364681  1
  H+  H28  1  0.18979790  0.70087441  0.04471954  1
  H+  H29  1  0.29957294  0.81676097  0.70802540  1
  H+  H30  1  0.20531392  0.83463956  0.27492635  1
  H+  H31  1  -0.03276995  0.50063504  0.50314441  1
  H+  H32  1  0.02012947  0.89970850  0.26758319  1
  H+  H33  1  0.55225034  0.67959839  0.74335451  1
  H+  H34  1  0.14354966  0.28722614  0.72659631  1
  H+  H35  1  0.11418896  0.20922192  0.60594414  1
  H+  H36  1  0.52781433  0.15696694  0.46473842  1
  H+  H37  1  0.66496041  0.50782694  0.27865637  1
  H+  H38  1  0.48546480  0.16236286  0.22774679  1
  H+  H39  1  -0.11540791  0.42086197  -0.08385426  1
  H+  H40  1  0.67370306  0.47054563  0.51893022  1
  H+  H41  1  0.20274062  0.82508286  1.05285464  1
  H+  H42  1  0.47319535  -0.02099172  0.73883062  1
  H+  H43  1  0.99083327  0.82400278  0.69909467  1
  H+  H44  1  0.29362234  0.13716950  0.48916624  1
  H+  H45  1  0.17003561  0.67795620  0.72771662  1
  H+  H46  1  0.91891912  0.84189739  0.49665032  1
  H+  H47  1  0.46749466  0.27390134  0.50857364  1
  H+  H48  1  0.08393631  0.97197221  0.60898018  1
  H+  H49  1  0.48233247  0.28839697  1.00019694  1
  H+  H50  1  0.51946656  1.13535651  -0.00958062  1
  H+  H51  1  0.29529221  0.47038299  0.73891042  1
  H+  H52  1  0.83082061  0.88346983  0.24968892  1
  H+  H53  1  0.83704199  0.62099188  0.72740429  1
  H+  H54  1  0.51346972  0.76775955  0.77175850  1
  H+  H55  1  0.83816901  0.13942487  0.47342432  1
  H+  H56  1  0.51671901  0.14443858  0.76607580  1
  H+  H57  1  0.84740258  0.03359317  0.99223517  1
  H+  H58  1  0.37067176  0.17762659  0.74201440  1
  H+  H59  1  0.51945995  0.80024218  -0.00858014  1
  H+  H60  1  0.49891420  0.96646701  0.23452585  1
  H+  H61  1  0.29488170  0.11485033  0.24975736  1
  H+  H62  1  -0.03960132  0.15854558  0.23098824  1
  H+  H63  1  0.69778175  0.17289863  0.74636576  1
  H+  H64  1  0.72004791  0.84269546  0.74295449  1
  H+  H65  1  0.80312691  0.47834004  0.01648752  1
  H+  H66  1  0.13594978  0.89264092  0.59917004  1
  H+  H67  1  0.06659750  0.80383065  0.49142872  1
  H+  H68  1  0.16070467  0.28589379  0.22881285  1
  H+  H69  1  0.51112896  0.47009238  0.98724880  1
  H+  H70  1  0.04665397  0.86484600  0.05314329  1
  H+  H71  1  0.16490863  0.31194893  0.52486998  1
  H+  H72  1  0.14288217  0.56691646  0.82436191  1
  H+  H73  1  -0.16537305  0.15165933  0.00362677  1
  H+  H74  1  0.32520678  0.49235886  1.04171360  1
  H+  H75  1  0.18361027  0.47573671  0.71976299  1
  H+  H76  1  0.16123651  0.52553728  0.25686467  1
  H+  H77  1  0.81621676  0.18155745  0.16173930  1
  H+  H78  1  0.45935758  0.70669263  0.50447386  1
  H+  H79  1  0.83613470  0.80188131  1.03513623  1
  H+  H80  1  0.18738724  0.03429113  0.74265801  1
  H+  H81  1  0.15835272  0.95724431  0.17617991  1
  H+  H82  1  0.14489748  0.56304744  0.53547014  1
  H+  H83  1  0.46920163  0.58086205  0.47141146  1
  H+  H84  1  0.83747271  0.58189867  0.22668965  1
  H+  H85  1  0.69942838  0.85659625  0.25392012  1
  H+  H86  1  0.46720965  0.82459625  0.47866384  1
  H+  H87  1  0.69615852  0.17940855  0.50642812  1
  H+  H88  1  0.85874797  0.35464549  0.76274800  1
  H+  H89  1  0.48243242  0.62686236  0.01538818  1
  H+  H90  1  0.50010592  0.95516694  0.00905606  1
  H+  H91  1  0.18873053  0.36104939  1.03282017  1
  H+  H92  1  0.46553783  0.26834932  0.23829321  1
  H+  H93  1  0.38146701  0.83933260  1.03070641  1
  H+  H94  1  0.49197309  0.29314186  0.73491332  1
  H+  H95  1  0.85021915  0.16132057  0.77319220  1
  H+  H96  1  0.84993134  0.44376635  0.27487829  1
  H+  H97  1  0.64133071  0.14958307  0.21797760  1
  H+  H98  1  0.47754622  0.87584510  0.68706494  1
  H+  H99  1  0.50858803  0.53938554  0.24940849  1
  H+  H100  1  0.16105071  0.97930231  0.02309464  1
  H+  H101  1  0.85783567  0.97701649  0.50022943  1
  H+  H102  1  0.48745799  0.45048056  0.50239734  1
  H+  H103  1  0.02621062  0.49616012  0.03019538  1
  H+  H104  1  0.18671899  0.14915806  0.98075087  1
  H+  H105  1  0.62868994  0.63873900  0.63906713  1
  H+  H106  1  0.49387973  0.64891930  0.24615262  1
  H+  H107  1  0.30549832  0.48324044  0.51214785  1
  H+  H108  1  0.09649859  0.54249932  0.12476458  1
  H+  H109  1  0.77248818  0.89449621  0.10666903  1
  H+  H110  1  0.43668576  0.19042346  0.59287136  1
  H+  H111  1  0.55398354  0.09597129  0.85360873  1
  H+  H112  1  0.19454847  0.78974100  0.87520811  1
  H+  H113  1  0.82734734  0.90835506  0.59548396  1
  H+  H114  1  0.96266550  0.78912641  0.80133244  1
  H+  H115  1  0.19565956  0.45997253  0.44734965  1
  H+  H116  1  0.75996659  0.49503833  0.15288501  1
  H+  H117  1  0.54070158  0.77206893  0.35707332  1
  H+  H118  1  0.89551031  0.44271061  0.39984785  1
  H+  H119  1  0.42582717  0.92733401  0.56913394  1
  H+  H120  1  0.63994846  0.13667893  0.99540395  1
  H+  H121  1  0.58547893  0.12598441  0.32098239  1
  H+  H122  1  0.25393730  0.79814439  0.87320632  1
  H+  H123  1  0.21830654  0.09578727  0.84278418  1
  H+  H124  1  0.46533586  0.88157210  0.15047370  1
  H+  H125  1  0.55966997  0.44302261  0.83606628  1
  H+  H126  1  0.16420315  0.43726887  0.88203560  1
  H+  H127  1  0.54796495  0.43027859  0.41721580  1
  H+  H128  1  0.88752289  0.75932378  0.96024525  1
  H+  H129  1  0.21695742  0.49580137  0.88418449  1
  H+  H130  1  0.77510637  0.20929617  0.65574367  1
  H+  H131  1  0.24533597  0.41478148  0.33111656  1
  H+  H132  1  0.89035432  0.12502184  0.88148114  1
  H+  H133  1  0.62538991  0.46256922  0.98764446  1
  H+  H134  1  0.45932011  0.55839660  0.11110656  1
  H+  H135  1  0.14614466  0.16033995  0.23167572  1
  H+  H136  1  0.95255883  0.81859906  0.40047993  1
  H+  H137  1  0.11129472  0.20822253  0.09435740  1
  H+  H138  1  0.11675037  0.66518129  0.53068160  1
  H+  H139  1  0.44099439  0.20787388  0.08896389  1
  H+  H140  1  0.15655667  0.64347186  0.25435544  1
  H+  H141  1  0.55880273  0.74687028  0.90833366  1
  H+  H142  1  0.76699422  0.51996839  0.60070833  1
  H+  H143  1  0.02899932  0.51289072  0.76532563  1
  O2-  O144  1  0.11311075  0.20607484  0.20682283  1
  O2-  O145  1  0.09619416  0.20183157  0.71851600  1
  O2-  O146  1  0.11236158  0.55787412  0.23985666  1
  O2-  O147  1  0.11723478  0.56382495  0.76147270  1
  O2-  O148  1  0.15988637  0.95879685  0.24546209  1
  O2-  O149  1  0.10987182  0.92973530  0.64714248  1
  O2-  O150  1  0.43261854  0.19312665  0.20988878  1
  O2-  O151  1  0.45036075  0.21031769  0.71833375  1
  O2-  O152  1  0.45983726  0.56726817  0.22137054  1
  O2-  O153  1  0.55129331  0.59462920  0.66401378  1
  O2-  O154  1  0.45883253  0.88366556  0.21847172  1
  O2-  O155  1  0.42569826  0.90399475  0.70262381  1
  O2-  O156  1  0.76340665  0.20645521  0.13562092  1
  O2-  O157  1  0.77889662  0.21318151  0.72440725  1
  O2-  O158  1  0.77316977  0.50397705  0.22148927  1
  O2-  O159  1  0.79297264  0.53711010  0.71632687  1
  O2-  O160  1  0.77498784  0.90288251  0.22258591  1
  O2-  O161  1  0.79730220  0.88385712  0.71646463  1
  O2-  O162  1  0.21313502  0.08053537  0.27192766  1
  O2-  O163  1  0.22424644  0.10847016  0.77498047  1
  O2-  O164  1  0.23767926  0.43375933  0.26838042  1
  O2-  O165  1  0.21958325  0.42811056  0.71191535  1
  O2-  O166  1  0.22981759  0.77782511  0.26946554  1
  O2-  O167  1  0.21124184  0.76370341  0.70068028  1
  O2-  O168  1  0.56923184  0.11475489  0.25388984  1
  O2-  O169  1  0.55245711  0.09743334  0.78473066  1
  O2-  O170  1  0.60772913  0.51934511  0.31414403  1
  O2-  O171  1  0.57219253  0.43865891  0.76956332  1
  O2-  O172  1  0.55756448  0.77432812  0.29004860  1
  O2-  O173  1  0.56643333  0.74186078  0.78902178  1
  O2-  O174  1  0.87854260  0.13255320  0.24140476  1
  O2-  O175  1  0.89573678  0.12978965  0.80522424  1
  O2-  O176  1  0.90396493  0.42989581  0.31097485  1
  O2-  O177  1  0.89954193  0.43409467  0.78828013  1
  O2-  O178  1  0.93593342  0.85050021  0.28094711  1
  O2-  O179  1  0.92805971  0.76958717  0.74105316  1
  O2-  O180  1  0.21336991  0.11457616  0.47024816  1
  O2-  O181  1  0.22232788  0.10386308  0.95943174  1
  O2-  O182  1  0.21512507  0.44407050  0.50732356  1
  O2-  O183  1  0.23278379  0.44539020  1.05045417  1
  O2-  O184  1  0.22832754  0.88055252  0.45561277  1
  O2-  O185  1  0.24491341  0.78346704  1.04561120  1
  O2-  O186  1  0.57327632  0.12301274  0.44012324  1
  O2-  O187  1  0.55975668  0.09490805  0.96840300  1
  O2-  O188  1  0.53257495  0.41146139  0.48266418  1
  O2-  O189  1  0.54809179  0.42988432  0.95899788  1
  O2-  O190  1  0.50154719  0.77448786  0.46654972  1
  O2-  O191  1  0.55734293  0.75345202  0.97572166  1
  O2-  O192  1  0.87504032  0.10194254  0.44166768  1
  O2-  O193  1  0.88404965  0.11523150  0.97238601  1
  O2-  O194  1  0.88800296  0.44665099  0.47549492  1
  O2-  O195  1  0.88208646  0.42127597  0.98367264  1
  O2-  O196  1  0.95323639  0.79944146  0.46509721  1
  O2-  O197  1  0.87789061  0.75731597  1.02622099  1
  O2-  O198  1  0.11623456  0.22300504  0.02654962  1
  O2-  O199  1  0.12887081  0.22555797  0.53819648  1
  O2-  O200  1  0.10483543  0.53881522  0.05687857  1
  O2-  O201  1  0.08603771  0.58359776  0.54794707  1
  O2-  O202  1  0.12893673  0.91319428  0.06678653  1
  O2-  O203  1  0.13929274  0.80954059  0.52101510  1
  O2-  O204  1  0.44173825  0.20701671  0.02116505  1
  O2-  O205  1  0.43111589  0.19072338  0.52536805  1
  O2-  O206  1  0.44305229  0.54663411  0.04322154  1
  O2-  O207  1  0.43012867  0.52966272  0.52249258  1
  O2-  O208  1  0.46749865  0.87597079  0.03407076  1
  O2-  O209  1  0.42147214  0.91503397  0.50313234  1
  O2-  O210  1  0.77285995  0.20304301  0.03447824  1
  O2-  O211  1  0.77105608  0.21334319  0.53990571  1
  O2-  O212  1  0.75635437  0.51151870  0.04313044  1
  O2-  O213  1  0.75731509  0.51188165  0.53317757  1
  O2-  O214  1  0.77902416  0.88747768  0.03897997  1
  O2-  O215  1  0.85552886  0.91139853  0.53273911  1
