# generated using pymatgen
data_H2O
_symmetry_space_group_name_H-M   'P 1'
_cell_length_a   13.52177483
_cell_length_b   13.52089561
_cell_length_c   14.70047518
_cell_angle_alpha   89.95509907
_cell_angle_beta   90.01843444
_cell_angle_gamma   119.92337826
_symmetry_Int_Tables_number   1
_chemical_formula_structural   H2O
_chemical_formula_sum   'H144 O72'
_cell_volume   2329.35578326
_cell_formula_units_Z   72
loop_
 _symmetry_equiv_pos_site_id
 _symmetry_equiv_pos_as_xyz
  1  'x, y, z'
loop_
 _atom_type_symbol
 _atom_type_oxidation_number
  H+  1.0
  O2-  -2.0
loop_
 _atom_site_type_symbol
 _atom_site_label
 _atom_site_symmetry_multiplicity
 _atom_site_fract_x
 _atom_site_fract_y
 _atom_site_fract_z
 _atom_site_occupancy
  H+  H0  1  0.82732341  0.37035741  0.98605223  1
  H+  H1  1  0.50614593  -0.01143373  0.56164653  1
  H+  H2  1  0.30757982  0.14529018  0.49745313  1
  H+  H3  1  0.82773691  0.85572219  0.75246858  1
  H+  H4  1  0.51727235  0.81560403  0.26278866  1
  H+  H5  1  0.87584445  0.17878755  0.49058234  1
  H+  H6  1  0.14799096  0.18016169  0.74278192  1
  H+  H7  1  0.83013489  0.58548447  0.61759284  1
  H+  H8  1  0.46920029  0.51091050  0.51440458  1
  H+  H9  1  0.51571002  0.81609739  0.50444590  1
  H+  H10  1  0.48774151  0.18962644  0.74516712  1
  H+  H11  1  0.19110552  0.81869830  0.25812540  1
  H+  H12  1  0.87755823  0.72805534  0.49517450  1
  H+  H13  1  0.49168272  0.18186497  0.52782970  1
  H+  H14  1  0.05543800  0.51440364  0.24528855  1
  H+  H15  1  0.47920450  0.94842820  0.20379920  1
  H+  H16  1  0.83835607  0.14596958  0.25816577  1
  H+  H17  1  1.10978441  0.21877263  0.65298319  1
  H+  H18  1  0.17673729  0.48215735  0.97648882  1
  H+  H19  1  0.04045209  0.85166163  0.74828093  1
  H+  H20  1  0.19014775  0.01803116  0.98209506  1
  H+  H21  1  0.80904308  0.14639073  0.73406549  1
  H+  H22  1  0.36568601  0.17286816  -0.00381864  1
  H+  H23  1  0.37121419  0.56313845  0.21124072  1
  H+  H24  1  0.47630943  0.96229207  -0.00489616  1
  H+  H25  1  0.76794982  0.88991600  0.60762045  1
  H+  H26  1  0.50914706  0.64593670  0.74434516  1
  H+  H27  1  0.22997925  0.10007436  -0.10532929  1
  H+  H28  1  0.17474851  0.52136352  0.25518439  1
  H+  H29  1  0.68767620  0.17349962  0.00288478  1
  H+  H30  1  0.13725959  0.61952961  -0.00801556  1
  H+  H31  1  0.65411559  0.16925154  0.50271664  1
  H+  H32  1  0.80320662  0.86328842  0.51495487  1
  H+  H33  1  1.02107226  0.83729059  1.00769524  1
  H+  H34  1  0.20617851  0.82048013  0.74199640  1
  H+  H35  1  0.47133553  0.33062892  0.48741379  1
  H+  H36  1  0.70556373  0.86025633  0.01004625  1
  H+  H37  1  0.53273855  0.71379706  -0.02787981  1
  H+  H38  1  0.85502414  0.35121624  0.25159030  1
  H+  H39  1  0.87315249  0.71855923  0.26007926  1
  H+  H40  1  0.24537748  0.78813045  0.40257107  1
  H+  H41  1  0.48035561  0.68700857  0.49122685  1
  H+  H42  1  0.90192065  0.79972195  0.40296304  1
  H+  H43  1  0.32210573  0.82277233  0.71385263  1
  H+  H44  1  0.16289742  0.63718043  0.50563550  1
  H+  H45  1  0.49289243  0.31223327  0.74696811  1
  H+  H46  1  0.49578875  0.66133744  0.23646387  1
  H+  H47  1  0.04290997  0.86019803  0.50741183  1
  H+  H48  1  0.84629749  0.80924865  -0.00648653  1
  H+  H49  1  0.90037257  0.42972366  0.34151453  1
  H+  H50  1  0.95836268  0.14755873  0.26048693  1
  H+  H51  1  0.18760006  1.03058685  0.49534881  1
  H+  H52  1  0.68589733  0.17662202  0.23462790  1
  H+  H53  1  1.03843748  0.85254567  0.24235256  1
  H+  H54  1  0.67191469  0.54952402  0.26895583  1
  H+  H55  1  0.82820522  0.49226765  -0.01658846  1
  H+  H56  1  0.85739011  0.03249860  0.77431221  1
  H+  H57  1  0.35759612  0.51755556  0.52420351  1
  H+  H58  1  0.47886236  0.03554479  0.30857133  1
  H+  H59  1  0.56368677  0.79954776  0.83760738  1
  H+  H60  1  0.78991499  0.22906123  0.59254358  1
  H+  H61  1  1.03746419  0.20241986  1.02766016  1
  H+  H62  1  0.83317561  0.32077133  0.50791670  1
  H+  H63  1  0.52290420  0.37693630  0.98720551  1
  H+  H64  1  0.81084175  0.18202764  1.00908383  1
  H+  H65  1  0.83521046  0.68125512  -0.01181972  1
  H+  H66  1  0.70966936  0.85921469  0.74880341  1
  H+  H67  1  0.16287040  0.18899158  0.51255574  1
  H+  H68  1  0.44251388  0.28002195  0.22798355  1
  H+  H69  1  0.15951636  0.85326290  0.51119358  1
  H+  H70  1  0.87807569  0.49886027  0.48718266  1
  H+  H71  1  0.34033633  0.15667009  0.23390392  1
  H+  H72  1  0.19551006  0.70082965  0.26481523  1
  H+  H73  1  1.04696012  0.19628926  0.50859602  1
  H+  H74  1  0.13852743  0.28802907  0.25907219  1
  H+  H75  1  0.95356433  0.64657799  0.57719279  1
  H+  H76  1  0.66061088  0.54578291  0.21859882  1
  H+  H77  1  0.68080653  0.58900754  0.51742096  1
  H+  H78  1  0.50878992  0.14641064  -0.01714386  1
  H+  H79  1  0.49395397  0.14988249  0.26581691  1
  H+  H80  1  0.98804287  0.48820830  0.48273661  1
  H+  H81  1  0.70599363  0.52234317  0.73916721  1
  H+  H82  1  0.31620280  0.82118974  0.49636020  1
  H+  H83  1  0.16735350  0.14055778  0.26510201  1
  H+  H84  1  0.18635094  0.36729452  0.50330216  1
  H+  H85  1  1.01893809  0.50369171  0.98852970  1
  H+  H86  1  0.18845947  0.03443945  0.75462881  1
  H+  H87  1  0.62749459  0.13709723  0.75216883  1
  H+  H88  1  0.17085545  0.80482638  -0.01223637  1
  H+  H89  1  0.18284301  0.48644210  0.49752176  1
  H+  H90  1  0.52461932  0.82780860  0.97526183  1
  H+  H91  1  0.64716782  0.49746368  -0.01154897  1
  H+  H92  1  0.86547798  0.52975075  0.23581820  1
  H+  H93  1  0.30490811  0.41942349  0.29173125  1
  H+  H94  1  0.15621084  0.31802023  0.02493683  1
  H+  H95  1  -0.03018190  0.49861298  0.75901474  1
  H+  H96  1  0.16354908  0.36217544  0.75311559  1
  H+  H97  1  0.52870443  0.83127473  0.73995644  1
  H+  H98  1  0.49674597  0.53132274  -0.00643406  1
  H+  H99  1  0.47885522  0.41541186  0.32729162  1
  H+  H100  1  0.64691292  0.52784746  0.50270537  1
  H+  H101  1  0.85642891  0.04045388  1.00004597  1
  H+  H102  1  0.35922518  0.83693863  0.22853341  1
  H+  H103  1  0.46520941  0.47526545  0.23717026  1
  H+  H104  1  0.28674247  0.80279344  -0.02432176  1
  H+  H105  1  0.10540381  0.22570634  0.16199558  1
  H+  H106  1  0.14130567  0.51184662  0.72799604  1
  H+  H107  1  0.85638583  0.70395369  0.76483241  1
  H+  H108  1  0.38388340  0.35115140  0.43562481  1
  H+  H109  1  0.77649827  0.89159319  0.10384950  1
  H+  H110  1  0.15978919  0.63957885  0.71850292  1
  H+  H111  1  0.11518421  0.89052433  0.65700033  1
  H+  H112  1  0.54507779  0.10225394  0.89426032  1
  H+  H113  1  0.45919891  0.56100917  0.66162062  1
  H+  H114  1  0.56145064  0.12032565  0.42423370  1
  H+  H115  1  0.23175012  0.43792071  0.36773865  1
  H+  H116  1  0.30222789  0.49482825  0.97645325  1
  H+  H117  1  0.20960449  0.44705107  0.83637196  1
  H+  H118  1  0.88766376  0.45702921  0.84736304  1
  H+  H119  1  0.44022862  0.21260713  0.08687702  1
  H+  H120  1  0.11447766  0.55754022  0.59661178  1
  H+  H121  1  0.53156402  0.49288035  0.75934942  1
  H+  H122  1  0.77760128  0.56182630  0.08055202  1
  H+  H123  1  0.89440566  0.77905977  0.85568299  1
  H+  H124  1  0.10494131  0.88083595  0.09448142  1
  H+  H125  1  0.71201641  0.07349295  0.66494490  1
  H+  H126  1  0.50746069  0.02949562  0.73929521  1
  H+  H127  1  0.82707487  0.52479815  0.74707908  1
  H+  H128  1  0.85489150  0.82869285  0.26015998  1
  H+  H129  1  0.81438970  -0.02895007  0.24878712  1
  H+  H130  1  0.30440927  0.15673041  0.75595675  1
  H+  H131  1  0.46134987  0.58274869  0.07689923  1
  H+  H132  1  0.69951484  0.85012279  0.25292977  1
  H+  H133  1  0.53771015  0.77280878  0.35901451  1
  H+  H134  1  0.90582902  0.13054894  0.40334151  1
  H+  H135  1  0.43399500  0.86938913  0.07571903  1
  H+  H136  1  0.15592962  0.96690331  0.23980119  1
  H+  H137  1  0.97083616  0.15434512  0.76623686  1
  H+  H138  1  0.44540499  0.22309162  0.61330668  1
  H+  H139  1  0.56801325  0.45034646  0.84855784  1
  H+  H140  1  0.94382458  0.63250275  0.17565255  1
  H+  H141  1  0.21652165  0.10467305  0.35165569  1
  H+  H142  1  0.89587878  0.12013124  0.91175690  1
  H+  H143  1  0.76060841  0.21026679  0.14255313  1
  O2-  O144  1  0.09810079  0.21098148  0.23119975  1
  O2-  O145  1  0.10309545  0.21610770  0.72072485  1
  O2-  O146  1  0.13866046  0.56612695  0.23816181  1
  O2-  O147  1  0.10694918  0.55748383  0.70034915  1
  O2-  O148  1  0.11809473  0.88582339  0.21842250  1
  O2-  O149  1  0.12055852  0.89322519  0.72444572  1
  O2-  O150  1  0.42216657  0.20006300  0.21318597  1
  O2-  O151  1  0.44825317  0.23094267  0.72346503  1
  O2-  O152  1  0.45154969  0.58931625  0.19845879  1
  O2-  O153  1  0.47535887  0.56450434  0.72760044  1
  O2-  O154  1  0.43736982  0.86548078  0.19944013  1
  O2-  O155  1  0.46325195  0.90456915  0.67979219  1
  O2-  O156  1  0.76446998  0.21092734  0.21157466  1
  O2-  O157  1  0.74900963  0.14863089  0.69370037  1
  O2-  O158  1  0.87032333  0.59894592  0.20648494  1
  O2-  O159  1  0.78811960  0.56724629  0.72025665  1
  O2-  O160  1  0.77757447  0.89010126  0.22594950  1
  O2-  O161  1  0.79290982  0.90251209  0.73282208  1
  O2-  O162  1  0.21070321  0.10115493  0.28383423  1
  O2-  O163  1  0.22318391  0.11529871  0.77625487  1
  O2-  O164  1  0.23827699  0.43010517  0.29962829  1
  O2-  O165  1  0.19646964  0.44361139  0.76963966  1
  O2-  O166  1  0.23766491  0.78491808  0.28141099  1
  O2-  O167  1  0.24426333  0.77451859  0.73990291  1
  O2-  O168  1  0.53712887  0.11340595  0.29408816  1
  O2-  O169  1  0.54707720  0.10458636  0.77285768  1
  O2-  O170  1  0.44019508  0.40048814  0.26753455  1
  O2-  O171  1  0.56816017  0.44632258  0.78027128  1
  O2-  O172  1  0.55764604  0.77921225  0.29147232  1
  O2-  O173  1  0.56836487  0.79468452  0.76989610  1
  O2-  O174  1  0.87803857  0.10709332  0.28435989  1
  O2-  O175  1  0.89196012  0.11516081  0.79312357  1
  O2-  O176  1  0.90293427  0.43117709  0.27378961  1
  O2-  O177  1  0.88925315  0.46158100  0.77932746  1
  O2-  O178  1  0.90206370  0.79642598  0.28548978  1
  O2-  O179  1  0.89904479  0.78469543  0.78710557  1
  O2-  O180  1  0.22914035  0.11075378  0.47093062  1
  O2-  O181  1  0.24064799  0.09767218  0.96128569  1
  O2-  O182  1  0.22653497  0.44737221  0.47794778  1
  O2-  O183  1  0.22208113  0.44356869  0.95830844  1
  O2-  O184  1  0.23876360  0.78441590  0.47035408  1
  O2-  O185  1  0.20393285  0.75868596  0.96456586  1
  O2-  O186  1  0.56900836  0.12153381  0.49090612  1
  O2-  O187  1  0.54671640  0.10191595  0.96203038  1
  O2-  O188  1  0.46550969  0.38922920  0.44822985  1
  O2-  O189  1  0.56187629  0.45676330  0.96516312  1
  O2-  O190  1  0.48577992  0.75460625  0.45913973  1
  O2-  O191  1  0.57411896  0.79657966  0.95373456  1
  O2-  O192  1  0.92362431  0.14707031  0.46891238  1
  O2-  O193  1  0.89268018  0.12166618  0.97965158  1
  O2-  O194  1  0.90626436  0.44979649  0.46070568  1
  O2-  O195  1  0.86934267  0.44876185  0.96189039  1
  O2-  O196  1  0.90916237  0.80635990  0.47070343  1
  O2-  O197  1  0.88455539  0.76869800  0.96906407  1
  O2-  O198  1  0.11257498  0.24407223  0.05816261  1
  O2-  O199  1  0.12695915  0.23259365  0.53614672  1
  O2-  O200  1  0.09979392  0.53623875  0.00683032  1
  O2-  O201  1  0.11779853  0.55645294  0.52601000  1
  O2-  O202  1  0.10334210  0.87953242  0.02710901  1
  O2-  O203  1  0.12166638  0.89478884  0.53497688  1
  O2-  O204  1  0.44777970  0.21946643  0.01998437  1
  O2-  O205  1  0.44298559  0.21557134  0.54451045  1
  O2-  O206  1  0.45921602  0.57743738  0.00970721  1
  O2-  O207  1  0.44026160  0.55802305  0.54219285  1
  O2-  O208  1  0.43942226  0.87853237  0.00890614  1
  O2-  O209  1  0.46468618  0.90644426  0.57878005  1
  O2-  O210  1  0.76507286  0.21730669  0.03081257  1
  O2-  O211  1  0.78914591  0.23794720  0.52543224  1
  O2-  O212  1  0.77009099  0.56023279  0.01438680  1
  O2-  O213  1  0.87426979  0.60687173  0.55721631  1
  O2-  O214  1  0.78419853  0.89667534  0.03638506  1
  O2-  O215  1  0.74413780  0.87494884  0.54331174  1
