# generated using pymatgen
data_H2O
_symmetry_space_group_name_H-M   'P 1'
_cell_length_a   13.53512453
_cell_length_b   13.53051218
_cell_length_c   14.70074885
_cell_angle_alpha   90.01396293
_cell_angle_beta   90.02638198
_cell_angle_gamma   120.04496599
_symmetry_Int_Tables_number   1
_chemical_formula_structural   H2O
_chemical_formula_sum   'H144 O72'
_cell_volume   2330.50216382
_cell_formula_units_Z   72
loop_
 _symmetry_equiv_pos_site_id
 _symmetry_equiv_pos_as_xyz
  1  'x, y, z'
loop_
 _atom_type_symbol
 _atom_type_oxidation_number
  H+  1.0
  O2-  -2.0
loop_
 _atom_site_type_symbol
 _atom_site_label
 _atom_site_symmetry_multiplicity
 _atom_site_fract_x
 _atom_site_fract_y
 _atom_site_fract_z
 _atom_site_occupancy
  H+  H0  1  0.50878828  1.01590654  0.25514530  1
  H+  H1  1  0.75349417  0.17034220  0.73417571  1
  H+  H2  1  0.30437471  0.15424598  0.49224219  1
  H+  H3  1  0.69205610  0.84057037  0.22710471  1
  H+  H4  1  0.47935377  0.18196577  0.50486433  1
  H+  H5  1  0.45423633  0.18127809  0.03661875  1
  H+  H6  1  0.35798045  0.83574017  0.73381377  1
  H+  H7  1  0.51062601  0.36882301  0.45932810  1
  H+  H8  1  0.50238169  0.63038860  0.01499167  1
  H+  H9  1  0.16438872  0.35678485  0.75070562  1
  H+  H10  1  0.14748838  0.02794160  1.01021406  1
  H+  H11  1  0.96450009  0.48421625  0.74911784  1
  H+  H12  1  0.05027763  0.52256428  0.50716055  1
  H+  H13  1  0.19118112  0.81640319  0.75218679  1
  H+  H14  1  0.49214914  0.52792636  0.75117898  1
  H+  H15  1  0.79843836  0.51437963  0.51850390  1
  H+  H16  1  0.53178047  0.37330642  0.01052764  1
  H+  H17  1  0.49228816  0.17656122  0.24651187  1
  H+  H18  1  0.61357302  0.12194778  0.48949489  1
  H+  H19  1  0.81080141  0.63514965  0.52113625  1
  H+  H20  1  0.01908208  0.17195919  -0.03564802  1
  H+  H21  1  0.88547936  0.39646948  0.50225319  1
  H+  H22  1  0.16368568  1.00704582  -0.03208356  1
  H+  H23  1  0.87276857  0.81507743  0.71711539  1
  H+  H24  1  0.17144967  0.47139140  0.49309835  1
  H+  H25  1  0.50999631  0.37677048  0.76309583  1
  H+  H26  1  0.00269327  0.16096521  0.75623331  1
  H+  H27  1  0.18670380  0.03203015  0.49150631  1
  H+  H28  1  0.08449953  0.48446492  0.03485717  1
  H+  H29  1  0.36829664  0.83666126  0.51470866  1
  H+  H30  1  0.01458836  0.78458217  0.02665687  1
  H+  H31  1  0.57427953  0.15814172  0.95926871  1
  H+  H32  1  0.20475310  0.04982507  0.26094871  1
  H+  H33  1  0.47377240  0.20758327  0.73615260  1
  H+  H34  1  0.51662482  0.80100743  0.26006412  1
  H+  H35  1  0.17305547  0.71135248  0.26155906  1
  H+  H36  1  0.72606019  0.54091698  0.19037369  1
  H+  H37  1  0.22643308  0.42778890  0.40237144  1
  H+  H38  1  0.92791595  0.79984532  0.25471246  1
  H+  H39  1  0.19480583  0.79408878  0.99038412  1
  H+  H40  1  0.70740648  0.82573406  0.52325869  1
  H+  H41  1  0.15306735  0.17546618  0.50868247  1
  H+  H42  1  0.83036470  0.34841883  0.25950563  1
  H+  H43  1  0.37459754  0.52507261  0.50653911  1
  H+  H44  1  0.51095269  0.65004744  0.24795685  1
  H+  H45  1  0.53391920  0.81918152  0.48373767  1
  H+  H46  1  0.81855870  0.94319447  0.53085154  1
  H+  H47  1  0.49996587  0.93729223  0.73943286  1
  H+  H48  1  0.52266457  0.69578513  0.48326630  1
  H+  H49  1  0.21620888  0.34754686  0.27767237  1
  H+  H50  1  0.91788692  0.20017353  0.30287741  1
  H+  H51  1  0.63517782  0.46846807  0.26151246  1
  H+  H52  1  0.04328618  0.84343634  0.73379673  1
  H+  H53  1  0.85984656  0.81399596  0.97407018  1
  H+  H54  1  0.37464230  0.52659903  0.73740537  1
  H+  H55  1  0.36234868  0.17442205  0.26231978  1
  H+  H56  1  0.67758917  0.14231462  0.98240328  1
  H+  H57  1  0.74650931  0.26435586  0.50798867  1
  H+  H58  1  0.22754368  0.84482953  0.27332429  1
  H+  H59  1  0.22529779  0.49325036  0.97620610  1
  H+  H60  1  0.21675058  0.21488500  0.95823648  1
  H+  H61  1  0.62387881  0.13607929  0.25196318  1
  H+  H62  1  0.38475440  0.50712416  1.01551178  1
  H+  H63  1  0.19550780  0.68216976  0.97465078  1
  H+  H64  1  0.81824397  0.63942603  0.98079679  1
  H+  H65  1  0.37282322  0.22967145  0.01449730  1
  H+  H66  1  0.49929996  0.94646362  0.01022431  1
  H+  H67  1  0.37945747  0.83063196  0.00593452  1
  H+  H68  1  0.53137655  0.79644799  -0.00216514  1
  H+  H69  1  0.11061940  0.54271878  0.21665763  1
  H+  H70  1  -0.05384979  0.48509156  -0.02759310  1
  H+  H71  1  0.15769751  0.84917820  0.51148286  1
  H+  H72  1  0.81283307  0.01223777  0.81733344  1
  H+  H73  1  -0.00411486  0.53694496  0.23400213  1
  H+  H74  1  0.85786248  0.80979444  0.50176231  1
  H+  H75  1  0.19611520  0.69194775  0.50050840  1
  H+  H76  1  0.37365929  0.83113410  0.24279379  1
  H+  H77  1  0.80700661  0.77628165  0.26891095  1
  H+  H78  1  0.83660410  0.30557475  0.72670845  1
  H+  H79  1  0.70006565  0.51934318  0.74671232  1
  H+  H80  1  0.71199480  0.83872212  0.99682517  1
  H+  H81  1  0.85157933  0.01297772  0.96604811  1
  H+  H82  1  0.78803041  0.15298670  0.22650925  1
  H+  H83  1  0.16785828  0.33735858  0.49486157  1
  H+  H84  1  0.85301061  0.69164013  0.74132881  1
  H+  H85  1  0.80990808  0.51018733  -0.01636816  1
  H+  H86  1  0.48069896  0.96041215  0.51247589  1
  H+  H87  1  0.35147797  0.19163897  0.73158701  1
  H+  H88  1  0.08520798  0.86273117  0.28584311  1
  H+  H89  1  0.95888786  0.13412298  0.49524306  1
  H+  H90  1  0.23790643  0.47154870  0.26458170  1
  H+  H91  1  0.84339660  0.48173456  0.74800580  1
  H+  H92  1  0.24530417  0.11672400  0.35807552  1
  H+  H93  1  0.15390146  0.63016799  0.73196778  1
  H+  H94  1  0.81349360  0.95250557  0.22873973  1
  H+  H95  1  0.53007876  0.49081837  1.00550652  1
  H+  H96  1  0.83453438  0.30184974  -0.00597323  1
  H+  H97  1  0.69140248  0.79764302  0.73607523  1
  H+  H98  1  0.94213868  0.38528221  0.31121271  1
  H+  H99  1  0.68407423  0.51170573  0.99795090  1
  H+  H100  1  0.84752959  0.18899232  -0.01053056  1
  H+  H101  1  0.56391689  0.76731801  0.35122987  1
  H+  H102  1  0.19218355  0.36296059  -0.01868371  1
  H+  H103  1  0.03864262  0.17405571  0.26503300  1
  H+  H104  1  0.40587631  0.50728843  0.25230131  1
  H+  H105  1  0.88036344  0.09404885  0.36286923  1
  H+  H106  1  0.15083502  0.51013956  0.73660657  1
  H+  H107  1  0.16732647  0.12878455  0.75694169  1
  H+  H108  1  0.18431026  0.02090395  0.75615492  1
  H+  H109  1  0.12794795  0.89624395  0.03735554  1
  H+  H110  1  0.77715557  0.21536246  0.59681315  1
  H+  H111  1  0.77610741  0.21140326  0.13785111  1
  H+  H112  1  0.88565862  0.76522622  0.40893659  1
  H+  H113  1  0.56913717  0.11202380  0.75241812  1
  H+  H114  1  0.23352777  0.77384488  0.83924254  1
  H+  H115  1  0.44620176  0.23699340  0.58777874  1
  H+  H116  1  0.09867865  0.21176179  0.59396903  1
  H+  H117  1  0.09004639  0.86437693  0.17531970  1
  H+  H118  1  0.90085975  0.77731250  0.88388786  1
  H+  H119  1  0.56785192  0.75912511  0.90612626  1
  H+  H120  1  -0.02245372  0.23744853  0.69598180  1
  H+  H121  1  0.12544408  0.89076126  0.64783244  1
  H+  H122  1  0.53956463  0.09222008  0.39872013  1
  H+  H123  1  0.79194259  0.88696326  0.08281312  1
  H+  H124  1  0.83840804  0.12945345  0.49588903  1
  H+  H125  1  0.44353636  0.87642521  0.63450241  1
  H+  H126  1  0.51836526  0.69213779  0.76834758  1
  H+  H127  1  0.07158678  0.57555887  0.08882832  1
  H+  H128  1  0.55604491  0.44590159  0.85678188  1
  H+  H129  1  0.23394420  0.77153670  0.41265255  1
  H+  H130  1  0.87128563  0.43566986  0.88165681  1
  H+  H131  1  0.03784967  0.84725029  0.50887378  1
  H+  H132  1  0.59888697  0.07463276  0.84451075  1
  H+  H133  1  0.89144633  0.45787298  0.41038941  1
  H+  H134  1  0.45082767  0.86890769  0.15197914  1
  H+  H135  1  0.46901623  0.55868833  0.15139274  1
  H+  H136  1  0.77189250  0.55332750  0.65217983  1
  H+  H137  1  0.45410368  0.24060681  0.16965015  1
  H+  H138  1  0.12362226  0.54534862  0.59948167  1
  H+  H139  1  0.08056058  0.17469350  0.05387893  1
  H+  H140  1  0.48917665  0.52532116  0.49300669  1
  H+  H141  1  0.11771498  0.22327308  0.17926915  1
  H+  H142  1  0.22907927  0.43461423  0.83628317  1
  H+  H143  1  0.27252696  0.17323221  0.88563333  1
  O2-  O144  1  0.11877048  0.22461745  0.24522089  1
  O2-  O145  1  0.03942139  0.22092791  0.70891134  1
  O2-  O146  1  0.07253484  0.58696675  0.20598261  1
  O2-  O147  1  0.11152773  0.54969786  0.70959290  1
  O2-  O148  1  0.09672129  0.90878412  0.23143961  1
  O2-  O149  1  0.12606004  0.88766313  0.71628683  1
  O2-  O150  1  0.45394549  0.22350015  0.23617172  1
  O2-  O151  1  0.43221260  0.24215542  0.70996375  1
  O2-  O152  1  0.47753931  0.56439885  0.22098491  1
  O2-  O153  1  0.45790923  0.57441896  0.73112572  1
  O2-  O154  1  0.45357698  0.87302977  0.22017119  1
  O2-  O155  1  0.43827338  0.86804396  0.70681144  1
  O2-  O156  1  0.76124818  0.20443099  0.20471222  1
  O2-  O157  1  0.81955213  0.23009258  0.70021945  1
  O2-  O158  1  0.65414246  0.46920022  0.19604992  1
  O2-  O159  1  0.77936278  0.55490291  0.72223674  1
  O2-  O160  1  0.77024597  0.87734603  0.20030842  1
  O2-  O161  1  0.66727454  0.85003117  0.75964453  1
  O2-  O162  1  0.25906475  0.12308658  0.29041000  1
  O2-  O163  1  0.22111624  0.10415209  0.77455294  1
  O2-  O164  1  0.26749492  0.42984697  0.29865178  1
  O2-  O165  1  0.21706782  0.43659161  0.76997007  1
  O2-  O166  1  0.23683243  0.78032339  0.29114234  1
  O2-  O167  1  0.23201142  0.77438354  0.77131122  1
  O2-  O168  1  0.54562362  0.09610408  0.27856832  1
  O2-  O169  1  0.59978355  0.06559889  0.77652298  1
  O2-  O170  1  0.62305599  0.48465689  0.38336429  1
  O2-  O171  1  0.55891297  0.45394722  0.78961871  1
  O2-  O172  1  0.55922845  0.76185122  0.28102952  1
  O2-  O173  1  0.55616932  0.77135181  0.80297602  1
  O2-  O174  1  0.89256313  0.11898288  0.29659139  1
  O2-  O175  1  0.89352170  0.05874860  0.83715020  1
  O2-  O176  1  0.89178744  0.41436110  0.29346092  1
  O2-  O177  1  0.88364990  0.43968158  0.76980627  1
  O2-  O178  1  0.85925947  0.75008658  0.28965181  1
  O2-  O179  1  0.90034308  0.77629918  0.75716869  1
  O2-  O180  1  0.22276655  0.11308372  0.46966444  1
  O2-  O181  1  0.29109338  0.22578202  0.93768205  1
  O2-  O182  1  0.20774038  0.42231868  0.47035765  1
  O2-  O183  1  0.25091617  0.44009991  0.95918659  1
  O2-  O184  1  0.23357885  0.77301846  0.48017553  1
  O2-  O185  1  0.23939961  0.76419679  0.95916849  1
  O2-  O186  1  0.53448023  0.09013086  0.46666857  1
  O2-  O187  1  0.59702302  0.10013704  0.95747374  1
  O2-  O188  1  0.51588770  0.43380145  0.42339886  1
  O2-  O189  1  0.56908430  0.44956411  0.97954782  1
  O2-  O190  1  0.56953095  0.77696850  0.45821569  1
  O2-  O191  1  0.57150504  0.75618751  0.97609280  1
  O2-  O192  1  0.87843692  0.08953343  0.47436008  1
  O2-  O193  1  0.88496599  0.08999114  0.93270268  1
  O2-  O194  1  0.91119751  0.47170960  0.47596386  1
  O2-  O195  1  0.86651285  0.43532308  0.95072012  1
  O2-  O196  1  0.90113485  0.77339500  0.47567503  1
  O2-  O197  1  0.89364775  0.76702979  0.95108929  1
  O2-  O198  1  0.09434250  0.21729798  -0.00255730  1
  O2-  O199  1  0.11064230  0.21710675  0.52703644  1
  O2-  O200  1  0.07937875  0.55324718  0.02542661  1
  O2-  O201  1  0.12867162  0.54553062  0.53009809  1
  O2-  O202  1  0.08877280  0.81657572  0.05943056  1
  O2-  O203  1  0.11960462  0.89189979  0.53148976  1
  O2-  O204  1  0.44004259  0.24218591  0.05525107  1
  O2-  O205  1  0.44252761  0.22740093  0.52068105  1
  O2-  O206  1  0.46193140  0.55055119  0.04373059  1
  O2-  O207  1  0.45595131  0.56967909  0.51961976  1
  O2-  O208  1  0.45697133  0.86781376  0.03430660  1
  O2-  O209  1  0.44932125  0.88109014  0.53782069  1
  O2-  O210  1  0.80783213  0.22427844  0.02058995  1
  O2-  O211  1  0.75975744  0.20333277  0.52863069  1
  O2-  O212  1  0.77634287  0.55793622  0.00709159  1
  O2-  O213  1  0.76763605  0.55761810  0.54863509  1
  O2-  O214  1  0.79474986  0.88599720  0.01488695  1
  O2-  O215  1  0.78424102  0.86344776  0.55156623  1
