# generated using pymatgen
data_H2O
_symmetry_space_group_name_H-M   'P 1'
_cell_length_a   13.50105283
_cell_length_b   13.50538542
_cell_length_c   14.64718207
_cell_angle_alpha   89.99983225
_cell_angle_beta   90.00024168
_cell_angle_gamma   119.98787074
_symmetry_Int_Tables_number   1
_chemical_formula_structural   H2O
_chemical_formula_sum   'H144 O72'
_cell_volume   2313.19581923
_cell_formula_units_Z   72
loop_
 _symmetry_equiv_pos_site_id
 _symmetry_equiv_pos_as_xyz
  1  'x, y, z'
loop_
 _atom_type_symbol
 _atom_type_oxidation_number
  H+  1.0
  O2-  -2.0
loop_
 _atom_site_type_symbol
 _atom_site_label
 _atom_site_symmetry_multiplicity
 _atom_site_fract_x
 _atom_site_fract_y
 _atom_site_fract_z
 _atom_site_occupancy
  H+  H0  1  0.95887041  0.49161937  0.48336311  1
  H+  H1  1  0.50810526  0.34453033  0.48777543  1
  H+  H2  1  0.52121511  0.70233415  0.75348426  1
  H+  H3  1  0.64530358  0.49649377  0.98420123  1
  H+  H4  1  0.69028022  0.51571099  0.49895144  1
  H+  H5  1  0.56118964  0.45978493  0.89766455  1
  H+  H6  1  0.51076951  0.81174791  0.29043887  1
  H+  H7  1  0.57864825  0.14134039  0.35174336  1
  H+  H8  1  0.84386801  0.02583697  0.99183363  1
  H+  H9  1  0.52103008  0.49043275  0.75135520  1
  H+  H10  1  0.31304581  0.16302591  -0.00800303  1
  H+  H11  1  0.84984380  0.47474519  0.98861799  1
  H+  H12  1  0.16541777  0.00115953  0.48372229  1
  H+  H13  1  0.88654603  0.11147785  0.34351578  1
  H+  H14  1  0.96518944  0.46952184  0.99490876  1
  H+  H15  1  0.44357600  0.90012478  0.42163188  1
  H+  H16  1  0.85303571  0.14350360  0.48428322  1
  H+  H17  1  0.39042020  0.20333999  0.24789984  1
  H+  H18  1  0.15270438  0.18356367  0.23744967  1
  H+  H19  1  0.69231283  0.17968235  0.00828160  1
  H+  H20  1  0.52507216  0.17138732  0.98290628  1
  H+  H21  1  0.53856110  0.18006968  0.25912247  1
  H+  H22  1  0.70952878  0.18272737  0.73594927  1
  H+  H23  1  0.68140821  0.84894721  1.00777243  1
  H+  H24  1  0.81091051  0.17016416  0.23734718  1
  H+  H25  1  0.18292058  0.36259186  0.24915436  1
  H+  H26  1  0.13065410  0.84625424  0.01027095  1
  H+  H27  1  0.81105626  0.47852124  0.74026147  1
  H+  H28  1  0.15914706  0.18130392  0.50459653  1
  H+  H29  1  0.49277938  0.52757651  1.01727999  1
  H+  H30  1  0.10098182  0.52979832  0.31128698  1
  H+  H31  1  0.13722064  0.50521018  0.51151095  1
  H+  H32  1  0.15594960  0.68628683  0.99953508  1
  H+  H33  1  0.82253402  0.96828899  0.50567171  1
  H+  H34  1  0.29981233  0.48059350  0.48460894  1
  H+  H35  1  0.01325783  0.83617651  0.51021578  1
  H+  H36  1  0.03959764  0.93879533  0.21809358  1
  H+  H37  1  0.96236751  0.14961115  0.25198525  1
  H+  H38  1  0.19069130  0.48595786  0.25220882  1
  H+  H39  1  0.97302369  0.14560666  0.47934075  1
  H+  H40  1  0.15761722  0.86292979  0.74429862  1
  H+  H41  1  0.97064920  0.49229885  0.24787519  1
  H+  H42  1  0.19304266  0.76555042  0.90877776  1
  H+  H43  1  0.20625209  0.04680997  0.24593766  1
  H+  H44  1  0.53018200  0.16385508  0.74585994  1
  H+  H45  1  0.62985202  0.81538756  0.26925099  1
  H+  H46  1  0.71668003  0.18912535  0.50529973  1
  H+  H47  1  0.35028871  0.84459557  0.29042096  1
  H+  H48  1  0.83124895  0.81096243  -0.01041653  1
  H+  H49  1  0.30712110  0.83551751  0.77294995  1
  H+  H50  1  0.93574224  0.78078492  0.26316127  1
  H+  H51  1  0.37291474  0.51970564  0.73990026  1
  H+  H52  1  0.34597998  0.85995467  -0.01843931  1
  H+  H53  1  0.81432099  0.29538520  0.01280175  1
  H+  H54  1  0.28757590  0.81141332  0.48917381  1
  H+  H55  1  0.48925958  0.62882505  0.25987241  1
  H+  H56  1  0.44536323  0.55399550  0.64621332  1
  H+  H57  1  0.67471324  0.17260164  0.24743297  1
  H+  H58  1  0.19373724  0.37297088  0.76475970  1
  H+  H59  1  0.18818994  0.36540735  -0.00196985  1
  H+  H60  1  0.19982192  0.16447327  0.75694645  1
  H+  H61  1  0.49774990  0.32753203  0.00762230  1
  H+  H62  1  0.52131326  0.48800706  0.32377988  1
  H+  H63  1  0.83532952  0.68953841  0.49394696  1
  H+  H64  1  0.77910653  0.60766706  0.22846645  1
  H+  H65  1  0.54820451  0.77520497  0.89871283  1
  H+  H66  1  0.50530517  0.31882849  0.26975646  1
  H+  H67  1  0.48288233  0.63476610  0.51067071  1
  H+  H68  1  0.85418233  0.37044041  0.24822321  1
  H+  H69  1  0.49918847  0.98283779  0.73635837  1
  H+  H70  1  0.84056182  0.81178850  0.49320258  1
  H+  H71  1  0.84758827  0.14545668  0.99261765  1
  H+  H72  1  0.46312512  0.85905101  -0.02876042  1
  H+  H73  1  0.63992685  0.81896592  0.50470895  1
  H+  H74  1  0.15845359  0.29942952  0.50089535  1
  H+  H75  1  0.95299825  0.81893213  0.98953546  1
  H+  H76  1  0.81915292  0.62963851  0.00083668  1
  H+  H77  1  0.97223685  0.83741854  0.75993692  1
  H+  H78  1  0.47022458  0.96458280  0.28005564  1
  H+  H79  1  0.83015005  0.18466758  0.74155121  1
  H+  H80  1  0.16749775  0.67390636  0.26606132  1
  H+  H81  1  0.03262895  0.17759749  0.00690668  1
  H+  H82  1  0.45557716  0.55978914  0.11126838  1
  H+  H83  1  0.52140727  0.82119024  0.75565141  1
  H+  H84  1  1.04312506  0.18916146  0.74023510  1
  H+  H85  1  0.30601091  0.48534774  0.00397426  1
  H+  H86  1  0.86351578  0.75818468  0.35370445  1
  H+  H87  1  0.11265220  0.56163267  0.67538675  1
  H+  H88  1  0.51673169  0.36882338  0.75389708  1
  H+  H89  1  0.17216214  0.53593020  0.75735110  1
  H+  H90  1  0.37409024  0.50917933  0.25178010  1
  H+  H91  1  0.50513655  0.70373642  0.99240511  1
  H+  H92  1  0.37667101  0.19138863  0.72875445  1
  H+  H93  1  0.82586782  0.86173730  0.73930337  1
  H+  H94  1  0.13170813  0.83383261  0.51103613  1
  H+  H95  1  0.52401961  0.05753836  0.48139356  1
  H+  H96  1  0.85865866  1.03745316  0.75798563  1
  H+  H97  1  0.81230544  0.51913757  0.50018812  1
  H+  H98  1  0.70518725  0.85963864  0.73868865  1
  H+  H99  1  0.19684515  0.04456539  0.75650485  1
  H+  H100  1  0.16948919  0.79966427  0.25995468  1
  H+  H101  1  0.80977586  0.96379449  0.24107976  1
  H+  H102  1  0.38561068  0.23358820  0.50761578  1
  H+  H103  1  0.80288989  0.50491210  0.22338207  1
  H+  H104  1  0.50895349  0.04564686  0.96728807  1
  H+  H105  1  0.14982620  0.50879889  0.02767131  1
  H+  H106  1  0.52831610  0.18007876  0.48291897  1
  H+  H107  1  0.48300625  0.51718623  0.49575371  1
  H+  H108  1  0.10496199  0.54177803  0.11696254  1
  H+  H109  1  0.23544633  0.44835025  0.85631481  1
  H+  H110  1  0.45981639  0.24295658  0.64041446  1
  H+  H111  1  0.45002140  0.90057612  0.65099684  1
  H+  H112  1  0.10866599  0.21510352  0.14655452  1
  H+  H113  1  0.76564769  0.52917621  0.63878857  1
  H+  H114  1  0.22291169  0.43868190  0.39449061  1
  H+  H115  1  0.76014349  0.88259338  0.09766149  1
  H+  H116  1  0.23308881  0.10948685  0.34087518  1
  H+  H117  1  0.80281195  0.84085573  0.24357836  1
  H+  H118  1  0.14805247  0.97340261  0.00486414  1
  H+  H119  1  0.09353520  0.90002570  0.14042727  1
  H+  H120  1  0.49368235  0.87180327  0.13944284  1
  H+  H121  1  0.84146075  0.35444201  0.75426498  1
  H+  H122  1  0.49338148  0.86083414  0.49900877  1
  H+  H123  1  0.77500148  0.54677455  0.08906671  1
  H+  H124  1  0.12079159  0.22922382  0.65045320  1
  H+  H125  1  0.23966902  0.12294694  0.89983987  1
  H+  H126  1  0.89836295  0.11336500  0.84911134  1
  H+  H127  1  0.11268566  0.89577170  0.65402194  1
  H+  H128  1  0.19304094  0.71405015  0.76818993  1
  H+  H129  1  0.78538637  0.89744118  0.60047197  1
  H+  H130  1  0.88511281  0.78930058  0.84333995  1
  H+  H131  1  0.56637562  0.12836086  0.83884385  1
  H+  H132  1  0.76579599  0.20869430  0.14338793  1
  H+  H133  1  0.88680686  0.46408751  0.39022902  1
  H+  H134  1  0.43588601  0.81881014  0.13721209  1
  H+  H135  1  0.29581181  0.08303939  0.46878176  1
  H+  H136  1  0.68612979  0.49619764  0.73365343  1
  H+  H137  1  0.20364815  0.76593825  0.40367869  1
  H+  H138  1  0.56192427  0.77501497  0.41543642  1
  H+  H139  1  0.14006308  0.62377586  0.51454679  1
  H+  H140  1  0.15414385  0.18133495  0.00568487  1
  H+  H141  1  0.79077024  0.21260724  0.59539363  1
  H+  H142  1  0.46806536  0.25357222  0.09884348  1
  H+  H143  1  0.87554823  0.43711169  0.84357767  1
  O2-  O144  1  0.10537280  0.21601188  0.21520367  1
  O2-  O145  1  0.12423480  0.23151273  0.71836305  1
  O2-  O146  1  0.11366021  0.55713976  0.24824624  1
  O2-  O147  1  0.13442946  0.58006939  0.73990610  1
  O2-  O148  1  0.08898422  0.90600377  0.20959562  1
  O2-  O149  1  0.11984420  0.90596707  0.72137086  1
  O2-  O150  1  0.47366223  0.24787159  0.23234111  1
  O2-  O151  1  0.45853008  0.23424680  0.70813031  1
  O2-  O152  1  0.45786936  0.54854556  0.23854919  1
  O2-  O153  1  0.45249874  0.55942551  0.71430701  1
  O2-  O154  1  0.43422252  0.88793596  0.30728785  1
  O2-  O155  1  0.45580896  0.90027291  0.71740691  1
  O2-  O156  1  0.76664517  0.20875233  0.21418769  1
  O2-  O157  1  0.79099173  0.22473361  0.71527384  1
  O2-  O158  1  0.75536903  0.53498014  0.19662107  1
  O2-  O159  1  0.76561356  0.52259575  0.70825184  1
  O2-  O160  1  0.76491995  0.88308664  0.21966698  1
  O2-  O161  1  0.78506904  0.90323807  0.71508321  1
  O2-  O162  1  0.24411779  0.12415860  0.27380774  1
  O2-  O163  1  0.24242792  0.12586919  0.77845093  1
  O2-  O164  1  0.22841855  0.44179171  0.27354149  1
  O2-  O165  1  0.23812355  0.45282727  0.78826204  1
  O2-  O166  1  0.20949888  0.76416207  0.28820382  1
  O2-  O167  1  0.22557561  0.79545358  0.79105497  1
  O2-  O168  1  0.57816704  0.13654555  0.28159521  1
  O2-  O169  1  0.56848382  0.12254858  0.77072393  1
  O2-  O170  1  0.55259199  0.44063148  0.34878573  1
  O2-  O171  1  0.56062114  0.44976233  0.77629126  1
  O2-  O172  1  0.55377173  0.77064836  0.29986801  1
  O2-  O173  1  0.56134892  0.78134145  0.77948271  1
  O2-  O174  1  0.88143099  0.11159778  0.27426478  1
  O2-  O175  1  0.90227201  0.11853464  0.78114168  1
  O2-  O176  1  0.88653074  0.45106567  0.26526099  1
  O2-  O177  1  0.86711154  0.43472877  0.77604414  1
  O2-  O178  1  0.85819514  0.75660647  0.28486689  1
  O2-  O179  1  0.89006677  0.79969653  0.77616910  1
  O2-  O180  1  0.22290976  0.07975350  0.45755297  1
  O2-  O181  1  0.23331464  0.11922068  0.96798960  1
  O2-  O182  1  0.21887429  0.43622160  0.46263985  1
  O2-  O183  1  0.22673077  0.44700972  0.97833914  1
  O2-  O184  1  0.20558302  0.76839826  0.47253127  1
  O2-  O185  1  0.18666661  0.76567806  0.97677837  1
  O2-  O186  1  0.56644335  0.13798642  0.45889520  1
  O2-  O187  1  0.56336538  0.13037330  0.95788064  1
  O2-  O188  1  0.55586756  0.45600323  0.44968236  1
  O2-  O189  1  0.56244696  0.46198611  0.96570910  1
  O2-  O190  1  0.55806866  0.77905009  0.48368399  1
  O2-  O191  1  0.54420529  0.78239168  0.96640495  1
  O2-  O192  1  0.89332433  0.10397029  0.45562874  1
  O2-  O193  1  0.88954098  0.10710764  0.97030517  1
  O2-  O194  1  0.88218000  0.46721364  0.45738802  1
  O2-  O195  1  0.88670636  0.42980129  0.96800017  1
  O2-  O196  1  0.87829265  0.76948163  0.46829988  1
  O2-  O197  1  0.87336191  0.77273717  0.96651230  1
  O2-  O198  1  0.11264101  0.21936629  0.03103239  1
  O2-  O199  1  0.11763401  0.21923778  0.52629828  1
  O2-  O200  1  0.10263430  0.54223937  0.04966574  1
  O2-  O201  1  0.09711552  0.54364393  0.53688474  1
  O2-  O202  1  0.09781341  0.89532619  0.03040517  1
  O2-  O203  1  0.09524723  0.87905420  0.53144286  1
  O2-  O204  1  0.45947987  0.24676433  0.03183409  1
  O2-  O205  1  0.46617404  0.26011865  0.51934252  1
  O2-  O206  1  0.44875922  0.56230306  0.04368525  1
  O2-  O207  1  0.44027819  0.55148864  0.52652338  1
  O2-  O208  1  0.42756725  0.90747519  -0.03447876  1
  O2-  O209  1  0.45101761  0.90384460  0.49013995  1
  O2-  O210  1  0.77080802  0.21457870  0.03696595  1
  O2-  O211  1  0.79164771  0.20482719  0.52799059  1
  O2-  O212  1  0.78000532  0.54759358  0.01947482  1
  O2-  O213  1  0.76685420  0.55247897  0.53038870  1
  O2-  O214  1  0.76290272  0.88594990  0.02971102  1
  O2-  O215  1  0.78121887  0.88933561  0.53195060  1
