# generated using pymatgen
data_H2O
_symmetry_space_group_name_H-M   'P 1'
_cell_length_a   13.51292542
_cell_length_b   13.50789997
_cell_length_c   14.71946998
_cell_angle_alpha   89.95198960
_cell_angle_beta   89.97959645
_cell_angle_gamma   119.97516379
_symmetry_Int_Tables_number   1
_chemical_formula_structural   H2O
_chemical_formula_sum   'H144 O72'
_cell_volume   2327.38552025
_cell_formula_units_Z   72
loop_
 _symmetry_equiv_pos_site_id
 _symmetry_equiv_pos_as_xyz
  1  'x, y, z'
loop_
 _atom_type_symbol
 _atom_type_oxidation_number
  H+  1.0
  O2-  -2.0
loop_
 _atom_site_type_symbol
 _atom_site_label
 _atom_site_symmetry_multiplicity
 _atom_site_fract_x
 _atom_site_fract_y
 _atom_site_fract_z
 _atom_site_occupancy
  H+  H0  1  0.83920161  0.80911698  0.99337996  1
  H+  H1  1  0.74802418  0.49399671  0.02707951  1
  H+  H2  1  0.16980987  0.14165207  0.75214364  1
  H+  H3  1  0.53306708  0.82993391  0.98527145  1
  H+  H4  1  0.81482496  0.17363921  0.72133748  1
  H+  H5  1  0.11069429  0.56414405  0.10578218  1
  H+  H6  1  0.52273637  0.16164522  0.26446491  1
  H+  H7  1  0.87385716  0.70171007  0.76125259  1
  H+  H8  1  0.61922370  0.46419510  0.28479837  1
  H+  H9  1  0.84001407  0.01373188  0.74249045  1
  H+  H10  1  0.16269741  0.84763716  0.75904201  1
  H+  H11  1  0.20323962  0.45174506  0.32512619  1
  H+  H12  1  0.84963443  0.48417934  0.48508549  1
  H+  H13  1  0.37904223  0.90770483  0.19878524  1
  H+  H14  1  0.58404378  0.46307922  0.77704221  1
  H+  H15  1  0.18408140  0.48193141  0.76881702  1
  H+  H16  1  0.43943709  0.88145788  0.59436610  1
  H+  H17  1  0.83852341  0.96412518  0.01831386  1
  H+  H18  1  0.35926484  0.53395921  0.02399528  1
  H+  H19  1  0.43385761  0.21065506  0.65829575  1
  H+  H20  1  1.01862482  0.83281024  1.00234042  1
  H+  H21  1  0.46451463  0.51791519  0.01257718  1
  H+  H22  1  0.15691890  0.97563669  0.75298138  1
  H+  H23  1  0.86193650  0.35054206  0.74304022  1
  H+  H24  1  1.03443437  0.84623184  0.75975658  1
  H+  H25  1  0.81718380  0.18407367  0.49646475  1
  H+  H26  1  0.51291596  0.81659879  0.26064538  1
  H+  H27  1  0.81755611  0.84112559  0.73688411  1
  H+  H28  1  0.51772145  0.81813282  0.49259166  1
  H+  H29  1  0.91040900  0.42402498  0.83553878  1
  H+  H30  1  0.97429423  0.48736458  0.26732179  1
  H+  H31  1  0.63007445  0.14348728  0.73966752  1
  H+  H32  1  0.31402708  0.16692202  0.22358452  1
  H+  H33  1  0.48822589  0.29974946  0.52404598  1
  H+  H34  1  0.16580648  0.36409063  1.00316085  1
  H+  H35  1  1.12951125  0.95542796  0.99922630  1
  H+  H36  1  0.03305050  0.85714467  0.50447043  1
  H+  H37  1  0.84127313  0.32193224  0.01893722  1
  H+  H38  1  0.84932791  0.81117530  0.48635800  1
  H+  H39  1  0.70127994  0.85110974  0.50312488  1
  H+  H40  1  0.13989413  0.20373571  0.19068878  1
  H+  H41  1  0.70803235  0.85743653  1.00832060  1
  H+  H42  1  0.81265685  0.96901128  0.24493714  1
  H+  H43  1  0.13427503  0.56671628  0.65299220  1
  H+  H44  1  0.52674525  1.04542296  0.25493796  1
  H+  H45  1  0.45572809  0.28337442  0.74886182  1
  H+  H46  1  0.91701744  0.52708471  0.93334270  1
  H+  H47  1  0.49661911  0.63330604  0.25106506  1
  H+  H48  1  0.52011049  0.81504520  0.75566604  1
  H+  H49  1  1.02349712  0.19025153  0.22582999  1
  H+  H50  1  0.27138835  0.78704332  0.27392203  1
  H+  H51  1  0.19819934  0.71090417  0.99656952  1
  H+  H52  1  0.55340120  0.11221564  0.40466344  1
  H+  H53  1  0.00627958  0.50652758  -0.01059692  1
  H+  H54  1  0.64130817  0.48005115  0.49856389  1
  H+  H55  1  0.29800545  0.47757020  0.77081786  1
  H+  H56  1  0.87038378  0.54334372  0.06114631  1
  H+  H57  1  0.14619806  0.29784931  0.74738915  1
  H+  H58  1  0.16017512  0.37964982  0.23264355  1
  H+  H59  1  0.25195260  0.13292452  0.98406372  1
  H+  H60  1  0.52644806  0.70913899  0.99088682  1
  H+  H61  1  0.83326711  0.63904615  0.49380160  1
  H+  H62  1  0.84654689  0.03217663  0.48990163  1
  H+  H63  1  0.18744934  0.82285611  -0.01063595  1
  H+  H64  1  0.02740187  0.17875012  0.73873667  1
  H+  H65  1  0.51636589  0.14975808  0.49694995  1
  H+  H66  1  0.69651594  0.83784392  0.73665709  1
  H+  H67  1  0.85873702  0.82969900  0.26427996  1
  H+  H68  1  0.57656604  0.45220250  0.98406305  1
  H+  H69  1  0.80198861  0.48967609  0.26518233  1
  H+  H70  1  0.36736909  0.18122118  0.52645063  1
  H+  H71  1  0.43262408  0.27372513  0.00230569  1
  H+  H72  1  0.75066194  0.51915817  0.72057065  1
  H+  H73  1  0.18629632  0.70137769  0.76305180  1
  H+  H74  1  0.47893885  0.63255691  0.75114179  1
  H+  H75  1  0.16248800  0.52591701  1.02160228  1
  H+  H76  1  0.37079590  0.84475496  0.73749219  1
  H+  H77  1  0.84769032  0.15041584  0.26417688  1
  H+  H78  1  0.38491171  0.86501264  0.00140243  1
  H+  H79  1  0.12193283  0.62942640  0.24209821  1
  H+  H80  1  0.48890554  -0.03716099  0.72998422  1
  H+  H81  1  0.17423406  0.36617918  0.46832259  1
  H+  H82  1  0.29946934  0.82015558  0.48945078  1
  H+  H83  1  0.86508997  0.51946617  0.73078246  1
  H+  H84  1  0.13373292  0.51179007  0.23682152  1
  H+  H85  1  0.05233225  0.10553210  -0.00763588  1
  H+  H86  1  0.15152431  0.85854699  0.51080753  1
  H+  H87  1  0.15642127  0.64397746  0.51287074  1
  H+  H88  1  0.63332741  0.82169272  0.26273913  1
  H+  H89  1  0.17061463  0.81715387  0.25837587  1
  H+  H90  1  0.16371473  -0.02574813  0.21305130  1
  H+  H91  1  0.04915315  0.51619245  0.73660928  1
  H+  H92  1  0.84430476  0.69243548  -0.00183465  1
  H+  H93  1  0.65332666  0.16598337  0.00704219  1
  H+  H94  1  0.97825649  0.83260326  0.25839123  1
  H+  H95  1  0.85551669  0.36002078  0.27368720  1
  H+  H96  1  0.48083016  -0.03525574  0.50792743  1
  H+  H97  1  0.50697754  -0.01642008  1.00336013  1
  H+  H98  1  0.70363269  0.19359698  0.24904852  1
  H+  H99  1  0.46641581  0.90724867  0.13171677  1
  H+  H100  1  0.14457450  0.18421642  0.51711675  1
  H+  H101  1  0.47363777  0.47607638  0.76319590  1
  H+  H102  1  0.17775700  0.02649803  0.51076422  1
  H+  H103  1  0.50814067  0.47908123  0.27543622  1
  H+  H104  1  0.48896128  0.31817755  0.25868083  1
  H+  H105  1  0.50150146  0.64375293  0.52601710  1
  H+  H106  1  0.96420102  0.15292096  0.49188266  1
  H+  H107  1  0.28993792  0.14069287  0.75812094  1
  H+  H108  1  0.55569383  0.77709748  0.40463087  1
  H+  H109  1  0.89660480  0.78150175  0.39626175  1
  H+  H110  1  0.38495878  0.18275403  0.08224277  1
  H+  H111  1  0.86315501  0.21971030  0.03112667  1
  H+  H112  1  0.76375001  0.53912864  0.18318031  1
  H+  H113  1  0.45874502  0.55736782  0.16241344  1
  H+  H114  1  0.77417371  0.88660037  0.15823048  1
  H+  H115  1  0.84066318  0.35267127  0.48700411  1
  H+  H116  1  0.86175728  0.08840521  0.82992847  1
  H+  H117  1  0.53079617  0.15650047  0.99576893  1
  H+  H118  1  0.69596840  0.18375008  0.49864264  1
  H+  H119  1  0.89046025  0.11019220  0.34942165  1
  H+  H120  1  0.78141587  0.22346499  0.63490046  1
  H+  H121  1  0.78005974  0.88555097  0.59102521  1
  H+  H122  1  0.18878928  0.48871581  0.47375464  1
  H+  H123  1  0.99734694  0.22800127  0.92695865  1
  H+  H124  1  0.56390594  0.78165379  0.84672154  1
  H+  H125  1  0.54804682  0.43678597  0.41968002  1
  H+  H126  1  0.21450036  0.43808833  0.91235891  1
  H+  H127  1  0.49467821  0.41749893  0.89947857  1
  H+  H128  1  0.04300939  0.52189067  0.51653181  1
  H+  H129  1  0.79031785  0.23792339  0.16335258  1
  H+  H130  1  0.89404309  0.43904266  0.38692943  1
  H+  H131  1  0.10972522  0.87718552  0.13839337  1
  H+  H132  1  0.50948796  0.27021953  0.16589573  1
  H+  H133  1  0.81316657  0.56609400  0.58470068  1
  H+  H134  1  0.22853061  0.78051950  0.85378430  1
  H+  H135  1  0.89051336  0.77229885  0.85390247  1
  H+  H136  1  0.20727095  0.77766719  0.40790212  1
  H+  H137  1  0.18211090  0.09326746  0.89308060  1
  H+  H138  1  0.23345859  0.12027085  0.43221286  1
  H+  H139  1  0.44495359  0.55906975  0.65778911  1
  H+  H140  1  0.50905253  0.13558876  0.75067052  1
  H+  H141  1  0.10461262  0.23152200  0.59795389  1
  H+  H142  1  0.20621138  0.13034093  0.28472671  1
  H+  H143  1  0.50017370  0.52464293  0.53142725  1
  O2-  O144  1  0.09438290  0.24165722  0.19154530  1
  O2-  O145  1  0.10890017  0.21967181  0.71969660  1
  O2-  O146  1  0.08374343  0.55112971  0.21596007  1
  O2-  O147  1  0.13159341  0.56541682  0.72138521  1
  O2-  O148  1  0.12186674  0.88972210  0.20555714  1
  O2-  O149  1  0.11794764  0.88829848  0.73890703  1
  O2-  O150  1  0.46276363  0.24158502  0.22074057  1
  O2-  O151  1  0.42313104  0.20393834  0.72626275  1
  O2-  O152  1  0.47003834  0.55495475  0.22839643  1
  O2-  O153  1  0.43352142  0.55209590  0.72813998  1
  O2-  O154  1  0.45260673  0.91055154  0.19979151  1
  O2-  O155  1  0.44836961  0.87890125  0.71100810  1
  O2-  O156  1  0.78623238  0.23413025  0.23115435  1
  O2-  O157  1  0.78321387  0.22331176  0.70284277  1
  O2-  O158  1  0.74436232  0.50972165  0.24534012  1
  O2-  O159  1  0.83181588  0.56733125  0.70779341  1
  O2-  O160  1  0.77044586  0.88685575  0.22560836  1
  O2-  O161  1  0.77709765  0.87951694  0.71231340  1
  O2-  O162  1  0.22865838  0.12247526  0.22344272  1
  O2-  O163  1  0.20660873  0.09859066  0.77782067  1
  O2-  O164  1  0.19554075  0.45871804  0.25780044  1
  O2-  O165  1  0.21767897  0.43668655  0.79484089  1
  O2-  O166  1  0.19310346  0.76460593  0.29052143  1
  O2-  O167  1  0.22344182  0.78245137  0.78567544  1
  O2-  O168  1  0.56354196  0.12139141  0.28559673  1
  O2-  O169  1  0.55070575  0.09364414  0.76018039  1
  O2-  O170  1  0.53670845  0.42835932  0.30487454  1
  O2-  O171  1  0.50281283  0.42296262  0.79085172  1
  O2-  O172  1  0.55273834  0.77920481  0.28664738  1
  O2-  O173  1  0.56117865  0.77520430  0.77891564  1
  O2-  O174  1  0.88752783  0.10808747  0.28150789  1
  O2-  O175  1  0.87729841  0.09583236  0.76483801  1
  O2-  O176  1  0.89531541  0.44049046  0.30006370  1
  O2-  O177  1  0.90813459  0.43112889  0.76888798  1
  O2-  O178  1  0.90268669  0.79434714  0.28798040  1
  O2-  O179  1  0.90331969  0.77992434  0.78614369  1
  O2-  O180  1  0.22500862  0.11483978  0.49787611  1
  O2-  O181  1  0.17238434  0.08999718  0.96063760  1
  O2-  O182  1  0.21076992  0.44132090  0.43779575  1
  O2-  O183  1  0.21463726  0.44221776  0.98064703  1
  O2-  O184  1  0.21558396  0.77987704  0.47512992  1
  O2-  O185  1  0.23551997  0.78926721  0.96972139  1
  O2-  O186  1  0.55732360  0.11077153  0.47226189  1
  O2-  O187  1  0.57534222  0.11886988  0.98297813  1
  O2-  O188  1  0.55782175  0.43825751  0.48745282  1
  O2-  O189  1  0.49574958  0.41435447  0.96857880  1
  O2-  O190  1  0.56193727  0.78102350  0.47231782  1
  O2-  O191  1  0.57262560  0.78776964  0.96485805  1
  O2-  O192  1  0.88379939  0.11345736  0.46796455  1
  O2-  O193  1  0.99494508  0.21549394  0.99280226  1
  O2-  O194  1  0.88748054  0.43724148  0.46489040  1
  O2-  O195  1  0.92577252  0.46612825  0.96079436  1
  O2-  O196  1  0.89117515  0.77197678  0.46519969  1
  O2-  O197  1  0.87803068  0.76761492  0.96765966  1
  O2-  O198  1  -0.02555603  0.09709416  -0.00427193  1
  O2-  O199  1  0.10168654  0.22468241  0.53064306  1
  O2-  O200  1  0.12363475  0.57024880  0.03768108  1
  O2-  O201  1  0.12244944  0.56414448  0.53800606  1
  O2-  O202  1  0.10030120  0.87555076  0.02217212  1
  O2-  O203  1  0.11214213  0.90099804  0.52923193  1
  O2-  O204  1  0.39817542  0.19058523  0.01680943  1
  O2-  O205  1  0.44954947  0.21787193  0.54495705  1
  O2-  O206  1  0.44204822  0.57183841  0.03776356  1
  O2-  O207  1  0.46689524  0.56891534  0.55785729  1
  O2-  O208  1  0.46527832  0.90031473  0.02328412  1
  O2-  O209  1  0.43781612  0.88272495  0.52613953  1
  O2-  O210  1  0.80780241  0.24517109  0.04615161  1
  O2-  O211  1  0.77913824  0.22872894  0.51709698  1
  O2-  O212  1  0.80821889  0.56093911  0.05788207  1
  O2-  O213  1  0.79841231  0.55733628  0.51846641  1
  O2-  O214  1  0.78513098  0.88451699  0.03665508  1
  O2-  O215  1  0.78335491  0.89081603  0.52363103  1
