# generated using pymatgen
data_H2O
_symmetry_space_group_name_H-M   'P 1'
_cell_length_a   13.52445251
_cell_length_b   13.51710023
_cell_length_c   14.70459052
_cell_angle_alpha   90.08742124
_cell_angle_beta   89.90057170
_cell_angle_gamma   119.93826858
_symmetry_Int_Tables_number   1
_chemical_formula_structural   H2O
_chemical_formula_sum   'H144 O72'
_cell_volume   2329.46307042
_cell_formula_units_Z   72
loop_
 _symmetry_equiv_pos_site_id
 _symmetry_equiv_pos_as_xyz
  1  'x, y, z'
loop_
 _atom_type_symbol
 _atom_type_oxidation_number
  H+  1.0
  O2-  -2.0
loop_
 _atom_site_type_symbol
 _atom_site_label
 _atom_site_symmetry_multiplicity
 _atom_site_fract_x
 _atom_site_fract_y
 _atom_site_fract_z
 _atom_site_occupancy
  H+  H0  1  0.18813797  0.04217073  0.76191055  1
  H+  H1  1  0.77411776  0.92686027  0.50189852  1
  H+  H2  1  0.15190496  0.60117397  0.20344109  1
  H+  H3  1  0.50975932  0.19447503  0.53388221  1
  H+  H4  1  0.18285310  0.38484532  0.78915171  1
  H+  H5  1  0.85322227  0.14374073  0.76129131  1
  H+  H6  1  0.20677663  0.38038980  0.50552102  1
  H+  H7  1  0.96148263  0.48236203  0.76303785  1
  H+  H8  1  0.84122645  0.09256176  0.47904359  1
  H+  H9  1  0.55599497  0.80136425  0.89954565  1
  H+  H10  1  0.50881477  0.80688055  0.25943182  1
  H+  H11  1  -0.03711103  0.81318188  0.48890085  1
  H+  H12  1  0.67147946  0.80703436  0.51229113  1
  H+  H13  1  0.13908140  0.84025149  0.51874104  1
  H+  H14  1  0.46348208  0.53252383  0.72924389  1
  H+  H15  1  0.48806023  0.64778815  0.25558726  1
  H+  H16  1  0.17418587  0.82113960  0.75085211  1
  H+  H17  1  0.61476447  0.30832945  0.16814324  1
  H+  H18  1  0.37521364  0.51029784  0.49291447  1
  H+  H19  1  0.11139911  0.11475995  0.27301014  1
  H+  H20  1  1.02210422  0.48688345  0.99163111  1
  H+  H21  1  0.78968483  0.06593987  0.38222678  1
  H+  H22  1  1.03891930  0.18805596  0.75356282  1
  H+  H23  1  0.13820772  0.85026689  0.01023381  1
  H+  H24  1  0.93400287  0.80628728  1.01590103  1
  H+  H25  1  0.82224357  0.96181821  0.73438098  1
  H+  H26  1  0.22632603  0.36225775  0.01160430  1
  H+  H27  1  0.86632812  0.33195169  0.98447334  1
  H+  H28  1  0.59590319  0.50335448  0.97450973  1
  H+  H29  1  0.09009637  0.21323383  0.53989009  1
  H+  H30  1  0.29485945  0.50001960  0.75941795  1
  H+  H31  1  0.48939529  0.62966982  0.50072814  1
  H+  H32  1  0.51787504  0.86340855  1.01006399  1
  H+  H33  1  0.70112477  0.52162067  0.50137633  1
  H+  H34  1  0.83757552  0.15972137  0.25194924  1
  H+  H35  1  -0.01796262  0.11418762  0.46874748  1
  H+  H36  1  0.85152778  0.81848270  0.77215046  1
  H+  H37  1  0.35455139  0.84741455  0.74471832  1
  H+  H38  1  0.13248563  0.67089301  0.97995507  1
  H+  H39  1  0.56123651  0.09958395  0.39825527  1
  H+  H40  1  0.42914936  0.66134658  0.99229545  1
  H+  H41  1  0.52541060  0.03642392  0.99882383  1
  H+  H42  1  0.79224036  0.62956808  0.08762423  1
  H+  H43  1  0.34012434  0.19363113  0.30250717  1
  H+  H44  1  0.37124735  0.19199518  0.00016421  1
  H+  H45  1  0.64650009  0.84308324  0.98379930  1
  H+  H46  1  0.35434347  0.84159500  0.51964443  1
  H+  H47  1  0.22572551  0.96108798  0.05925277  1
  H+  H48  1  0.18058758  0.69584327  0.50542889  1
  H+  H49  1  0.84998659  0.39166687  0.49107805  1
  H+  H50  1  0.79318346  0.12350731  0.00765046  1
  H+  H51  1  0.80517551  0.21581444  0.50748567  1
  H+  H52  1  0.10304656  0.88424193  0.16058995  1
  H+  H53  1  0.35998175  0.51598944  0.25610688  1
  H+  H54  1  0.63487504  0.50070883  0.25272975  1
  H+  H55  1  0.03463562  0.20234334  0.20523099  1
  H+  H56  1  0.99814775  0.17130289  0.44632260  1
  H+  H57  1  0.17762496  0.06382884  0.98787025  1
  H+  H58  1  0.81204620  0.64554848  0.23023830  1
  H+  H59  1  1.14063484  0.63402959  0.73816807  1
  H+  H60  1  0.49987273  0.80417703  0.49540370  1
  H+  H61  1  0.63121240  0.80975544  0.26521307  1
  H+  H62  1  0.18134333  0.47103281  0.25711981  1
  H+  H63  1  0.50027063  0.14796600  0.77420445  1
  H+  H64  1  0.70057503  0.16273213  0.00259518  1
  H+  H65  1  0.48609191  0.51754918  0.25349186  1
  H+  H66  1  0.54192291  0.46858968  0.82428766  1
  H+  H67  1  0.89849731  0.47518399  0.40106522  1
  H+  H68  1  0.24595072  0.78614244  0.97158916  1
  H+  H69  1  0.39974536  0.86720517  0.02374409  1
  H+  H70  1  0.84405727  0.48318189  0.76813271  1
  H+  H71  1  0.16073265  0.19529669  0.75969176  1
  H+  H72  1  0.87167147  0.07604165  0.84332727  1
  H+  H73  1  0.80551609  -0.03955372  0.24985827  1
  H+  H74  1  0.95905732  0.48376325  0.25593942  1
  H+  H75  1  0.95511193  0.80356591  0.25342891  1
  H+  H76  1  0.52216043  0.83076314  0.76430606  1
  H+  H77  1  0.83072645  0.64820679  0.74984477  1
  H+  H78  1  0.16139940  0.80950904  0.27144931  1
  H+  H79  1  0.51054672  0.37171699  0.96629786  1
  H+  H80  1  0.29034981  0.50282065  0.90455759  1
  H+  H81  1  0.19193860  0.49053844  0.49702738  1
  H+  H82  1  0.15484298  0.30273046  0.24039813  1
  H+  H83  1  0.53118648  0.49238270  0.48701213  1
  H+  H84  1  0.63513740  0.06912148  0.46139963  1
  H+  H85  1  0.45500434  0.88824492  0.15518893  1
  H+  H86  1  0.39824840  0.19906261  0.55009929  1
  H+  H87  1  0.03182290  0.85837040  0.75310647  1
  H+  H88  1  0.47627518  0.95579317  0.51436425  1
  H+  H89  1  0.28288961  0.14647930  0.43366428  1
  H+  H90  1  0.83302188  0.52372914  0.49877061  1
  H+  H91  1  0.69917795  0.17294734  0.23188632  1
  H+  H92  1  0.82564811  0.64940919  0.49944848  1
  H+  H93  1  0.63815285  0.82605448  0.76788747  1
  H+  H94  1  0.49586699  0.01545668  0.76702421  1
  H+  H95  1  0.54119409  0.37848427  0.49435163  1
  H+  H96  1  0.51188644  0.02503511  0.26044628  1
  H+  H97  1  0.21261854  0.16834155  0.51299185  1
  H+  H98  1  0.82490903  0.29845249  0.75228835  1
  H+  H99  1  0.52911520  0.32624349  0.22609083  1
  H+  H100  1  0.37295704  0.18576509  0.75975988  1
  H+  H101  1  0.53347641  0.15434509  0.25550604  1
  H+  H102  1  0.80443556  0.84180223  0.24842286  1
  H+  H103  1  0.36299464  0.84016731  0.23729144  1
  H+  H104  1  0.10448733  -0.05446016  0.25576494  1
  H+  H105  1  0.20559466  0.19510119  0.98423595  1
  H+  H106  1  0.04034095  0.52278629  0.51655986  1
  H+  H107  1  0.34351817  0.13953121  0.30280001  1
  H+  H108  1  0.21470475  0.77630218  0.41708570  1
  H+  H109  1  0.88454642  0.77606053  0.86344229  1
  H+  H110  1  0.19386064  0.76642824  0.83866547  1
  H+  H111  1  0.83827962  0.80464083  0.48602514  1
  H+  H112  1  0.79536288  0.57484562  0.65837867  1
  H+  H113  1  0.48209207  0.25848545  0.69546182  1
  H+  H114  1  0.63219039  0.52209370  0.74597454  1
  H+  H115  1  0.09333388  0.51220267  0.12895026  1
  H+  H116  1  0.16097080  0.53134662  -0.00730226  1
  H+  H117  1  0.78687423  0.22703114  0.66250169  1
  H+  H118  1  0.41058407  0.54677035  0.63926878  1
  H+  H119  1  0.52064379  0.15444780  -0.01270705  1
  H+  H120  1  0.87768842  0.76384785  0.34313922  1
  H+  H121  1  0.46485937  0.23875480  0.08134696  1
  H+  H122  1  0.22994578  0.12480776  0.84994953  1
  H+  H123  1  0.93759705  0.16722207  0.32141540  1
  H+  H124  1  0.69312982  0.21592623  0.51600469  1
  H+  H125  1  0.14588004  0.51927178  0.75194635  1
  H+  H126  1  0.14143234  0.95911604  0.51500262  1
  H+  H127  1  0.12851698  0.06778586  0.36779449  1
  H+  H128  1  0.09963167  0.89210400  0.65817314  1
  H+  H129  1  0.77340219  0.86948867  0.65361589  1
  H+  H130  1  0.54676973  0.09778133  0.86300553  1
  H+  H131  1  0.15498680  0.25085177  0.63304201  1
  H+  H132  1  0.13114110  0.68582462  0.29832602  1
  H+  H133  1  0.56473912  0.45318285  0.34652097  1
  H+  H134  1  0.82647925  0.81857889  0.99408020  1
  H+  H135  1  0.15696219  0.26901479  0.08801471  1
  H+  H136  1  0.90965498  0.04851892  0.99269602  1
  H+  H137  1  0.43730954  0.88956949  0.65767051  1
  H+  H138  1  0.85311941  0.50607640  0.25962954  1
  H+  H139  1  0.88839057  0.41886220  0.90204819  1
  H+  H140  1  0.22156968  0.44209307  0.35359756  1
  H+  H141  1  0.11358518  0.55272252  0.60822939  1
  H+  H142  1  0.77547691  0.20123905  0.14095793  1
  H+  H143  1  0.54035594  0.76976707  0.40231579  1
  O2-  O144  1  0.11622030  0.22749802  0.20785129  1
  O2-  O145  1  0.12157801  0.23731913  0.73819466  1
  O2-  O146  1  0.10164758  0.51880538  0.19746287  1
  O2-  O147  1  0.10230002  0.55187748  0.72000097  1
  O2-  O148  1  0.09251812  0.87197535  0.22741271  1
  O2-  O149  1  0.11023331  0.89872907  0.72529199  1
  O2-  O150  1  0.53618797  0.26719239  0.19042648  1
  O2-  O151  1  0.45789643  0.21995839  0.75434441  1
  O2-  O152  1  0.44345918  0.55973520  0.23556020  1
  O2-  O153  1  0.40526357  0.55164136  0.70545215  1
  O2-  O154  1  0.44518836  0.88181196  0.22384858  1
  O2-  O155  1  0.43632677  0.89340898  0.72558654  1
  O2-  O156  1  0.77845749  0.21285739  0.20855086  1
  O2-  O157  1  0.79518747  0.21980388  0.72790194  1
  O2-  O158  1  0.76723812  0.56010077  0.21157846  1
  O2-  O159  1  0.78944814  0.56848500  0.72476651  1
  O2-  O160  1  0.75722201  0.87817632  0.23883100  1
  O2-  O161  1  0.78066706  0.87806008  0.72045952  1
  O2-  O162  1  0.09185398  0.04453134  0.30820238  1
  O2-  O163  1  0.23234426  0.12369146  0.78160543  1
  O2-  O164  1  0.22775465  0.44010747  0.28540310  1
  O2-  O165  1  0.22358468  0.46804052  0.80110484  1
  O2-  O166  1  0.19593791  0.76355530  0.29574664  1
  O2-  O167  1  0.21057101  0.77622549  0.77246394  1
  O2-  O168  1  0.55771804  0.10391065  0.28559229  1
  O2-  O169  1  0.53763953  0.09668318  0.79338973  1
  O2-  O170  1  0.55546648  0.45578880  0.27931684  1
  O2-  O171  1  0.54961212  0.48337132  0.75765473  1
  O2-  O172  1  0.54608212  0.76433973  0.28427637  1
  O2-  O173  1  0.56175369  0.79610375  0.79556895  1
  O2-  O174  1  0.87169464  0.11417472  0.28550870  1
  O2-  O175  1  0.89101190  0.09793060  0.77888442  1
  O2-  O176  1  0.90213557  0.48609204  0.29636921  1
  O2-  O177  1  0.88221203  0.43981169  0.78763738  1
  O2-  O178  1  0.87365487  0.76424449  0.27549787  1
  O2-  O179  1  0.89594114  0.78273333  0.79630449  1
  O2-  O180  1  0.22944880  0.11072139  0.48415226  1
  O2-  O181  1  0.23147188  0.13913658  0.96266553  1
  O2-  O182  1  0.23080569  0.45112606  0.46922172  1
  O2-  O183  1  0.32118400  0.50036952  0.96672266  1
  O2-  O184  1  0.21622481  0.77769199  0.48472716  1
  O2-  O185  1  0.16533048  0.75311686  0.95715915  1
  O2-  O186  1  0.57633264  0.09240125  0.46474530  1
  O2-  O187  1  0.56102724  0.11257407  0.96694488  1
  O2-  O188  1  0.57842035  0.45595847  0.46634807  1
  O2-  O189  1  0.52889514  0.44688550  0.94154112  1
  O2-  O190  1  0.54068400  0.76556083  0.47010220  1
  O2-  O191  1  0.55821483  0.80190294  0.96956721  1
  O2-  O192  1  0.76673645  0.05603953  0.44854508  1
  O2-  O193  1  0.83456430  0.01948956  0.96455238  1
  O2-  O194  1  0.89444118  0.47361112  0.47090685  1
  O2-  O195  1  0.90248615  0.41360046  0.96796909  1
  O2-  O196  1  0.88329913  0.76840055  0.46316599  1
  O2-  O197  1  0.85850073  0.76431572  0.98874902  1
  O2-  O198  1  0.16895677  0.28078460  0.02180345  1
  O2-  O199  1  0.16804644  0.25307867  0.56394372  1
  O2-  O200  1  0.10302975  0.54719176  0.01731131  1
  O2-  O201  1  0.11967073  0.55784006  0.53931312  1
  O2-  O202  1  0.14426486  0.91671702  0.04561463  1
  O2-  O203  1  0.09496815  0.87927604  0.53601017  1
  O2-  O204  1  0.45427508  0.22747237  0.01466852  1
  O2-  O205  1  0.48174534  0.24529882  0.55396750  1
  O2-  O206  1  0.34935963  0.60795381  0.01265353  1
  O2-  O207  1  0.45525238  0.54652894  0.51544286  1
  O2-  O208  1  0.47793655  0.90853962  0.04552681  1
  O2-  O209  1  0.43578795  0.87775150  0.54050953  1
  O2-  O210  1  0.77779686  0.18490720  0.02674537  1
  O2-  O211  1  0.77439031  0.26093077  0.53490045  1
  O2-  O212  1  0.77077448  0.55261901  0.11128299  1
  O2-  O213  1  0.78575851  0.56522373  0.52309821  1
  O2-  O214  1  0.77145579  0.90220284  0.00272283  1
  O2-  O215  1  0.75485691  0.85242316  0.52822060  1
