# generated using pymatgen
data_H2O
_symmetry_space_group_name_H-M   'P 1'
_cell_length_a   13.49166001
_cell_length_b   13.50147970
_cell_length_c   14.67932924
_cell_angle_alpha   90.08731794
_cell_angle_beta   89.92297849
_cell_angle_gamma   119.98466916
_symmetry_Int_Tables_number   1
_chemical_formula_structural   H2O
_chemical_formula_sum   'H144 O72'
_cell_volume   2316.06139221
_cell_formula_units_Z   72
loop_
 _symmetry_equiv_pos_site_id
 _symmetry_equiv_pos_as_xyz
  1  'x, y, z'
loop_
 _atom_type_symbol
 _atom_type_oxidation_number
  H+  1.0
  O2-  -2.0
loop_
 _atom_site_type_symbol
 _atom_site_label
 _atom_site_symmetry_multiplicity
 _atom_site_fract_x
 _atom_site_fract_y
 _atom_site_fract_z
 _atom_site_occupancy
  H+  H0  1  0.25405585  0.45095165  0.88066143  1
  H+  H1  1  0.78759301  0.89346422  0.59804367  1
  H+  H2  1  0.64692475  0.17739795  0.76800666  1
  H+  H3  1  0.88074199  0.44545734  0.30294741  1
  H+  H4  1  0.40555144  0.55169184  0.61948408  1
  H+  H5  1  0.50934232  0.68496518  0.98626948  1
  H+  H6  1  0.46886123  0.84666048  0.25689595  1
  H+  H7  1  0.05761549  0.51833677  0.74400734  1
  H+  H8  1  0.78334801  0.28220806  0.22447063  1
  H+  H9  1  0.83810558  0.01548889  0.25808612  1
  H+  H10  1  0.83004374  0.30580812  0.74232942  1
  H+  H11  1  0.61307747  0.46183313  0.48425892  1
  H+  H12  1  0.13558209  0.19975463  0.58276152  1
  H+  H13  1  0.65669949  0.47197203  0.73195306  1
  H+  H14  1  0.17954970  0.50740093  0.50031822  1
  H+  H15  1  0.47977893  0.79204480  0.76858988  1
  H+  H16  1  0.97547545  0.51820118  0.54529852  1
  H+  H17  1  0.17570359  0.31256656  0.71075130  1
  H+  H18  1  0.26855385  0.63597367  0.13793449  1
  H+  H19  1  0.85454301  0.16336438  -0.02445020  1
  H+  H20  1  0.81218416  0.29101410  0.01520126  1
  H+  H21  1  0.33509186  0.52233305  0.51673712  1
  H+  H22  1  0.38854643  0.55632483  0.20976002  1
  H+  H23  1  0.28164292  0.41915319  0.29499744  1
  H+  H24  1  0.80541950  0.97158311  1.00528457  1
  H+  H25  1  0.82853741  0.53126977  -0.00176930  1
  H+  H26  1  0.92420998  0.77471485  0.75894102  1
  H+  H27  1  0.83955434  0.98050504  0.73209807  1
  H+  H28  1  0.18029861  0.80887878  0.76414055  1
  H+  H29  1  0.63188119  0.15815431  0.98697704  1
  H+  H30  1  0.51051588  0.74473060  0.85564732  1
  H+  H31  1  0.22803974  0.50872262  0.73666038  1
  H+  H32  1  0.98545980  0.16731717  0.98110028  1
  H+  H33  1  0.37307427  0.22048738  0.75695810  1
  H+  H34  1  0.18113927  0.20100463  0.73072965  1
  H+  H35  1  0.98494659  0.13856670  0.48044401  1
  H+  H36  1  0.79191660  0.62553666  -0.00244104  1
  H+  H37  1  0.79556457  0.17139896  0.23715114  1
  H+  H38  1  0.28241652  0.85580869  0.44200084  1
  H+  H39  1  0.79497003  0.25864513  0.51062341  1
  H+  H40  1  0.43630001  0.23553398  0.60743286  1
  H+  H41  1  0.67737624  0.14699261  0.51555916  1
  H+  H42  1  0.47689700  0.29348313  0.00162677  1
  H+  H43  1  0.63876678  0.80581803  0.49898574  1
  H+  H44  1  0.18138429  0.84828146  0.49885248  1
  H+  H45  1  0.52801488  0.81805525  0.50349322  1
  H+  H46  1  0.52420045  0.38166925  0.82929216  1
  H+  H47  1  0.18982459  0.74487862  0.89989266  1
  H+  H48  1  0.81912595  0.81426035  0.98906215  1
  H+  H49  1  0.50742537  0.16071491  0.98845159  1
  H+  H50  1  0.53348391  0.19502565  0.76791853  1
  H+  H51  1  0.30006354  0.76784120  1.02901751  1
  H+  H52  1  0.86432301  0.48314459  0.76041552  1
  H+  H53  1  0.19570349  0.37358946  -0.03273763  1
  H+  H54  1  0.47245826  0.64043394  0.52748808  1
  H+  H55  1  0.12442108  0.28369638  0.23628393  1
  H+  H56  1  0.80747917  0.84972569  0.73484592  1
  H+  H57  1  0.38431064  0.84230604  0.54175062  1
  H+  H58  1  0.96527381  0.48010672  1.01300869  1
  H+  H59  1  0.94074366  0.79356610  0.48143402  1
  H+  H60  1  0.07030022  0.47709854  0.12648800  1
  H+  H61  1  0.82366197  -0.03913737  0.50192975  1
  H+  H62  1  0.60627333  0.13638947  0.26138181  1
  H+  H63  1  0.21312667  0.47838096  0.25474470  1
  H+  H64  1  0.16241570  1.03007868  0.27128523  1
  H+  H65  1  0.86420658  0.13860428  0.48866264  1
  H+  H66  1  0.60930012  0.81527315  0.99065785  1
  H+  H67  1  0.48689707  0.52420560  0.23067491  1
  H+  H68  1  0.09929929  0.92378803  0.77656645  1
  H+  H69  1  0.34593230  0.17839595  0.23782366  1
  H+  H70  1  0.81038217  0.47469310  0.23057796  1
  H+  H71  1  0.49269991  0.14037964  0.50050108  1
  H+  H72  1  0.94389595  0.43268519  0.15771029  1
  H+  H73  1  0.99797898  0.17322722  0.75396582  1
  H+  H74  1  0.14835275  0.78912239  -0.01668020  1
  H+  H75  1  0.79431188  0.63181177  0.22532249  1
  H+  H76  1  0.27903320  0.80859611  0.26425774  1
  H+  H77  1  0.76880905  0.60893925  0.74468753  1
  H+  H78  1  0.15548471  0.66145556  0.52137365  1
  H+  H79  1  0.14255287  0.17924345  -0.00907466  1
  H+  H80  1  0.83176942  0.81008990  0.49008298  1
  H+  H81  1  0.30833146  0.82750133  0.76904739  1
  H+  H82  1  0.29532624  1.16210820  -0.02169526  1
  H+  H83  1  0.79086983  0.63304221  0.52047531  1
  H+  H84  1  0.46172022  0.17383649  0.23998927  1
  H+  H85  1  0.48582110  0.96951460  0.51971394  1
  H+  H86  1  0.88178642  0.43441240  0.47938479  1
  H+  H87  1  0.80987661  0.85524680  0.24133007  1
  H+  H88  1  0.94924940  0.81482475  0.25425003  1
  H+  H89  1  0.51286141  0.46525734  0.96895812  1
  H+  H90  1  0.97049789  0.14587209  0.25047116  1
  H+  H91  1  0.42399181  0.77820459  0.03185914  1
  H+  H92  1  0.37714652  0.50774881  -0.00900588  1
  H+  H93  1  1.02102689  0.59495157  0.95831078  1
  H+  H94  1  0.17331983  0.99148853  -0.00145423  1
  H+  H95  1  0.52961050  0.71336333  0.26179171  1
  H+  H96  1  0.40739224  0.85472441  0.16787608  1
  H+  H97  1  0.49348876  0.35934807  0.24719181  1
  H+  H98  1  0.48977636  0.98625159  0.75908368  1
  H+  H99  1  0.46245385  0.29040036  0.50877607  1
  H+  H100  1  0.13151977  0.84530863  0.23999656  1
  H+  H101  1  0.19536748  0.63549065  0.21986357  1
  H+  H102  1  0.16331278  1.01120313  0.53902606  1
  H+  H103  1  0.69323258  0.86220887  0.24911434  1
  H+  H104  1  0.62701171  0.45845581  -0.03101850  1
  H+  H105  1  0.24873958  0.09165718  0.74486274  1
  H+  H106  1  0.93370997  0.80896326  0.98293942  1
  H+  H107  1  0.42375770  0.61186811  0.75575960  1
  H+  H108  1  0.13265399  0.58289202  0.61170481  1
  H+  H109  1  0.43129047  0.21407265  0.09319383  1
  H+  H110  1  0.55882909  0.77997509  0.35772442  1
  H+  H111  1  0.77715619  0.21509133  0.65892314  1
  H+  H112  1  0.91678708  0.46431450  0.85068360  1
  H+  H113  1  0.61299833  0.47711334  0.24660906  1
  H+  H114  1  0.76361440  0.19987838  0.09319430  1
  H+  H115  1  0.24473352  0.95006849  0.05202604  1
  H+  H116  1  0.87391985  0.16934861  0.75541739  1
  H+  H117  1  0.19747207  0.11938115  0.35471516  1
  H+  H118  1  0.46238358  0.55099829  0.07828797  1
  H+  H119  1  0.20973807  0.44771329  0.41809566  1
  H+  H120  1  0.84386117  0.74993406  0.84531676  1
  H+  H121  1  0.23247403  0.13540818  0.88226362  1
  H+  H122  1  0.90866327  0.13344227  0.87632559  1
  H+  H123  1  0.17141268  0.64155125  0.74843208  1
  H+  H124  1  0.56138183  0.13885353  0.88356812  1
  H+  H125  1  0.88686034  0.34220389  0.39716549  1
  H+  H126  1  0.25642562  0.99660442  0.58810344  1
  H+  H127  1  0.53844277  0.42419465  0.39345517  1
  H+  H128  1  0.86414941  0.76739569  0.33985652  1
  H+  H129  1  0.52923184  0.10202069  0.40830448  1
  H+  H130  1  0.89460699  0.10607301  0.35121509  1
  H+  H131  1  0.74393680  0.54614732  0.63582618  1
  H+  H132  1  0.27173848  0.18141213  0.50542967  1
  H+  H133  1  0.48762489  0.02036440  0.26473135  1
  H+  H134  1  0.17817487  0.74966494  0.33688448  1
  H+  H135  1  0.94751168  0.35369628  0.40194604  1
  H+  H136  1  0.09907258  0.21459415  0.08279425  1
  H+  H137  1  0.76711868  0.90049336  0.09818371  1
  H+  H138  1  0.10764750  0.90268903  0.15560978  1
  H+  H139  1  0.46223253  0.91007877  0.66990915  1
  H+  H140  1  0.12746983  0.16705122  0.23672904  1
  H+  H141  1  0.10279548  0.89196456  0.67376652  1
  H+  H142  1  0.81015783  0.52408072  0.53752382  1
  H+  H143  1  0.75576977  0.55328786  0.13447270  1
  O2-  O144  1  0.08342797  0.20375511  0.21113969  1
  O2-  O145  1  0.13065465  0.22855251  0.70133719  1
  O2-  O146  1  0.21375184  0.58374680  0.18448422  1
  O2-  O147  1  0.13710132  0.56317199  0.72047719  1
  O2-  O148  1  0.09553775  0.89180651  0.22232579  1
  O2-  O149  1  0.07790428  0.85867970  0.73600525  1
  O2-  O150  1  0.42443273  0.21468044  0.21205499  1
  O2-  O151  1  0.47156873  0.26146470  0.73179083  1
  O2-  O152  1  0.46992166  0.58302383  0.20242801  1
  O2-  O153  1  0.38642875  0.53169233  0.72240063  1
  O2-  O154  1  0.42113604  0.87848733  0.23362653  1
  O2-  O155  1  0.44810330  0.90661188  0.73662368  1
  O2-  O156  1  0.74942201  0.19966935  0.20670875  1
  O2-  O157  1  0.78463476  0.22258929  0.72639934  1
  O2-  O158  1  0.75233051  0.55140546  0.20285988  1
  O2-  O159  1  0.73884323  0.53163568  0.71286397  1
  O2-  O160  1  0.77410142  0.90292170  0.22310571  1
  O2-  O161  1  0.79050906  0.90481983  0.70455774  1
  O2-  O162  1  0.19948131  0.11310154  0.28743961  1
  O2-  O163  1  0.26753274  0.16251936  0.77618291  1
  O2-  O164  1  0.20626046  0.41261243  0.29164292  1
  O2-  O165  1  0.26605964  0.46336972  0.75381635  1
  O2-  O166  1  0.19355851  0.76036995  0.27102529  1
  O2-  O167  1  0.22618613  0.77521292  0.78639501  1
  O2-  O168  1  0.52787962  0.10144076  0.28708373  1
  O2-  O169  1  0.56706532  0.14581797  0.79209038  1
  O2-  O170  1  0.53266954  0.43997333  0.26981981  1
  O2-  O171  1  0.52841134  0.38384793  0.76102516  1
  O2-  O172  1  0.56231006  0.79084781  0.29011560  1
  O2-  O173  1  0.49529836  0.73159467  0.78904096  1
  O2-  O174  1  0.88678270  0.10333482  0.28091861  1
  O2-  O175  1  0.91857751  0.13479275  0.78188053  1
  O2-  O176  1  0.84653575  0.42567111  0.24240884  1
  O2-  O177  1  0.90646863  0.44664684  0.78368738  1
  O2-  O178  1  0.86659954  0.77530423  0.27226240  1
  O2-  O179  1  0.84281629  0.74028690  0.77775669  1
  O2-  O180  1  0.18975097  0.13207207  0.48404881  1
  O2-  O181  1  0.21706423  0.12371160  0.95104983  1
  O2-  O182  1  0.22126780  0.46621416  0.48350068  1
  O2-  O183  1  0.24883325  0.45228682  0.94790495  1
  O2-  O184  1  0.20707430  0.80038723  0.46568054  1
  O2-  O185  1  0.16127090  0.72642394  0.96396755  1
  O2-  O186  1  0.53153735  0.09911348  0.47638944  1
  O2-  O187  1  0.55413178  0.12720745  0.95866178  1
  O2-  O188  1  0.53532295  0.41392786  0.46037213  1
  O2-  O189  1  0.54563367  0.41602390  0.94877829  1
  O2-  O190  1  0.55650948  0.76778066  0.47932473  1
  O2-  O191  1  0.52872408  0.76567531  0.97242847  1
  O2-  O192  1  0.90427066  0.10352288  0.45696858  1
  O2-  O193  1  0.90030748  0.12809678  0.95100782  1
  O2-  O194  1  0.88975343  0.46785255  0.53992380  1
  O2-  O195  1  0.94904202  0.51938162  0.96137082  1
  O2-  O196  1  0.86050477  0.75827774  0.46349786  1
  O2-  O197  1  0.85392690  0.76944512  0.96311528  1
  O2-  O198  1  0.09719471  0.21583613  0.01519773  1
  O2-  O199  1  0.12844969  0.19298257  0.51395016  1
  O2-  O200  1  -0.01002340  0.42621269  0.10774204  1
  O2-  O201  1  0.11750394  0.58199495  0.54399734  1
  O2-  O202  1  0.16545871  0.92501930  0.03552111  1
  O2-  O203  1  0.17561960  0.95181268  0.57070763  1
  O2-  O204  1  0.43418084  0.21169369  0.02499940  1
  O2-  O205  1  0.41646076  0.21477611  0.54218234  1
  O2-  O206  1  0.46033200  0.54622651  0.01099558  1
  O2-  O207  1  0.41717784  0.55988033  0.54925837  1
  O2-  O208  1  0.36060905  0.77381534  0.07057277  1
  O2-  O209  1  0.46604489  0.89459811  0.55037990  1
  O2-  O210  1  0.76983370  0.20800655  0.02428114  1
  O2-  O211  1  0.75868923  0.18140362  0.53585952  1
  O2-  O212  1  0.76602492  0.54597267  0.01792569  1
  O2-  O213  1  0.75522877  0.55427460  0.54822789  1
  O2-  O214  1  0.76381192  0.89375844  0.03056571  1
  O2-  O215  1  0.78101993  0.88296593  0.52860312  1
