# generated using pymatgen
data_H2O
_symmetry_space_group_name_H-M   'P 1'
_cell_length_a   13.53851377
_cell_length_b   13.54897789
_cell_length_c   14.72797425
_cell_angle_alpha   90.05224169
_cell_angle_beta   89.90010101
_cell_angle_gamma   119.99451079
_symmetry_Int_Tables_number   1
_chemical_formula_structural   H2O
_chemical_formula_sum   'H144 O72'
_cell_volume   2339.77734576
_cell_formula_units_Z   72
loop_
 _symmetry_equiv_pos_site_id
 _symmetry_equiv_pos_as_xyz
  1  'x, y, z'
loop_
 _atom_type_symbol
 _atom_type_oxidation_number
  H+  1.0
  O2-  -2.0
loop_
 _atom_site_type_symbol
 _atom_site_label
 _atom_site_symmetry_multiplicity
 _atom_site_fract_x
 _atom_site_fract_y
 _atom_site_fract_z
 _atom_site_occupancy
  H+  H0  1  -0.00307609  0.86192735  0.48377965  1
  H+  H1  1  0.06238466  0.54518086  0.73368019  1
  H+  H2  1  0.79498433  0.28232568  0.73161170  1
  H+  H3  1  0.79653607  0.25976452  0.49785375  1
  H+  H4  1  0.51309207  0.53795744  0.01731400  1
  H+  H5  1  0.50425971  0.12800391  0.49355953  1
  H+  H6  1  0.35476580  0.84051907  0.51067972  1
  H+  H7  1  0.47297936  0.18312064  0.99940777  1
  H+  H8  1  0.32022171  0.49665415  0.28602527  1
  H+  H9  1  0.06978572  0.88730753  0.25427516  1
  H+  H10  1  0.15454404  0.19509755  0.95935786  1
  H+  H11  1  0.17097451  0.22670490  0.22971352  1
  H+  H12  1  -0.04488692  0.77850520  -0.01320069  1
  H+  H13  1  0.77814802  0.89577509  0.11742388  1
  H+  H14  1  0.85843156  0.86961469  0.48928829  1
  H+  H15  1  1.02427877  0.54964241  0.50604274  1
  H+  H16  1  0.66049064  0.80319999  0.98390163  1
  H+  H17  1  0.55846068  1.06826203  -0.03078614  1
  H+  H18  1  0.46107557  0.81811866  0.49950426  1
  H+  H19  1  0.37289596  0.51608859  0.02100184  1
  H+  H20  1  0.49092998  0.65038768  0.29553325  1
  H+  H21  1  0.52243620  0.10379060  0.26783631  1
  H+  H22  1  0.19671485  0.49178662  0.30542159  1
  H+  H23  1  0.84163797  0.15097171  0.75518081  1
  H+  H24  1  0.54458458  0.10389125  0.82689400  1
  H+  H25  1  0.43821721  0.88525257  -0.07128766  1
  H+  H26  1  0.16159521  0.48561200  0.51012963  1
  H+  H27  1  0.85282748  0.14143953  0.48431648  1
  H+  H28  1  0.87464577  0.74835927  0.47413452  1
  H+  H29  1  0.84911726  0.42879942  0.83843764  1
  H+  H30  1  0.83344990  0.43905289  0.50746635  1
  H+  H31  1  0.85637049  0.70497521  0.74668724  1
  H+  H32  1  0.63159349  0.42673919  0.46344236  1
  H+  H33  1  0.65916371  0.53010328  0.05743310  1
  H+  H34  1  0.18338837  0.82906121  0.74817948  1
  H+  H35  1  0.67903350  0.14613357  0.50787474  1
  H+  H36  1  0.50110504  0.84120282  0.72521478  1
  H+  H37  1  0.64625502  0.20009350  0.95859434  1
  H+  H38  1  0.83567780  -0.01663284  0.49719416  1
  H+  H39  1  0.51863100  0.68993508  0.73932005  1
  H+  H40  1  0.49602606  0.64838713  -0.00220287  1
  H+  H41  1  0.53079948  0.51672919  0.50089629  1
  H+  H42  1  0.85882672  0.15593164  -0.00878811  1
  H+  H43  1  0.17903622  0.71655261  0.49617091  1
  H+  H44  1  0.15119335  0.18848018  0.51916684  1
  H+  H45  1  0.29273530  0.80818155  0.27382694  1
  H+  H46  1  0.93734147  0.48702501  0.97693238  1
  H+  H47  1  0.16196937  0.87369874  0.51329158  1
  H+  H48  1  0.63614760  0.49142579  0.74111168  1
  H+  H49  1  0.12782858  0.84844099  1.00585952  1
  H+  H50  1  0.26205896  0.80393774  0.99723774  1
  H+  H51  1  0.17707729  0.15444780  0.75929042  1
  H+  H52  1  0.49058626  0.96250675  0.72344284  1
  H+  H53  1  0.80884016  0.53303000  0.71488330  1
  H+  H54  1  0.53108677  0.51361585  0.27147108  1
  H+  H55  1  0.27673395  0.48667924  0.52826332  1
  H+  H56  1  0.84685527  0.35288639  0.28829530  1
  H+  H57  1  0.16642384  0.79638495  0.26013234  1
  H+  H58  1  0.49053991  0.51211321  0.73372536  1
  H+  H59  1  0.62280312  0.13430618  0.73965182  1
  H+  H60  1  0.69831592  0.84417043  0.71394589  1
  H+  H61  1  0.84397706  1.03055259  -0.01034447  1
  H+  H62  1  0.94049705  0.29859652  0.08286231  1
  H+  H63  1  0.80241375  0.57497124  0.49173807  1
  H+  H64  1  0.70512551  0.55974198  0.21660301  1
  H+  H65  1  0.15441379  0.69029482  0.97027039  1
  H+  H66  1  0.84910539  0.88139802  0.04115617  1
  H+  H67  1  0.47892374  0.27712168  0.49501831  1
  H+  H68  1  0.16267196  -0.00675463  0.50917383  1
  H+  H69  1  0.15509685  0.63317077  0.28864291  1
  H+  H70  1  -0.01277085  0.82796012  0.75447079  1
  H+  H71  1  0.81899833  0.76181713  0.23572848  1
  H+  H72  1  0.98010022  0.16523310  0.75554815  1
  H+  H73  1  0.51279812  0.80233152  0.33341979  1
  H+  H74  1  0.50407673  0.00729425  0.49436292  1
  H+  H75  1  0.70944690  0.16071639  0.25819479  1
  H+  H76  1  0.88011832  0.10889147  0.84980228  1
  H+  H77  1  0.21527635  0.41717268  1.09433928  1
  H+  H78  1  0.13131377  0.30000507  0.73889167  1
  H+  H79  1  0.52749830  0.40028717  0.23903822  1
  H+  H80  1  0.55669145  0.82183561  -0.03495533  1
  H+  H81  1  0.14106144  0.30215399  0.53038686  1
  H+  H82  1  0.14665029  -0.02161613  0.73991218  1
  H+  H83  1  0.81541404  0.95972237  0.72272530  1
  H+  H84  1  0.96381266  0.47046190  0.29390509  1
  H+  H85  1  0.51385967  0.67770681  0.47702040  1
  H+  H86  1  0.85246137  0.31994864  1.02985651  1
  H+  H87  1  0.49708801  0.23808218  0.21561794  1
  H+  H88  1  0.13960750  0.51032493  0.00399567  1
  H+  H89  1  0.29151587  0.14707969  0.98424891  1
  H+  H90  1  1.03927905  0.19848376  0.96160107  1
  H+  H91  1  0.19407703  0.49727010  0.73688609  1
  H+  H92  1  -0.01823539  0.76784641  0.21941031  1
  H+  H93  1  0.82002360  0.68791413  0.97692810  1
  H+  H94  1  0.05034700  0.21737909  0.24050102  1
  H+  H95  1  0.22421184  0.13449955  0.39799116  1
  H+  H96  1  0.86969519  0.14535727  0.26381295  1
  H+  H97  1  0.18968814  0.36760774  0.26932533  1
  H+  H98  1  0.52156929  0.36617580  0.74568266  1
  H+  H99  1  0.37567120  0.51418854  0.71248108  1
  H+  H100  1  0.31718259  0.19578337  0.24591954  1
  H+  H101  1  0.49052079  0.93823010  0.27485033  1
  H+  H102  1  0.70238242  0.60986922  0.51284160  1
  H+  H103  1  0.30321110  0.15859951  0.48513391  1
  H+  H104  1  0.36088633  0.18748498  0.73277114  1
  H+  H105  1  0.58767339  0.44173011  0.88700971  1
  H+  H106  1  0.20055925  0.08128669  0.24281880  1
  H+  H107  1  0.97793022  0.15404583  0.49465407  1
  H+  H108  1  0.46233064  0.89590746  0.03293202  1
  H+  H109  1  0.17568452  0.66525464  0.73126554  1
  H+  H110  1  0.79679615  0.22071650  0.17486355  1
  H+  H111  1  0.87048653  0.47120780  0.40242351  1
  H+  H112  1  0.08966593  0.21186385  0.65456923  1
  H+  H113  1  0.22256207  0.79666808  0.40969569  1
  H+  H114  1  0.47321666  0.17720135  0.72783900  1
  H+  H115  1  0.48638701  0.30357146  -0.00979867  1
  H+  H116  1  0.23292616  0.45308830  0.82093096  1
  H+  H117  1  0.77014947  0.20053134  0.64410668  1
  H+  H118  1  0.16843264  0.03139972  0.98811400  1
  H+  H119  1  0.46289628  0.60541263  0.19259506  1
  H+  H120  1  0.51977860  0.57500875  0.59157307  1
  H+  H121  1  0.72990058  0.38015406  0.79900121  1
  H+  H122  1  0.90419937  0.75870221  0.85010955  1
  H+  H123  1  0.21852161  0.78940464  0.83702707  1
  H+  H124  1  0.55920230  0.42720450  0.38008540  1
  H+  H125  1  0.11803089  0.54028769  0.21282627  1
  H+  H126  1  0.19042690  0.36380166  0.99662715  1
  H+  H127  1  0.56871337  0.76987758  0.82727380  1
  H+  H128  1  0.10917212  0.57958506  0.59124003  1
  H+  H129  1  0.55980760  0.08511375  0.36558145  1
  H+  H130  1  0.45665052  0.83845215  0.20382908  1
  H+  H131  1  0.45172331  0.87582453  0.62749727  1
  H+  H132  1  0.72344433  0.85637175  0.27462812  1
  H+  H133  1  0.84284301  -0.03407779  0.25580993  1
  H+  H134  1  0.08322162  0.56012571  0.06790981  1
  H+  H135  1  0.79045972  0.89392338  0.58525090  1
  H+  H136  1  0.21973508  0.11247021  0.84357063  1
  H+  H137  1  0.08247490  0.87424270  0.09687940  1
  H+  H138  1  0.43716101  0.21094635  0.59041695  1
  H+  H139  1  0.92129113  0.11551305  0.34789197  1
  H+  H140  1  0.77972301  0.59609485  0.63397511  1
  H+  H141  1  0.10950325  0.90418476  0.64802144  1
  H+  H142  1  0.80985384  0.45949685  0.99176357  1
  H+  H143  1  0.44305698  0.25270867  0.12590418  1
  O2-  O144  1  0.13077359  0.27071241  0.21831625  1
  O2-  O145  1  0.08527361  0.21642385  0.72397469  1
  O2-  O146  1  0.11981241  0.54761683  0.27877090  1
  O2-  O147  1  0.13864788  0.58276256  0.70704647  1
  O2-  O148  1  0.06558061  0.82784779  0.21424904  1
  O2-  O149  1  0.10565920  0.89784886  0.71639515  1
  O2-  O150  1  0.44703942  0.26559519  0.19425206  1
  O2-  O151  1  0.44047476  0.22481710  0.70794474  1
  O2-  O152  1  0.45167365  0.57920366  0.25563100  1
  O2-  O153  1  0.45927627  0.55637651  0.70239626  1
  O2-  O154  1  0.44091437  0.85342399  0.26549583  1
  O2-  O155  1  0.46103393  0.88219132  0.69891243  1
  O2-  O156  1  0.79112712  0.20994825  0.24156552  1
  O2-  O157  1  0.76794252  0.20199810  0.71229630  1
  O2-  O158  1  0.76494331  0.61398176  0.17389873  1
  O2-  O159  1  0.77707348  0.58325223  0.70204983  1
  O2-  O160  1  0.79073314  0.88541465  0.23549900  1
  O2-  O161  1  0.77802082  0.88625684  0.69112675  1
  O2-  O162  1  0.23750277  0.15656850  0.27095760  1
  O2-  O163  1  0.22050258  0.11608647  0.77543476  1
  O2-  O164  1  0.23853175  0.44692917  0.30800835  1
  O2-  O165  1  0.22308625  0.44467548  0.75517286  1
  O2-  O166  1  0.21208552  0.76976182  0.29508602  1
  O2-  O167  1  0.22396278  0.78955224  0.77027132  1
  O2-  O168  1  0.56800158  0.07587919  0.29759326  1
  O2-  O169  1  0.54120492  0.09318833  0.75977682  1
  O2-  O170  1  0.57264448  0.47029421  0.27600821  1
  O2-  O171  1  0.56154964  0.44470730  0.77260281  1
  O2-  O172  1  0.54886147  0.76077937  0.36140058  1
  O2-  O173  1  0.55866479  0.77195152  0.76089966  1
  O2-  O174  1  0.92135229  0.11487895  0.27977600  1
  O2-  O175  1  0.88780178  0.11564546  0.77993132  1
  O2-  O176  1  0.88122321  0.43408201  0.30603919  1
  O2-  O177  1  0.80871545  0.40873096  0.77936680  1
  O2-  O178  1  0.84239168  0.70301332  0.23940120  1
  O2-  O179  1  0.90534508  0.77880243  0.78201417  1
  O2-  O180  1  0.22213643  0.12797578  0.46495971  1
  O2-  O181  1  0.21261027  0.10783928  0.95932369  1
  O2-  O182  1  0.19854814  0.43809501  0.50810263  1
  O2-  O183  1  0.23193563  0.44140911  1.03068403  1
  O2-  O184  1  0.22624426  0.79895198  0.47747328  1
  O2-  O185  1  0.19404942  0.77422061  0.95948219  1
  O2-  O186  1  0.54729502  0.08873390  0.47309337  1
  O2-  O187  1  0.56840136  0.14060446  0.94444141  1
  O2-  O188  1  0.55450210  0.40880712  0.44745758  1
  O2-  O189  1  0.60428595  0.42790546  0.95138981  1
  O2-  O190  1  0.47883677  0.71937647  0.44632255  1
  O2-  O191  1  0.58372915  0.76666788  0.95436247  1
  O2-  O192  1  0.90213264  0.11115528  0.46250928  1
  O2-  O193  1  0.87711454  0.10419863  0.95590304  1
  O2-  O194  1  0.87407258  0.50380550  0.46677559  1
  O2-  O195  1  0.85647143  0.42978582  0.96559885  1
  O2-  O196  1  0.91979815  0.82944974  0.45388459  1
  O2-  O197  1  0.89465869  0.71738590  0.94797156  1
  O2-  O198  1  0.12188192  0.24620583  -0.04967791  1
  O2-  O199  1  0.10362776  0.21852383  0.54675583  1
  O2-  O200  1  0.09203251  0.54767182  0.00375736  1
  O2-  O201  1  0.10488771  0.57860695  0.52347180  1
  O2-  O202  1  0.08441494  0.88426210  0.02975862  1
  O2-  O203  1  0.12143710  0.91426241  0.53505014  1
  O2-  O204  1  0.43547811  0.22689183  0.01787438  1
  O2-  O205  1  0.43644145  0.19951225  0.52304960  1
  O2-  O206  1  0.45885135  0.56986340  0.03056718  1
  O2-  O207  1  0.55546713  0.59141111  0.53011572  1
  O2-  O208  1  0.49995260  0.91401791  -0.02649270  1
  O2-  O209  1  0.43760912  0.87066040  0.52906295  1
  O2-  O210  1  0.86118660  0.25982364  0.06236873  1
  O2-  O211  1  0.76175952  0.18610851  0.52846001  1
  O2-  O212  1  0.62778214  0.53661244  -0.00166149  1
  O2-  O213  1  0.78054132  0.62497377  0.52622766  1
  O2-  O214  1  0.78762610  0.89858088  0.04956526  1
  O2-  O215  1  0.79957940  0.90006057  0.51582877  1
