# generated using pymatgen
data_H2O
_symmetry_space_group_name_H-M   'P 1'
_cell_length_a   13.51354147
_cell_length_b   13.51249924
_cell_length_c   14.66833168
_cell_angle_alpha   89.91609996
_cell_angle_beta   90.04697242
_cell_angle_gamma   120.05820362
_symmetry_Int_Tables_number   1
_chemical_formula_structural   H2O
_chemical_formula_sum   'H144 O72'
_cell_volume   2318.25248977
_cell_formula_units_Z   72
loop_
 _symmetry_equiv_pos_site_id
 _symmetry_equiv_pos_as_xyz
  1  'x, y, z'
loop_
 _atom_type_symbol
 _atom_type_oxidation_number
  H+  1.0
  O2-  -2.0
loop_
 _atom_site_type_symbol
 _atom_site_label
 _atom_site_symmetry_multiplicity
 _atom_site_fract_x
 _atom_site_fract_y
 _atom_site_fract_z
 _atom_site_occupancy
  H+  H0  1  0.46359493  0.88944781  0.08053533  1
  H+  H1  1  0.19518659  0.35888395  0.98842885  1
  H+  H2  1  0.55351344  0.13346738  0.85607048  1
  H+  H3  1  0.14208143  0.84028745  0.00684919  1
  H+  H4  1  0.52297203  0.83131934  0.48179056  1
  H+  H5  1  0.34811117  0.18139745  0.26751106  1
  H+  H6  1  0.82251175  0.48029135  0.26714272  1
  H+  H7  1  0.80183779  0.21347860  0.50662653  1
  H+  H8  1  0.84903216  0.69238519  0.48984356  1
  H+  H9  1  0.15713292  0.18261422  0.00463253  1
  H+  H10  1  0.83895889  0.82038378  0.26366353  1
  H+  H11  1  0.82868552  0.13826649  0.26804382  1
  H+  H12  1  0.20442214  0.82934404  0.74879778  1
  H+  H13  1  0.97321059  0.15540261  0.99195194  1
  H+  H14  1  0.68074982  0.52770806  0.23722456  1
  H+  H15  1  0.81274358  -0.02399939  0.23733444  1
  H+  H16  1  0.13396785  0.23106336  0.42354596  1
  H+  H17  1  0.35927883  0.52711037  0.23304734  1
  H+  H18  1  0.19472193  0.70596562  0.53261561  1
  H+  H19  1  0.63069554  0.49220637  0.98994979  1
  H+  H20  1  0.18541029  0.37881460  0.48808850  1
  H+  H21  1  0.48943425  0.19034349  0.50713143  1
  H+  H22  1  0.86321528  0.11763938  0.52183589  1
  H+  H23  1  0.48287379  0.51960593  0.23708540  1
  H+  H24  1  0.59159398  0.77516585  0.33397383  1
  H+  H25  1  0.36914354  0.52525433  0.51037899  1
  H+  H26  1  0.49382904  0.64473734  1.00249830  1
  H+  H27  1  1.00859378  0.86512763  0.23345350  1
  H+  H28  1  0.84712827  0.49360545  0.76637880  1
  H+  H29  1  0.97402708  0.81820404  0.99275799  1
  H+  H30  1  0.48448285  0.30480605  0.01505972  1
  H+  H31  1  0.15327929  0.84712876  0.53400911  1
  H+  H32  1  0.51478158  0.15817662  0.99435147  1
  H+  H33  1  0.50545814  1.01373730  0.25276630  1
  H+  H34  1  0.68783563  0.52017774  0.51162791  1
  H+  H35  1  0.51508255  0.03879990  0.98077627  1
  H+  H36  1  0.54765897  0.10861258  0.39368717  1
  H+  H37  1  0.30617913  0.82059843  -0.00577710  1
  H+  H38  1  0.17971539  0.31490400  0.23112398  1
  H+  H39  1  0.19054392  0.49528923  0.24539917  1
  H+  H40  1  0.80990444  0.31385583  0.74795864  1
  H+  H41  1  0.76434815  0.23695583  0.65737254  1
  H+  H42  1  0.51294017  0.48993476  0.48674486  1
  H+  H43  1  0.88496796  0.78018889  0.35075228  1
  H+  H44  1  0.19286710  0.16217768  0.76106645  1
  H+  H45  1  0.53331449  0.26711169  0.25140646  1
  H+  H46  1  0.93919349  0.47655471  1.02541658  1
  H+  H47  1  0.82469632  0.83484261  0.51766397  1
  H+  H48  1  0.76735904  0.79187635  0.74266171  1
  H+  H49  1  0.84249855  0.98125344  -0.00175788  1
  H+  H50  1  0.80828414  0.52382034  0.01619371  1
  H+  H51  1  0.81639074  0.18132036  0.00749938  1
  H+  H52  1  1.00856013  0.51635825  0.48717243  1
  H+  H53  1  0.52206339  0.38283967  0.75988095  1
  H+  H54  1  0.16917619  0.81733901  0.20855036  1
  H+  H55  1  0.06677885  0.51702535  -0.05639007  1
  H+  H56  1  0.36985583  0.19378469  0.73864457  1
  H+  H57  1  0.52138353  0.50183274  0.76023800  1
  H+  H58  1  0.37419989  0.52262982  0.73982733  1
  H+  H59  1  0.80428899  0.64122140  0.24202241  1
  H+  H60  1  0.68926717  0.17741495  0.23696779  1
  H+  H61  1  0.18485801  0.48335505  0.76050451  1
  H+  H62  1  0.51269821  0.17915497  0.75876397  1
  H+  H63  1  0.03268058  0.16553854  0.49115497  1
  H+  H64  1  0.58855525  0.78578137  0.88913960  1
  H+  H65  1  0.84258749  0.69792560  -0.00017291  1
  H+  H66  1  0.19509841  0.20614072  0.23742839  1
  H+  H67  1  0.15336142  -0.03753501  0.51075322  1
  H+  H68  1  0.17743888  0.49228632  0.48177081  1
  H+  H69  1  0.31039825  0.15096207  0.99694155  1
  H+  H70  1  0.19133503  0.03275247  0.98567696  1
  H+  H71  1  0.58200283  0.82428232  0.74750161  1
  H+  H72  1  0.11049015  0.58791218  0.42187510  1
  H+  H73  1  0.39781370  -0.16915574  0.74796669  1
  H+  H74  1  0.70007082  0.52506491  0.74622101  1
  H+  H75  1  0.15315723  -0.02170415  0.74335757  1
  H+  H76  1  0.19058637  0.69729572  0.98903266  1
  H+  H77  1  0.19475060  0.70869097  0.75042966  1
  H+  H78  1  0.83438664  0.49443117  0.49656729  1
  H+  H79  1  0.37070211  0.18568496  0.51377629  1
  H+  H80  1  -0.02890429  0.80948322  0.48981205  1
  H+  H81  1  -0.10882987  0.78274853  0.84519419  1
  H+  H82  1  0.69631164  0.18051247  1.00562342  1
  H+  H83  1  0.77595704  0.22241450  0.15386972  1
  H+  H84  1  0.15951110  0.31074347  0.73833504  1
  H+  H85  1  0.35762280  0.83731043  0.21951885  1
  H+  H86  1  0.14162647  0.62271066  0.19932124  1
  H+  H87  1  0.19217427  0.13966639  0.49168174  1
  H+  H88  1  0.49735107  0.85689642  -0.01329399  1
  H+  H89  1  0.17106722  0.50772083  0.98141441  1
  H+  H90  1  0.85084030  0.16265517  0.76573754  1
  H+  H91  1  0.82242160  0.64004454  0.74137427  1
  H+  H92  1  0.50666074  -0.01621761  0.51368998  1
  H+  H93  1  0.64035371  0.17738953  0.76209491  1
  H+  H94  1  0.26123829  0.80082017  0.46233457  1
  H+  H95  1  0.65068749  0.82414336  0.98264940  1
  H+  H96  1  0.83274419  0.35723009  1.00109484  1
  H+  H97  1  0.21099813  0.78274994  0.11846988  1
  H+  H98  1  0.49804706  0.37685572  0.24919033  1
  H+  H99  1  0.96913906  0.16375493  0.76238980  1
  H+  H100  1  0.46238201  0.83463820  0.26830856  1
  H+  H101  1  0.40136916  0.86626341  0.54809863  1
  H+  H102  1  0.85146753  0.83719630  -0.00165567  1
  H+  H103  1  0.62852073  0.16283482  0.48216251  1
  H+  H104  1  0.80094413  0.32844780  0.51328233  1
  H+  H105  1  1.02499981  0.51353128  0.74779237  1
  H+  H106  1  0.49196344  0.52461168  0.00714413  1
  H+  H107  1  0.23551652  0.46665428  0.34041634  1
  H+  H108  1  0.80219395  0.90312252  0.09157417  1
  H+  H109  1  0.82841584  0.36495291  0.26878083  1
  H+  H110  1  0.12791248  0.22687711  0.09591418  1
  H+  H111  1  0.55259470  0.45244448  0.90026061  1
  H+  H112  1  0.45670844  0.23595395  0.10959781  1
  H+  H113  1  0.11495314  0.53176424  0.12402034  1
  H+  H114  1  0.24572871  0.11136106  0.40591244  1
  H+  H115  1  0.21021441  0.72544782  0.35074820  1
  H+  H116  1  0.07092169  0.98591083  0.18657513  1
  H+  H117  1  0.23636071  0.12265760  0.84835884  1
  H+  H118  1  -0.02941863  0.82749852  0.75701455  1
  H+  H119  1  0.45785175  0.56712027  0.65522187  1
  H+  H120  1  0.85567223  -0.00083575  0.50535281  1
  H+  H121  1  0.49145431  0.89438024  0.67324987  1
  H+  H122  1  0.22892459  0.05938935  0.26580630  1
  H+  H123  1  0.86244193  0.08637802  0.35426128  1
  H+  H124  1  0.76680800  0.55788451  0.60345749  1
  H+  H125  1  0.31471473  0.48160208  0.98765022  1
  H+  H126  1  0.70074434  0.85894896  0.20679848  1
  H+  H127  1  0.53854647  0.45738568  0.34184642  1
  H+  H128  1  0.51452209  0.37191073  0.48387375  1
  H+  H129  1  0.88257704  0.45158079  0.85706744  1
  H+  H130  1  0.48703921  0.64086719  0.50402609  1
  H+  H131  1  0.89411351  0.11942460  0.90168319  1
  H+  H132  1  0.09586222  0.88800220  0.08826755  1
  H+  H133  1  0.49410868  0.12540225  0.24431763  1
  H+  H134  1  0.10664829  0.89805613  0.65547130  1
  H+  H135  1  0.45207476  0.23277674  0.64900393  1
  H+  H136  1  0.76871405  0.56751814  0.10366161  1
  H+  H137  1  0.27472151  0.75385433  0.35354808  1
  H+  H138  1  0.86148942  0.44513599  0.40324640  1
  H+  H139  1  0.44575046  0.56501987  0.13825659  1
  H+  H140  1  0.76093332  0.85787091  0.60135332  1
  H+  H141  1  0.23115178  0.44163417  0.84462160  1
  H+  H142  1  0.12016609  0.22818744  0.65216451  1
  H+  H143  1  0.09856929  0.54105544  0.65796638  1
  O2-  O144  1  0.14926119  0.23617103  0.20832455  1
  O2-  O145  1  0.11820179  0.22765886  0.71864992  1
  O2-  O146  1  0.11556753  0.54065847  0.19047509  1
  O2-  O147  1  0.10510267  0.54748871  0.72411333  1
  O2-  O148  1  0.08067546  0.92022168  0.19885697  1
  O2-  O149  1  0.10825980  0.89696267  0.72351098  1
  O2-  O150  1  0.46333834  0.25377622  0.22133320  1
  O2-  O151  1  0.45216941  0.23446561  0.71779493  1
  O2-  O152  1  0.44257751  0.56372109  0.20827687  1
  O2-  O153  1  0.45589616  0.56177666  0.72252910  1
  O2-  O154  1  0.44251926  0.87414729  0.22110103  1
  O2-  O155  1  0.48048006  0.86334919  0.73529783  1
  O2-  O156  1  0.77199693  0.22127377  0.22161269  1
  O2-  O157  1  0.76370989  0.23314918  0.72529405  1
  O2-  O158  1  0.76137280  0.56264618  0.21531921  1
  O2-  O159  1  0.78001420  0.55805978  0.72150781  1
  O2-  O160  1  0.78387461  0.89774942  0.20322162  1
  O2-  O161  1  0.69796704  0.78252212  0.71057784  1
  O2-  O162  1  0.26489994  0.13545961  0.29350786  1
  O2-  O163  1  0.23606854  0.12349210  0.78020804  1
  O2-  O164  1  0.24026654  0.46589942  0.27275512  1
  O2-  O165  1  0.22689121  0.44274636  0.77663840  1
  O2-  O166  1  0.20918372  0.77845445  0.18696056  1
  O2-  O167  1  0.24613563  0.78937257  0.76587175  1
  O2-  O168  1  0.54117218  0.09611793  0.27172217  1
  O2-  O169  1  0.55719541  0.14048242  0.78603569  1
  O2-  O170  1  0.53632249  0.46122568  0.27333339  1
  O2-  O171  1  0.56274792  0.46106340  0.78566632  1
  O2-  O172  1  0.52336051  0.77525450  0.35617048  1
  O2-  O173  1  0.65169330  0.82962295  0.77770058  1
  O2-  O174  1  0.85748665  0.08635397  0.28715623  1
  O2-  O175  1  0.89327237  0.12773895  0.79197068  1
  O2-  O176  1  0.85838682  0.44090477  0.29785356  1
  O2-  O177  1  0.88670311  0.45163175  0.78972738  1
  O2-  O178  1  0.88226387  0.78177382  0.28190353  1
  O2-  O179  1  0.88875401  0.77999831  0.77832900  1
  O2-  O180  1  0.23551951  0.10116279  0.47413537  1
  O2-  O181  1  0.23299159  0.11425428  0.96750920  1
  O2-  O182  1  0.22574373  0.45838382  0.46536275  1
  O2-  O183  1  0.23552852  0.43887811  0.96226077  1
  O2-  O184  1  0.24467343  0.78997205  0.52774664  1
  O2-  O185  1  0.22199519  0.77943101  1.00468649  1
  O2-  O186  1  0.54809862  0.11282365  0.46158758  1
  O2-  O187  1  0.55456753  0.12127273  0.96257184  1
  O2-  O188  1  0.55327486  0.45153629  0.45920468  1
  O2-  O189  1  0.54987291  0.45002118  0.96915907  1
  O2-  O190  1  0.54247957  0.77411901  0.45473951  1
  O2-  O191  1  0.57317461  0.78346942  0.95578188  1
  O2-  O192  1  0.89487606  0.08394700  0.48096662  1
  O2-  O193  1  0.89180568  0.11185995  0.97104677  1
  O2-  O194  1  0.87145404  0.45021934  0.47313933  1
  O2-  O195  1  0.87224343  0.44192423  0.98544471  1
  O2-  O196  1  0.89175685  0.77187045  0.46438320  1
  O2-  O197  1  0.88777332  0.78103134  0.97535530  1
  O2-  O198  1  0.11842272  0.22415703  0.02742305  1
  O2-  O199  1  0.11883712  0.21889805  0.48894630  1
  O2-  O200  1  0.12511337  0.54813558  -0.00880600  1
  O2-  O201  1  0.09586963  0.56045959  0.48492936  1
  O2-  O202  1  0.09789925  0.88060796  0.02032023  1
  O2-  O203  1  0.10586153  0.88435982  0.53764752  1
  O2-  O204  1  0.44997364  0.22604683  0.04050269  1
  O2-  O205  1  0.45266850  0.23237732  0.53339369  1
  O2-  O206  1  0.45240762  0.56661929  0.03047148  1
  O2-  O207  1  0.45027342  0.56166926  0.52967593  1
  O2-  O208  1  0.45664334  0.89441313  0.01395746  1
  O2-  O209  1  0.48554992  0.90901401  0.54343139  1
  O2-  O210  1  0.77593738  0.22164731  0.03010022  1
  O2-  O211  1  0.75945708  0.24514023  0.53653926  1
  O2-  O212  1  0.77443977  0.57166184  0.03450681  1
  O2-  O213  1  0.76829022  0.55872970  0.53512670  1
  O2-  O214  1  0.80596448  0.89857859  0.02279870  1
  O2-  O215  1  0.79119742  0.88176509  0.53896938  1
