# generated using pymatgen
data_H2O
_symmetry_space_group_name_H-M   'P 1'
_cell_length_a   13.52200057
_cell_length_b   13.51081551
_cell_length_c   14.68850776
_cell_angle_alpha   90.05578119
_cell_angle_beta   89.94691454
_cell_angle_gamma   120.06028498
_symmetry_Int_Tables_number   1
_chemical_formula_structural   H2O
_chemical_formula_sum   'H144 O72'
_cell_volume   2322.55720069
_cell_formula_units_Z   72
loop_
 _symmetry_equiv_pos_site_id
 _symmetry_equiv_pos_as_xyz
  1  'x, y, z'
loop_
 _atom_type_symbol
 _atom_type_oxidation_number
  H+  1.0
  O2-  -2.0
loop_
 _atom_site_type_symbol
 _atom_site_label
 _atom_site_symmetry_multiplicity
 _atom_site_fract_x
 _atom_site_fract_y
 _atom_site_fract_z
 _atom_site_occupancy
  H+  H0  1  0.65646241  0.85221573  0.49978766  1
  H+  H1  1  0.50276240  0.10197269  0.69960073  1
  H+  H2  1  0.53655017  0.51077650  0.49698377  1
  H+  H3  1  0.17373271  0.73292708  1.02636173  1
  H+  H4  1  0.42963487  0.22764126  0.15826651  1
  H+  H5  1  0.49050172  0.20488663  0.49874965  1
  H+  H6  1  0.86869093  0.68667660  0.81036024  1
  H+  H7  1  0.63223674  0.17114582  0.25415791  1
  H+  H8  1  0.34643196  0.87056170  0.51781671  1
  H+  H9  1  0.26959047  0.49288854  1.06608723  1
  H+  H10  1  0.83562103  0.62732442  -0.00224415  1
  H+  H11  1  0.48864250  -0.01704605  0.25626347  1
  H+  H12  1  0.83221613  0.53633970  0.52794619  1
  H+  H13  1  0.54245537  0.07246409  0.48098834  1
  H+  H14  1  0.83922132  0.45476918  0.00595411  1
  H+  H15  1  0.52543824  0.48635594  0.27312290  1
  H+  H16  1  0.96421641  0.16946457  0.27223428  1
  H+  H17  1  0.47196733  0.30269145  0.25134508  1
  H+  H18  1  0.28925032  0.15865018  0.25787649  1
  H+  H19  1  0.44686334  0.21563933  0.63222908  1
  H+  H20  1  0.37834144  0.17003118  0.72764769  1
  H+  H21  1  0.16658808  0.09803100  0.38083674  1
  H+  H22  1  0.89652561  0.99847148  0.18182633  1
  H+  H23  1  0.99184450  0.82523627  0.95438620  1
  H+  H24  1  0.84208860  0.84376698  0.78775838  1
  H+  H25  1  0.67223330  0.45165927  0.97538799  1
  H+  H26  1  0.97156108  0.14218967  0.78708455  1
  H+  H27  1  0.56524624  0.69485950  0.22497188  1
  H+  H28  1  0.47486965  0.98381327  0.03442310  1
  H+  H29  1  0.54947688  0.59927717  -0.03036710  1
  H+  H30  1  0.46778885  0.80935571  0.75447476  1
  H+  H31  1  0.21742232  0.18277889  0.96673813  1
  H+  H32  1  0.50395586  0.49306330  0.73886573  1
  H+  H33  1  0.03954333  0.54183234  0.25800305  1
  H+  H34  1  0.84101607  0.70880183  0.25025718  1
  H+  H35  1  0.04167790  0.84080452  0.75241051  1
  H+  H36  1  0.45211590  0.81399069  0.99179625  1
  H+  H37  1  0.49217723  -0.01431398  0.73893391  1
  H+  H38  1  0.07805473  0.39558983  0.95328315  1
  H+  H39  1  0.15371275  0.53258097  0.25094517  1
  H+  H40  1  0.82407994  0.87528736  0.50153901  1
  H+  H41  1  0.81399563  0.20583147  0.25886745  1
  H+  H42  1  0.52221890  0.89506522  0.51771398  1
  H+  H43  1  0.17276696  0.66220126  0.51033636  1
  H+  H44  1  0.43453592  0.89777598  0.12455929  1
  H+  H45  1  0.87120525  0.83723493  0.25636220  1
  H+  H46  1  0.87794861  0.77213025  0.39892249  1
  H+  H47  1  0.83193413  -0.00133440  0.51139146  1
  H+  H48  1  0.79420336  0.26906015  1.02132836  1
  H+  H49  1  0.03653575  0.84832598  0.23739943  1
  H+  H50  1  0.16009842  0.86214418  0.24341867  1
  H+  H51  1  0.85825257  0.46326980  0.72231802  1
  H+  H52  1  0.98902071  0.51763483  0.50656380  1
  H+  H53  1  0.85958239  0.18522690  0.50991967  1
  H+  H54  1  0.81605263  0.64495079  0.52284589  1
  H+  H55  1  0.15923504  0.37310785  0.24895020  1
  H+  H56  1  0.71874226  0.51262993  0.75011118  1
  H+  H57  1  0.51613509  0.66350615  0.52158707  1
  H+  H58  1  1.03239778  0.20494669  0.53741385  1
  H+  H59  1  0.80342929  0.88852770  0.13437811  1
  H+  H60  1  0.15469450  0.87814627  0.51837684  1
  H+  H61  1  0.19596246  0.34315143  0.76598368  1
  H+  H62  1  0.07265994  0.20090933  0.15151792  1
  H+  H63  1  0.48443078  0.28663780  0.01276423  1
  H+  H64  1  -0.02318043  0.12607774  0.01714975  1
  H+  H65  1  0.92811760  0.42421300  0.96144389  1
  H+  H66  1  0.18626694  0.86319684  0.00128816  1
  H+  H67  1  0.72654639  0.83861568  0.75827470  1
  H+  H68  1  0.51008461  0.69361466  0.97971668  1
  H+  H69  1  0.04627023  0.05695606  0.42363985  1
  H+  H70  1  0.16113306  0.17288863  0.75610692  1
  H+  H71  1  0.16620772  0.77610989  0.72144824  1
  H+  H72  1  0.50117454  0.14397219  1.01706521  1
  H+  H73  1  0.30744056  0.85523536  1.02205241  1
  H+  H74  1  0.77478638  0.22776412  0.16195231  1
  H+  H75  1  0.86029433  0.08026228  0.91073908  1
  H+  H76  1  0.17165501  0.36997809  0.49496455  1
  H+  H77  1  0.67659988  0.62114892  0.18920075  1
  H+  H78  1  0.64240629  0.33409719  0.93431022  1
  H+  H79  1  0.84382360  0.05950510  0.29543528  1
  H+  H80  1  0.17467224  0.03618426  0.24801756  1
  H+  H81  1  0.24450068  0.80044093  0.58366829  1
  H+  H82  1  0.61786585  0.13793859  1.01705932  1
  H+  H83  1  0.35277365  0.17913206  0.01282616  1
  H+  H84  1  0.16848019  0.48496701  0.48672787  1
  H+  H85  1  0.53801237  0.67683010  0.75503118  1
  H+  H86  1  0.53308876  0.33995477  0.74033726  1
  H+  H87  1  0.38624837  0.49628855  0.73991934  1
  H+  H88  1  0.66477070  0.86939311  0.26782616  1
  H+  H89  1  0.85452363  0.50120569  0.26600379  1
  H+  H90  1  0.14036018  0.19227670  0.52551576  1
  H+  H91  1  0.95422987  0.81374327  0.48860291  1
  H+  H92  1  0.81087728  0.98419740  -0.01078279  1
  H+  H93  1  0.14272745  0.60047523  0.60320217  1
  H+  H94  1  0.16193133  0.00813575  0.99825250  1
  H+  H95  1  0.12965926  0.18061707  0.23949242  1
  H+  H96  1  0.19583741  1.02806253  0.76586283  1
  H+  H97  1  0.80428907  0.16521525  0.77404383  1
  H+  H98  1  0.82383058  0.81601784  0.99043029  1
  H+  H99  1  0.48451292  0.31746278  0.51042583  1
  H+  H100  1  0.13905171  0.47769550  0.75416047  1
  H+  H101  1  0.09895688  0.56493241  0.02553849  1
  H+  H102  1  0.86033116  0.01738535  0.78169638  1
  H+  H103  1  0.33140684  0.52638331  0.05236441  1
  H+  H104  1  0.50732831  0.16161581  0.25446250  1
  H+  H105  1  0.78655903  0.14546052  0.02722718  1
  H+  H106  1  0.83426791  0.33106745  0.51908587  1
  H+  H107  1  0.08715302  0.11313137  1.02942328  1
  H+  H108  1  0.09999066  0.88554703  0.65441113  1
  H+  H109  1  0.68629048  0.52629601  0.23590101  1
  H+  H110  1  0.37438281  0.86073399  0.26828514  1
  H+  H111  1  0.34195246  0.79452806  0.75424071  1
  H+  H112  1  0.50850697  0.97592307  0.59511343  1
  H+  H113  1  0.56219532  0.44889279  0.36473203  1
  H+  H114  1  0.56933977  0.14565693  0.39052162  1
  H+  H115  1  0.11416490  0.21692518  0.67318494  1
  H+  H116  1  0.71563547  0.21744069  0.50044544  1
  H+  H117  1  0.10657721  0.91463361  0.08529082  1
  H+  H118  1  0.20157925  0.44334010  0.34023336  1
  H+  H119  1  0.53690285  0.84532116  0.26758824  1
  H+  H120  1  0.80301437  0.57951031  0.67084432  1
  H+  H121  1  0.64622428  0.49427775  0.50221369  1
  H+  H122  1  0.90766136  0.15299849  0.42334481  1
  H+  H123  1  0.56098000  0.76034429  0.83787703  1
  H+  H124  1  0.83964925  0.33615846  0.72279471  1
  H+  H125  1  0.19067529  0.71309174  0.28851180  1
  H+  H126  1  0.57216711  0.80575500  0.41492403  1
  H+  H127  1  0.25225922  0.43769883  0.84421806  1
  H+  H128  1  0.24013575  0.11091480  0.85388267  1
  H+  H129  1  0.08130264  0.48270493  0.87538609  1
  H+  H130  1  0.11347446  0.96876782  0.50453516  1
  H+  H131  1  0.43094070  0.78431949  0.88707251  1
  H+  H132  1  0.54828452  0.63799203  0.12572967  1
  H+  H133  1  0.47752177  0.57341831  0.60328443  1
  H+  H134  1  0.69511025  0.77769146  0.01459757  1
  H+  H135  1  0.68712798  0.14981173  0.73807385  1
  H+  H136  1  0.91366660  0.47973431  0.41581530  1
  H+  H137  1  1.01024386  0.46779955  0.74100183  1
  H+  H138  1  0.23193382  0.79866136  0.37394232  1
  H+  H139  1  0.85076296  0.38210152  0.26381884  1
  H+  H140  1  0.77072062  0.57144177  0.09228276  1
  H+  H141  1  0.11635986  0.61275032  0.12946583  1
  H+  H142  1  0.15877890  0.65352443  0.73810596  1
  H+  H143  1  0.57770135  0.40787958  0.83370903  1
  O2-  O144  1  0.08050199  0.21251353  0.21949084  1
  O2-  O145  1  0.11866155  0.21459985  0.74151896  1
  O2-  O146  1  0.12118974  0.58614044  0.23936767  1
  O2-  O147  1  0.09294770  0.51387454  0.76930490  1
  O2-  O148  1  0.11627527  0.89414865  0.21365756  1
  O2-  O149  1  0.11514162  0.87572353  0.71942010  1
  O2-  O150  1  0.42720703  0.22306172  0.22692822  1
  O2-  O151  1  0.45562086  0.20359842  0.70007433  1
  O2-  O152  1  0.56236483  0.62957181  0.19073217  1
  O2-  O153  1  0.46833835  0.54040024  0.72283084  1
  O2-  O154  1  0.45212918  0.89951949  0.24010472  1
  O2-  O155  1  0.41947278  0.83722024  0.78223892  1
  O2-  O156  1  0.77672656  0.24503193  0.22916843  1
  O2-  O157  1  0.76039635  0.20516295  0.76669603  1
  O2-  O158  1  0.73494275  0.59469854  0.19715566  1
  O2-  O159  1  0.80156243  0.56726719  0.73840305  1
  O2-  O160  1  0.82804875  0.92575352  0.19575734  1
  O2-  O161  1  0.81099935  0.88528523  0.75466048  1
  O2-  O162  1  0.20521179  0.11512232  0.27302589  1
  O2-  O163  1  0.23745849  0.10944480  0.78418511  1
  O2-  O164  1  0.20260316  0.45189527  0.27233304  1
  O2-  O165  1  0.24219540  0.42977611  0.77845641  1
  O2-  O166  1  0.23325928  0.79645381  0.30737776  1
  O2-  O167  1  0.20362870  0.73018820  0.70744970  1
  O2-  O168  1  0.55156489  0.12457828  0.27595399  1
  O2-  O169  1  0.53544188  0.04994691  0.69622526  1
  O2-  O170  1  0.55635463  0.43891809  0.29552155  1
  O2-  O171  1  0.57232639  0.41942012  0.76737978  1
  O2-  O172  1  0.58692183  0.81321404  0.28613459  1
  O2-  O173  1  0.57521405  0.76007925  0.77260187  1
  O2-  O174  1  0.88797537  0.14196655  0.30475165  1
  O2-  O175  1  0.88984768  0.09834749  0.80471755  1
  O2-  O176  1  0.89440263  0.46278610  0.28816735  1
  O2-  O177  1  0.89372153  0.41778971  0.70416583  1
  O2-  O178  1  0.89652838  0.78415458  0.27884382  1
  O2-  O179  1  0.91646079  0.76884488  0.83305355  1
  O2-  O180  1  0.12440847  0.07955898  0.44096885  1
  O2-  O181  1  0.23602714  0.12167628  0.96439651  1
  O2-  O182  1  0.19160078  0.43593204  0.45464151  1
  O2-  O183  1  0.07200367  0.46350617  0.94320024  1
  O2-  O184  1  0.25945178  0.82329177  0.51908040  1
  O2-  O185  1  0.22568249  0.81525867  0.99360011  1
  O2-  O186  1  0.57672374  0.15266468  0.45817254  1
  O2-  O187  1  0.53781188  0.10051177  0.99396439  1
  O2-  O188  1  0.56940452  0.46167770  0.47362287  1
  O2-  O189  1  0.60919263  0.38304403  0.94399727  1
  O2-  O190  1  0.57184502  0.80988679  0.48203268  1
  O2-  O191  1  0.45241995  0.76047125  0.94460306  1
  O2-  O192  1  0.90540880  0.14650259  0.49068008  1
  O2-  O193  1  0.84617418  0.06758426  0.97913674  1
  O2-  O194  1  0.90932694  0.48031413  0.48285470  1
  O2-  O195  1  0.84620356  0.39334036  0.97565911  1
  O2-  O196  1  0.87400576  0.77581484  0.46644985  1
  O2-  O197  1  0.91249694  0.76517391  0.93351454  1
  O2-  O198  1  0.05696287  0.16395858  0.04284323  1
  O2-  O199  1  0.11347241  0.23680741  0.56020299  1
  O2-  O200  1  0.10347033  0.62722737  0.06437968  1
  O2-  O201  1  0.12973134  0.58529664  0.53783360  1
  O2-  O202  1  0.11170603  0.91937872  0.01801648  1
  O2-  O203  1  0.09407715  0.89522387  0.53552034  1
  O2-  O204  1  0.43089411  0.21675354  0.04655776  1
  O2-  O205  1  0.44334494  0.23483033  0.52653305  1
  O2-  O206  1  0.55929144  0.66320787  0.00695007  1
  O2-  O207  1  0.48213748  0.58120598  0.53624745  1
  O2-  O208  1  0.42547086  0.89969815  0.05706539  1
  O2-  O209  1  0.48509180  0.94196298  0.53252442  1
  O2-  O210  1  0.75576994  0.19248823  0.05368864  1
  O2-  O211  1  0.79170133  0.24759148  0.52973925  1
  O2-  O212  1  0.78883717  0.55447693  0.03003731  1
  O2-  O213  1  0.78601907  0.56927720  0.55336831  1
  O2-  O214  1  0.77575884  0.84021668  0.02383797  1
  O2-  O215  1  0.78575314  0.91573494  0.52551335  1
