# generated using pymatgen
data_H2O
_symmetry_space_group_name_H-M   'P 1'
_cell_length_a   13.53641390
_cell_length_b   13.52559943
_cell_length_c   14.70235199
_cell_angle_alpha   89.98438459
_cell_angle_beta   89.96061820
_cell_angle_gamma   120.00120548
_symmetry_Int_Tables_number   1
_chemical_formula_structural   H2O
_chemical_formula_sum   'H144 O72'
_cell_volume   2331.16012725
_cell_formula_units_Z   72
loop_
 _symmetry_equiv_pos_site_id
 _symmetry_equiv_pos_as_xyz
  1  'x, y, z'
loop_
 _atom_type_symbol
 _atom_type_oxidation_number
  H+  1.0
  O2-  -2.0
loop_
 _atom_site_type_symbol
 _atom_site_label
 _atom_site_symmetry_multiplicity
 _atom_site_fract_x
 _atom_site_fract_y
 _atom_site_fract_z
 _atom_site_occupancy
  H+  H0  1  1.03942923  0.87219523  0.25088735  1
  H+  H1  1  0.12699801  0.68683880  0.45815982  1
  H+  H2  1  0.24721796  0.12566620  0.36131586  1
  H+  H3  1  0.52081357  0.97826059  0.48992469  1
  H+  H4  1  0.19186341  1.05732438  0.73651737  1
  H+  H5  1  0.69350734  0.48962122  0.76124916  1
  H+  H6  1  0.49366893  0.64882275  1.00344497  1
  H+  H7  1  0.15362664  0.52151193  0.24059455  1
  H+  H8  1  0.44610635  0.52282588  0.74872781  1
  H+  H9  1  0.81004939  0.39193262  1.09871168  1
  H+  H10  1  0.79050120  0.49023324  0.51956398  1
  H+  H11  1  0.82328184  0.85306820  1.02690719  1
  H+  H12  1  0.81412062  0.65497714  0.25292493  1
  H+  H13  1  0.63513484  0.16003236  0.22919426  1
  H+  H14  1  0.83440461  0.13396902  1.02174043  1
  H+  H15  1  0.38620002  0.85862628  0.72438996  1
  H+  H16  1  0.51618094  0.43162691  0.77384548  1
  H+  H17  1  0.65026479  0.83580150  0.01548682  1
  H+  H18  1  0.51099521  0.34781572  0.48207180  1
  H+  H19  1  0.82422113  0.97248316  0.02775847  1
  H+  H20  1  -0.01832366  0.83370102  0.49302070  1
  H+  H21  1  0.84085009  0.69714977  1.00757218  1
  H+  H22  1  0.12726017  0.61941111  0.69947396  1
  H+  H23  1  0.86366536  0.71062528  0.50312017  1
  H+  H24  1  0.52163035  0.13711181  0.75112322  1
  H+  H25  1  0.15777291  0.30985619  0.24626915  1
  H+  H26  1  0.27830789  0.49189028  0.74514296  1
  H+  H27  1  0.32567530  0.83402872  0.25118247  1
  H+  H28  1  0.05081588  0.52033232  0.01032287  1
  H+  H29  1  0.30390757  0.14412604  1.02907024  1
  H+  H30  1  0.80876191  0.61181028  0.75706241  1
  H+  H31  1  0.79335691  0.52731501  0.03831570  1
  H+  H32  1  0.47761686  0.30866727  1.01460306  1
  H+  H33  1  0.38061728  0.17760478  0.71518668  1
  H+  H34  1  0.20601470  0.16951328  0.27254993  1
  H+  H35  1  0.51973226  0.36849763  0.25636529  1
  H+  H36  1  0.76385609  0.57839038  0.12370963  1
  H+  H37  1  0.49644569  0.50868963  0.50492399  1
  H+  H38  1  0.53288885  0.69912578  0.49720399  1
  H+  H39  1  0.52073148  0.16098455  0.25549015  1
  H+  H40  1  0.68753531  0.19199665  0.48622604  1
  H+  H41  1  1.02280604  0.83214422  1.01091818  1
  H+  H42  1  0.11977828  0.57389061  0.10398529  1
  H+  H43  1  0.84728509  0.16279360  0.48575323  1
  H+  H44  1  0.51603047  0.82248627  0.75151212  1
  H+  H45  1  0.13796025  0.28972813  1.01138337  1
  H+  H46  1  0.64352174  0.14727725  0.74994293  1
  H+  H47  1  0.14282518  0.17455968  0.02926410  1
  H+  H48  1  0.86369348  0.52003893  0.26471372  1
  H+  H49  1  0.96564147  0.16174955  0.75363249  1
  H+  H50  1  0.42971272  0.90502161  0.14312309  1
  H+  H51  1  0.44659764  0.56441884  0.08759801  1
  H+  H52  1  0.04052401  0.53584884  0.24578297  1
  H+  H53  1  0.48517280  0.19380403  0.00839761  1
  H+  H54  1  0.35931129  0.16341343  0.49056763  1
  H+  H55  1  0.17257834  -0.00587987  0.48875246  1
  H+  H56  1  0.84674691  0.82488973  0.27506767  1
  H+  H57  1  0.37338291  0.19308923  0.25091054  1
  H+  H58  1  0.46739591  0.64467143  0.72954417  1
  H+  H59  1  0.15948069  0.87581903  0.72967574  1
  H+  H60  1  0.16288330  0.36927993  0.74406990  1
  H+  H61  1  0.81809370  0.97712999  0.75044729  1
  H+  H62  1  0.63999842  0.80643413  0.26342653  1
  H+  H63  1  0.18015843  0.70167581  0.99096812  1
  H+  H64  1  0.13200221  0.50469060  0.71155445  1
  H+  H65  1  0.47139390  -0.02094735  0.99633625  1
  H+  H66  1  0.50610849  0.97661706  0.73142001  1
  H+  H67  1  0.48046490  0.86603748  0.00697844  1
  H+  H68  1  0.83754432  0.34035214  0.72387210  1
  H+  H69  1  0.96359773  0.47163097  0.72101408  1
  H+  H70  1  0.06075984  0.47908938  0.45544639  1
  H+  H71  1  0.76968813  0.22412813  0.62543313  1
  H+  H72  1  1.01387004  0.37646348  0.94719072  1
  H+  H73  1  0.47866226  0.98556764  0.23201457  1
  H+  H74  1  0.84730962  0.82249618  0.75392886  1
  H+  H75  1  0.23163223  0.77069536  0.84618427  1
  H+  H76  1  0.47849755  0.50889188  0.22787478  1
  H+  H77  1  0.85522789  0.44913953  0.07936469  1
  H+  H78  1  0.81722484  0.18284188  0.71333870  1
  H+  H79  1  0.27386244  0.69869461  0.79754618  1
  H+  H80  1  0.04129240  0.87243988  0.73580750  1
  H+  H81  1  0.84823328  1.04522160  0.49811500  1
  H+  H82  1  0.67397964  0.06614511  0.11341880  1
  H+  H83  1  0.30778773  0.49237324  0.24626259  1
  H+  H84  1  0.82967748  0.86052422  0.51969226  1
  H+  H85  1  0.17903921  0.48193085  0.98710724  1
  H+  H86  1  0.95888315  0.14849415  1.00931257  1
  H+  H87  1  0.88491008  0.13074295  0.84192362  1
  H+  H88  1  0.69655519  0.52948028  0.24934778  1
  H+  H89  1  0.14712861  -0.05142873  1.04310307  1
  H+  H90  1  0.03450797  0.19465120  0.50545433  1
  H+  H91  1  0.15756062  0.30830137  0.50408091  1
  H+  H92  1  0.70032311  0.85577955  0.75071851  1
  H+  H93  1  0.33112751  0.48728714  0.48281968  1
  H+  H94  1  0.82720125  -0.02407427  0.25777524  1
  H+  H95  1  0.62400605  0.49408338  1.00427320  1
  H+  H96  1  0.50314089  0.27930625  0.73827096  1
  H+  H97  1  0.19954271  0.69677465  0.25319244  1
  H+  H98  1  0.14616696  0.20148068  0.72487191  1
  H+  H99  1  0.16466173  0.81837328  0.46778795  1
  H+  H100  1  0.22828125  0.50798624  0.48802215  1
  H+  H101  1  0.48621924  0.62965241  0.23118128  1
  H+  H102  1  0.88501861  0.76012615  0.68685197  1
  H+  H103  1  0.62728152  0.47007201  0.49001006  1
  H+  H104  1  0.51468157  0.13844853  0.46892530  1
  H+  H105  1  0.88209819  0.40009795  0.48680335  1
  H+  H106  1  0.20886195  0.15124936  0.49005918  1
  H+  H107  1  0.52864876  0.84766173  0.50089325  1
  H+  H108  1  0.15377586  0.83166404  0.99874373  1
  H+  H109  1  0.10050260  0.23599973  0.63863531  1
  H+  H110  1  0.21583963  0.08264047  0.95123761  1
  H+  H111  1  0.78398330  0.89715259  0.60716539  1
  H+  H112  1  0.56655094  0.10816134  0.38039386  1
  H+  H113  1  0.88634561  0.78042801  0.36114910  1
  H+  H114  1  0.48302295  0.90366979  0.58845245  1
  H+  H115  1  0.55782232  0.42434564  0.87352821  1
  H+  H116  1  0.78683230  0.89413537  0.17081499  1
  H+  H117  1  0.65559070  0.81971549  0.49876181  1
  H+  H118  1  0.22701820  0.77873332  0.34701702  1
  H+  H119  1  0.56634167  0.12176926  0.89887050  1
  H+  H120  1  0.89618500  0.11508169  0.34936958  1
  H+  H121  1  0.15744777  -0.01389894  0.25143792  1
  H+  H122  1  0.55062537  0.44517226  0.34530114  1
  H+  H123  1  0.88210341  0.77057407  0.91522886  1
  H+  H124  1  0.52859288  0.75946621  0.84050705  1
  H+  H125  1  0.44971127  0.22966290  0.15836421  1
  H+  H126  1  0.12521154  0.90732363  0.57690009  1
  H+  H127  1  0.45254342  0.55211189  0.59117400  1
  H+  H128  1  0.89681937  0.34205142  0.99400147  1
  H+  H129  1  0.05824286  0.51620492  0.55820967  1
  H+  H130  1  0.23878020  0.45719014  0.34009869  1
  H+  H131  1  0.45752068  0.20640163  0.57289117  1
  H+  H132  1  0.76532676  0.54372791  0.60472289  1
  H+  H133  1  0.24847113  0.15516048  0.81104072  1
  H+  H134  1  0.55597133  0.75559858  0.34593185  1
  H+  H135  1  0.62292602  0.87246944  0.92594938  1
  H+  H136  1  0.61875543  0.14108018  1.00125938  1
  H+  H137  1  0.11598905  0.22524876  0.16212201  1
  H+  H138  1  0.18817975  0.43430029  0.88976255  1
  H+  H139  1  0.86252296  0.40477255  0.27780356  1
  H+  H140  1  0.83879373  0.46840032  0.74212186  1
  H+  H141  1  0.29779474  0.82527251  0.98563527  1
  H+  H142  1  -0.02183125  0.14834262  0.26434117  1
  H+  H143  1  0.50730182  0.49494221  0.98796792  1
  O2-  O144  1  0.12190952  0.22764787  0.22951681  1
  O2-  O145  1  0.09879439  0.23584542  0.70838130  1
  O2-  O146  1  0.11998420  0.56899191  0.21947112  1
  O2-  O147  1  0.08790127  0.53867163  0.68102452  1
  O2-  O148  1  0.11156213  0.91425860  0.21734205  1
  O2-  O149  1  0.12038219  0.91685835  0.71160078  1
  O2-  O150  1  0.45531154  0.23327554  0.22560745  1
  O2-  O151  1  0.46304333  0.20657380  0.70415302  1
  O2-  O152  1  0.44027735  0.55043591  0.20375662  1
  O2-  O153  1  0.42080178  0.56293475  0.70854536  1
  O2-  O154  1  0.43147554  0.90434648  0.21035299  1
  O2-  O155  1  0.46656891  0.89683262  0.70325734  1
  O2-  O156  1  0.73754088  0.22218839  0.15431194  1
  O2-  O157  1  0.77535169  0.22313375  0.69418373  1
  O2-  O158  1  0.77633741  0.57495065  0.22469604  1
  O2-  O159  1  0.77080535  0.53397866  0.73138497  1
  O2-  O160  1  0.78301196  0.89209452  0.23814458  1
  O2-  O161  1  0.78092592  0.89538921  0.73019415  1
  O2-  O162  1  0.25104113  0.13334261  0.29138362  1
  O2-  O163  1  0.23819605  0.14226605  0.74570765  1
  O2-  O164  1  0.22848982  0.45599564  0.27334808  1
  O2-  O165  1  0.19755234  0.45105942  0.76605982  1
  O2-  O166  1  0.24163211  0.77804388  0.27790260  1
  O2-  O167  1  0.24868975  0.75331230  0.78342893  1
  O2-  O168  1  0.56326558  0.11926773  0.26910547  1
  O2-  O169  1  0.56599272  0.10201468  0.77719790  1
  O2-  O170  1  0.55600051  0.45040305  0.27774636  1
  O2-  O171  1  0.56485202  0.40878515  0.80509451  1
  O2-  O172  1  0.55828134  0.75429019  0.27939326  1
  O2-  O173  1  0.54684451  0.77247018  0.77540814  1
  O2-  O174  1  0.89652646  0.10613260  0.28276724  1
  O2-  O175  1  0.88385429  0.12170571  0.77504358  1
  O2-  O176  1  0.90946262  0.48652742  0.28899683  1
  O2-  O177  1  0.88312470  0.42571878  0.74776336  1
  O2-  O178  1  0.88313728  0.77837979  0.29375811  1
  O2-  O179  1  0.88897949  0.77775430  0.75183232  1
  O2-  O180  1  0.24430621  0.10900375  0.46592895  1
  O2-  O181  1  0.21898194  0.09284417  1.01692099  1
  O2-  O182  1  0.24884937  0.45392570  0.46318475  1
  O2-  O183  1  0.16507086  0.41251901  0.95386597  1
  O2-  O184  1  0.19052070  0.76414661  0.44654481  1
  O2-  O185  1  0.21648915  0.78147327  0.96198890  1
  O2-  O186  1  0.56322146  0.10347778  0.44953276  1
  O2-  O187  1  0.54815294  0.11841425  0.96474294  1
  O2-  O188  1  0.54806842  0.43201918  0.46630159  1
  O2-  O189  1  0.54833108  0.45025261  0.97340065  1
  O2-  O190  1  0.57344391  0.78115979  0.47689327  1
  O2-  O191  1  0.58233239  0.81905961  0.97541094  1
  O2-  O192  1  0.89140578  0.12422848  0.47365492  1
  O2-  O193  1  0.87887880  0.10820490  0.98501044  1
  O2-  O194  1  0.79708880  0.35800495  0.48960966  1
  O2-  O195  1  0.95234183  0.39573936  0.95066426  1
  O2-  O196  1  0.89551827  0.79062693  0.48340575  1
  O2-  O197  1  0.89123785  0.77733887  0.98125668  1
  O2-  O198  1  0.09958504  0.21408757  0.04242541  1
  O2-  O199  1  0.11287418  0.23166719  0.53192806  1
  O2-  O200  1  0.12599296  0.57931017  0.03579404  1
  O2-  O201  1  0.02878030  0.51306643  0.49585338  1
  O2-  O202  1  0.10522181  0.86389600  0.03108424  1
  O2-  O203  1  0.11868070  0.90477159  0.51036800  1
  O2-  O204  1  0.44198694  0.22808923  0.03637128  1
  O2-  O205  1  0.45129043  0.20727067  0.50625263  1
  O2-  O206  1  0.45074756  0.56773968  0.01931027  1
  O2-  O207  1  0.46189751  0.55732933  0.52424434  1
  O2-  O208  1  0.43017287  0.89820978  0.01966794  1
  O2-  O209  1  0.48983246  0.89949511  0.52052475  1
  O2-  O210  1  0.71310406  0.13861439  0.07991892  1
  O2-  O211  1  0.76769103  0.24035513  0.51487265  1
  O2-  O212  1  0.75954147  0.57475054  0.05230425  1
  O2-  O213  1  0.77120424  0.54886696  0.53774541  1
  O2-  O214  1  0.78305928  0.89169038  0.05110060  1
  O2-  O215  1  0.78425278  0.89739603  0.53957223  1
