# generated using pymatgen
data_H2O
_symmetry_space_group_name_H-M   'P 1'
_cell_length_a   13.50099449
_cell_length_b   13.50471731
_cell_length_c   14.68725807
_cell_angle_alpha   90.01907480
_cell_angle_beta   90.00542161
_cell_angle_gamma   119.98679527
_symmetry_Int_Tables_number   1
_chemical_formula_structural   H2O
_chemical_formula_sum   'H144 O72'
_cell_volume   2319.42504879
_cell_formula_units_Z   72
loop_
 _symmetry_equiv_pos_site_id
 _symmetry_equiv_pos_as_xyz
  1  'x, y, z'
loop_
 _atom_type_symbol
 _atom_type_oxidation_number
  H+  1.0
  O2-  -2.0
loop_
 _atom_site_type_symbol
 _atom_site_label
 _atom_site_symmetry_multiplicity
 _atom_site_fract_x
 _atom_site_fract_y
 _atom_site_fract_z
 _atom_site_occupancy
  H+  H0  1  0.13494191  0.29337775  0.23189166  1
  H+  H1  1  0.02894302  0.53535325  0.01224490  1
  H+  H2  1  0.48518814  0.31503893  0.23724098  1
  H+  H3  1  0.95715649  0.14490518  0.26480329  1
  H+  H4  1  0.15139263  0.54149011  0.00611409  1
  H+  H5  1  0.83100874  0.31587504  1.00956221  1
  H+  H6  1  0.49339783  0.69388029  0.49698759  1
  H+  H7  1  0.72977849  0.23215111  0.52039321  1
  H+  H8  1  0.49002332  0.51979548  0.23964011  1
  H+  H9  1  0.56923883  0.33354544  0.53988723  1
  H+  H10  1  0.51945254  0.01773778  0.24234807  1
  H+  H11  1  0.29803429  0.15975287  0.26906099  1
  H+  H12  1  0.71703799  0.51355865  1.00366232  1
  H+  H13  1  0.14260325  0.18959169  0.74076828  1
  H+  H14  1  0.91795641  0.18481166  0.85665571  1
  H+  H15  1  0.28382937  0.82241762  0.48376076  1
  H+  H16  1  0.85020289  0.37258257  0.24136997  1
  H+  H17  1  0.84912471  0.49959963  -0.00070701  1
  H+  H18  1  0.16337595  0.85446699  0.74698177  1
  H+  H19  1  0.87271647  0.70154047  0.76856853  1
  H+  H20  1  0.52262011  0.36167012  0.75905925  1
  H+  H21  1  0.31481754  0.68869788  0.18170658  1
  H+  H22  1  0.00695637  0.48411013  0.45407319  1
  H+  H23  1  0.53144351  0.13253838  0.52115260  1
  H+  H24  1  0.81258419  -0.02941237  0.94049497  1
  H+  H25  1  0.69300190  0.12856515  0.20272724  1
  H+  H26  1  0.80704912  0.85060814  0.95179249  1
  H+  H27  1  0.11538384  0.60951897  0.45700366  1
  H+  H28  1  0.13904483  0.15082692  0.00731175  1
  H+  H29  1  0.18119582  0.52346365  0.76854821  1
  H+  H30  1  0.48627087  0.63617822  0.24667039  1
  H+  H31  1  0.49287975  0.53679933  0.49682171  1
  H+  H32  1  0.80774801  1.12734490  0.72279943  1
  H+  H33  1  -0.03550583  0.49076864  0.24519192  1
  H+  H34  1  0.14644240  0.51821845  0.23619222  1
  H+  H35  1  0.45015783  0.22329709  0.15804872  1
  H+  H36  1  0.81824428  0.97069325  0.23046058  1
  H+  H37  1  0.10936421  -0.05463424  0.51710856  1
  H+  H38  1  0.80292914  0.48246813  0.52178330  1
  H+  H39  1  0.47814138  0.78943406  0.24946110  1
  H+  H40  1  0.58758557  0.79322464  0.81670318  1
  H+  H41  1  0.52758350  0.04686858  0.98337392  1
  H+  H42  1  0.13865583  0.83574697  0.51171736  1
  H+  H43  1  0.50387724  1.00151321  0.19314475  1
  H+  H44  1  0.14994683  0.58205594  0.68896751  1
  H+  H45  1  0.83625192  0.69353126  0.23298113  1
  H+  H46  1  0.67136265  0.23093665  0.29628308  1
  H+  H47  1  0.50839770  0.17110937  0.73766981  1
  H+  H48  1  0.04077014  0.84650937  0.74585112  1
  H+  H49  1  0.15434582  0.69710304  0.26220240  1
  H+  H50  1  0.45903410  0.83750774  0.51102665  1
  H+  H51  1  0.37314212  0.87954194  0.01007364  1
  H+  H52  1  0.29571264  0.15346721  0.74745163  1
  H+  H53  1  0.56333315  0.11068594  0.84774027  1
  H+  H54  1  0.42373466  0.47419408  0.03016762  1
  H+  H55  1  0.84675647  0.68460387  -0.00018463  1
  H+  H56  1  0.29460543  0.48007503  0.25516120  1
  H+  H57  1  0.50736068  1.01968938  0.76329541  1
  H+  H58  1  0.23115102  0.11052843  0.89916387  1
  H+  H59  1  0.56920132  0.52362876  0.97839262  1
  H+  H60  1  0.88290412  0.82610115  0.76585822  1
  H+  H61  1  0.49796858  0.80509484  0.75421493  1
  H+  H62  1  0.85887722  0.15603435  0.98484606  1
  H+  H63  1  0.29554588  0.51304486  0.99829080  1
  H+  H64  1  0.00050535  0.82744165  0.05430259  1
  H+  H65  1  0.18289325  1.03209111  0.75041080  1
  H+  H66  1  0.48484024  0.62461364  0.73441688  1
  H+  H67  1  0.54560244  0.21457485  0.28935655  1
  H+  H68  1  0.41350792  0.18993725  0.50408291  1
  H+  H69  1  0.19285641  0.70920159  0.79273114  1
  H+  H70  1  0.17474898  0.35256438  0.48398731  1
  H+  H71  1  0.70129658  0.89781429  0.53064747  1
  H+  H72  1  0.23864053  0.09531006  0.50295279  1
  H+  H73  1  0.00902984  0.17633756  0.49870749  1
  H+  H74  1  0.31489193  0.79032059  0.23061056  1
  H+  H75  1  0.71146668  0.51476851  0.75325069  1
  H+  H76  1  0.82473689  0.01043973  0.51728227  1
  H+  H77  1  -0.02742400  0.14315227  -0.01851061  1
  H+  H78  1  0.13329484  0.12023570  0.49753475  1
  H+  H79  1  0.17391699  0.46978670  0.46423210  1
  H+  H80  1  0.86882374  0.17503802  0.48288273  1
  H+  H81  1  0.67709372  0.54642581  0.47487185  1
  H+  H82  1  0.51888486  0.70860220  1.00748004  1
  H+  H83  1  0.49142164  0.30289495  1.01412957  1
  H+  H84  1  0.22564063  0.80167510  0.87214813  1
  H+  H85  1  0.51995999  0.47943896  0.75171813  1
  H+  H86  1  0.81475077  0.16265677  0.24536139  1
  H+  H87  1  0.84335407  0.81764228  0.22587727  1
  H+  H88  1  0.64388392  0.49768330  0.23259304  1
  H+  H89  1  0.47980433  0.96273319  0.51209685  1
  H+  H90  1  0.86302576  0.82128892  0.39193336  1
  H+  H91  1  0.49984484  0.19002971  0.00941067  1
  H+  H92  1  0.30712381  0.14470215  -0.01156727  1
  H+  H93  1  0.82954527  0.51418269  0.75529167  1
  H+  H94  1  0.81027750  0.51744968  0.22447570  1
  H+  H95  1  0.68052767  0.09494790  0.72229023  1
  H+  H96  1  0.35992082  0.50574202  0.50268551  1
  H+  H97  1  0.51901201  0.34204775  0.55109494  1
  H+  H98  1  0.88413376  0.39469703  0.71155414  1
  H+  H99  1  0.70824853  0.85715511  0.19597491  1
  H+  H100  1  0.98993852  0.82259400  0.20383051  1
  H+  H101  1  0.35665308  0.85013738  0.74960188  1
  H+  H102  1  0.19461981  0.37083916  0.76160853  1
  H+  H103  1  0.79861360  0.91912154  0.78539367  1
  H+  H104  1  0.17837746  0.83408750  0.01659604  1
  H+  H105  1  0.65083905  0.16418291  0.98187250  1
  H+  H106  1  -0.00473467  0.48498670  0.76434203  1
  H+  H107  1  0.13923413  0.17843198  0.24119117  1
  H+  H108  1  0.88986974  0.45001881  0.91137260  1
  H+  H109  1  0.80983516  0.92207670  0.67667934  1
  H+  H110  1  0.31752698  0.48582390  0.76136731  1
  H+  H111  1  0.91043458  0.77592393  0.91940980  1
  H+  H112  1  0.20213979  0.79243596  0.39514204  1
  H+  H113  1  0.09622459  0.22002856  0.59074723  1
  H+  H114  1  0.39981037  0.14788173  0.60465943  1
  H+  H115  1  0.60153228  0.87227499  0.29259755  1
  H+  H116  1  0.04416691  0.43748132  0.60461774  1
  H+  H117  1  0.56580146  0.43543662  0.46092375  1
  H+  H118  1  0.44459228  0.54385256  0.64588632  1
  H+  H119  1  0.22684949  0.46771452  0.90601118  1
  H+  H120  1  0.52822409  0.76974362  0.40763388  1
  H+  H121  1  0.63190690  0.82391036  0.97797875  1
  H+  H122  1  0.79181811  0.22732968  0.09272510  1
  H+  H123  1  0.20443519  0.10493929  0.34827729  1
  H+  H124  1  0.83060341  0.85525212  0.48549405  1
  H+  H125  1  0.58966145  0.15106904  0.42539657  1
  H+  H126  1  0.55839902  0.44692183  0.89336568  1
  H+  H127  1  0.54583212  0.26853099  0.66329490  1
  H+  H128  1  0.10732637  0.87565032  0.61564914  1
  H+  H129  1  0.77935363  0.55629431  0.12811908  1
  H+  H130  1  0.88520142  0.11415031  0.36084706  1
  H+  H131  1  0.17846652  0.71758652  1.00445020  1
  H+  H132  1  0.21353495  0.43441137  0.34090211  1
  H+  H133  1  0.58211978  0.48175434  0.32844555  1
  H+  H134  1  0.78694911  0.55046103  0.60406302  1
  H+  H135  1  0.09340356  0.19121288  0.09262691  1
  H+  H136  1  0.92969432  0.29470967  0.80273187  1
  H+  H137  1  0.48751127  0.87200693  0.01492211  1
  H+  H138  1  0.43575665  0.55396811  0.11302800  1
  H+  H139  1  0.15658873  0.81379757  0.24243267  1
  H+  H140  1  0.42629016  0.88364530  0.65408492  1
  H+  H141  1  0.02370438  0.48021430  0.60419879  1
  H+  H142  1  0.11163263  0.56558379  0.14618805  1
  H+  H143  1  0.04414468  0.22525925  0.74573431  1
  O2-  O144  1  0.09231564  0.21108374  0.21559672  1
  O2-  O145  1  0.11862489  0.24296992  0.71663385  1
  O2-  O146  1  0.11290654  0.56542525  0.21492027  1
  O2-  O147  1  0.14007144  0.56904531  0.75440255  1
  O2-  O148  1  0.07631234  0.85563709  0.17954116  1
  O2-  O149  1  0.12129627  0.89006479  0.71765035  1
  O2-  O150  1  0.44848631  0.23116160  0.22565634  1
  O2-  O151  1  0.48087860  0.22093619  0.70267911  1
  O2-  O152  1  0.44283603  0.55744561  0.22367978  1
  O2-  O153  1  0.44954067  0.54251269  0.71391332  1
  O2-  O154  1  0.36649404  0.76758531  0.19972830  1
  O2-  O155  1  0.43451047  0.88516643  0.72168516  1
  O2-  O156  1  0.76788986  0.19541784  0.21367211  1
  O2-  O157  1  0.73461148  0.07759347  0.69186597  1
  O2-  O158  1  0.76934808  0.55634151  0.19921620  1
  O2-  O159  1  0.79287022  0.55731734  0.73361223  1
  O2-  O160  1  0.79143320  0.90066782  0.19230201  1
  O2-  O161  1  0.84233857  0.91330247  0.73454204  1
  O2-  O162  1  0.21551595  0.12341997  0.28303935  1
  O2-  O163  1  0.21769186  0.11357956  0.77089071  1
  O2-  O164  1  0.21277803  0.44124986  0.27301616  1
  O2-  O165  1  0.23819448  0.45135649  0.78699637  1
  O2-  O166  1  0.19407647  0.77988830  0.28003937  1
  O2-  O167  1  0.22723657  0.79271413  0.80378911  1
  O2-  O168  1  0.60457418  0.21757027  0.33222983  1
  O2-  O169  1  0.55543181  0.10282684  0.77917329  1
  O2-  O170  1  0.56442927  0.46217083  0.26281076  1
  O2-  O171  1  0.56184018  0.44217903  0.77958148  1
  O2-  O172  1  0.54755020  0.79204623  0.28023177  1
  O2-  O173  1  0.52881956  0.75414289  0.77062824  1
  O2-  O174  1  0.87707084  0.10618210  0.28896229  1
  O2-  O175  1  0.93218470  0.22398877  0.79473367  1
  O2-  O176  1  0.88176074  0.45190347  0.26050288  1
  O2-  O177  1  0.91055282  0.43204135  0.77075303  1
  O2-  O178  1  0.88304501  0.77686162  0.24963645  1
  O2-  O179  1  0.91983259  0.78173121  0.79016772  1
  O2-  O180  1  0.16124892  0.06543420  0.47724728  1
  O2-  O181  1  0.22758881  0.10216707  0.96580219  1
  O2-  O182  1  0.22205097  0.43267940  0.45960453  1
  O2-  O183  1  0.21859889  0.48058060  0.97118736  1
  O2-  O184  1  0.20234076  0.78604209  0.46337071  1
  O2-  O185  1  0.21888522  0.80014923  0.98458462  1
  O2-  O186  1  0.58948730  0.12230523  0.48942009  1
  O2-  O187  1  0.57094027  0.12877690  0.95834757  1
  O2-  O188  1  0.60010938  0.51587052  0.44379973  1
  O2-  O189  1  0.55869486  0.44896076  0.96181630  1
  O2-  O190  1  0.52788752  0.77435335  0.47470230  1
  O2-  O191  1  0.55375880  0.79176506  1.00421526  1
  O2-  O192  1  0.89870739  0.12631162  0.46231354  1
  O2-  O193  1  0.89520510  0.11889806  0.95063882  1
  O2-  O194  1  0.84608250  0.38502352  0.48629559  1
  O2-  O195  1  0.89267019  0.45300652  0.97778129  1
  O2-  O196  1  0.85370667  0.80333420  0.45669651  1
  O2-  O197  1  0.88820506  0.77130248  0.98418341  1
  O2-  O198  1  0.09148433  0.18526495  0.02532972  1
  O2-  O199  1  0.09718583  0.21339284  0.52367184  1
  O2-  O200  1  0.11041178  0.58003804  0.03411096  1
  O2-  O201  1  0.08987479  0.52966098  0.44157661  1
  O2-  O202  1  0.08159905  0.86856401  0.08054230  1
  O2-  O203  1  0.09292179  0.86799246  0.54568779  1
  O2-  O204  1  0.45528000  0.22382266  0.03710130  1
  O2-  O205  1  0.37769893  0.12042290  0.54072098  1
  O2-  O206  1  0.43314965  0.54910360  0.04417636  1
  O2-  O207  1  0.43834195  0.55375858  0.52946923  1
  O2-  O208  1  0.45605357  0.92429847  0.02267330  1
  O2-  O209  1  0.42343771  0.88432803  0.53192690  1
  O2-  O210  1  0.79180233  0.23190089  0.02537909  1
  O2-  O211  1  0.80976220  0.28883494  0.54098573  1
  O2-  O212  1  0.79475581  0.55823740  0.02786764  1
  O2-  O213  1  0.77740220  0.53788023  0.53787519  1
  O2-  O214  1  0.76535215  0.88718544  -0.07391517  1
  O2-  O215  1  0.78121354  0.93228883  0.54965862  1
