# generated using pymatgen
data_H2O
_symmetry_space_group_name_H-M   'P 1'
_cell_length_a   13.50653712
_cell_length_b   13.50444864
_cell_length_c   14.68692245
_cell_angle_alpha   90.04997861
_cell_angle_beta   89.99340264
_cell_angle_gamma   119.92645888
_symmetry_Int_Tables_number   1
_chemical_formula_structural   H2O
_chemical_formula_sum   'H144 O72'
_cell_volume   2321.68592932
_cell_formula_units_Z   72
loop_
 _symmetry_equiv_pos_site_id
 _symmetry_equiv_pos_as_xyz
  1  'x, y, z'
loop_
 _atom_type_symbol
 _atom_type_oxidation_number
  H+  1.0
  O2-  -2.0
loop_
 _atom_site_type_symbol
 _atom_site_label
 _atom_site_symmetry_multiplicity
 _atom_site_fract_x
 _atom_site_fract_y
 _atom_site_fract_z
 _atom_site_occupancy
  H+  H0  1  0.59392178  0.81918080  0.27051621  1
  H+  H1  1  0.82115103  0.12852169  0.42152030  1
  H+  H2  1  0.84444747  0.48425550  0.26055698  1
  H+  H3  1  0.76470347  0.86393063  0.24066611  1
  H+  H4  1  0.46549788  0.12715013  0.28095431  1
  H+  H5  1  1.02267934  0.84593466  0.98718755  1
  H+  H6  1  0.84331192  0.30201479  0.25537088  1
  H+  H7  1  0.16955280  0.59150357  0.10686970  1
  H+  H8  1  0.83004909  0.86075892  0.00631549  1
  H+  H9  1  0.14769002  0.62732711  0.73856826  1
  H+  H10  1  0.96072501  0.52198492  0.31135048  1
  H+  H11  1  0.37095234  0.50747384  0.72934274  1
  H+  H12  1  0.47049933  0.29713589  -0.00179658  1
  H+  H13  1  0.06080589  0.51472707  0.21827838  1
  H+  H14  1  0.69128476  0.52717781  0.00623416  1
  H+  H15  1  0.84206647  0.17606449  0.74991996  1
  H+  H16  1  0.48090042  0.62968774  0.24980470  1
  H+  H17  1  0.92271455  0.77627673  0.33295835  1
  H+  H18  1  0.19606727  0.49434356  0.98680427  1
  H+  H19  1  0.81828936  0.96698247  0.73395987  1
  H+  H20  1  0.49521807  0.51541489  0.72474524  1
  H+  H21  1  0.53700375  0.06484865  0.74918457  1
  H+  H22  1  0.48368425  0.18918077  0.50426107  1
  H+  H23  1  0.07758470  0.54683765  0.03197205  1
  H+  H24  1  0.26901298  0.86005393  0.51365840  1
  H+  H25  1  0.84688697  0.71337560  0.98757029  1
  H+  H26  1  0.17937818  0.49160711  0.48221290  1
  H+  H27  1  0.52109608  0.79673833  0.75513728  1
  H+  H28  1  0.51063580  0.49256226  0.48343776  1
  H+  H29  1  0.69359053  0.15678238  0.43744734  1
  H+  H30  1  0.48838490  0.97527571  0.71464830  1
  H+  H31  1  0.82366439  0.97447328  0.01058254  1
  H+  H32  1  0.13859229  0.16870255  0.73500241  1
  H+  H33  1  0.88801869  0.81512102  0.24187750  1
  H+  H34  1  0.71821608  0.19082050  0.74523888  1
  H+  H35  1  0.27185211  0.80405694  0.74284665  1
  H+  H36  1  0.85656778  0.70434240  0.75384226  1
  H+  H37  1  0.96577221  0.48682920  0.49629688  1
  H+  H38  1  0.44931916  0.00112203  0.27236904  1
  H+  H39  1  0.35912038  0.18922230  0.24402034  1
  H+  H40  1  0.78662079  0.56596772  0.64079278  1
  H+  H41  1  0.15204969  0.17709782  0.00495552  1
  H+  H42  1  0.80580363  0.50394931  0.51792842  1
  H+  H43  1  0.87382456  0.16047314  0.25382071  1
  H+  H44  1  0.84840422  0.28786543  0.51218255  1
  H+  H45  1  0.15913075  0.51268941  0.72935290  1
  H+  H46  1  0.65864273  0.18106647  0.99286519  1
  H+  H47  1  0.16251478  0.31016578  0.23770560  1
  H+  H48  1  0.19817376  0.48860094  0.25522959  1
  H+  H49  1  0.47915011  0.84272149  0.71578961  1
  H+  H50  1  0.51812131  0.36768643  0.25930288  1
  H+  H51  1  -0.02368321  0.15374473  0.75122478  1
  H+  H52  1  0.31036644  0.47764220  0.25679333  1
  H+  H53  1  0.45217649  0.74427381  0.98421445  1
  H+  H54  1  0.29715696  0.13747165  0.48836897  1
  H+  H55  1  0.29504131  0.14380112  -0.02011782  1
  H+  H56  1  0.83054289  0.30642341  0.04553410  1
  H+  H57  1  0.97447939  0.15436016  0.98891418  1
  H+  H58  1  0.27807691  0.12344630  0.74770112  1
  H+  H59  1  0.54018086  0.07052334  0.97865409  1
  H+  H60  1  0.44927721  0.82895629  0.25505339  1
  H+  H61  1  0.50487847  0.70802773  0.49206754  1
  H+  H62  1  0.14996451  -0.02392994  0.98853311  1
  H+  H63  1  0.15526712  0.81135590  0.75307686  1
  H+  H64  1  0.18276000  0.14539602  0.26403810  1
  H+  H65  1  0.35692488  0.83322990  0.00520287  1
  H+  H66  1  0.13363089  0.65382629  0.51604875  1
  H+  H67  1  0.16347458  1.00429049  0.75352058  1
  H+  H68  1  0.17043914  0.96125607  0.24102531  1
  H+  H69  1  0.70031368  0.51179130  0.24139412  1
  H+  H70  1  0.74416820  0.18158176  0.29065961  1
  H+  H71  1  0.84415125  0.30912846  0.73592342  1
  H+  H72  1  0.50597588  0.64874500  -0.00048882  1
  H+  H73  1  0.89533943  0.49202951  1.10327151  1
  H+  H74  1  0.98541784  0.48314887  0.73766894  1
  H+  H75  1  0.27747638  0.79107100  0.28501720  1
  H+  H76  1  0.16683503  0.79648002  0.26909231  1
  H+  H77  1  0.70567728  0.84434918  0.73759102  1
  H+  H78  1  0.15432410  0.85210229  0.99093454  1
  H+  H79  1  0.49399861  0.51618210  0.24652330  1
  H+  H80  1  0.15402437  0.29692015  1.00657026  1
  H+  H81  1  0.52213883  0.47369312  0.96813546  1
  H+  H82  1  0.85641973  0.82322043  0.75319385  1
  H+  H83  1  0.03083991  0.84017767  0.73439761  1
  H+  H84  1  0.19561523  0.71582269  0.98845595  1
  H+  H85  1  0.15351896  0.17854823  0.51165268  1
  H+  H86  1  0.47926872  0.18744006  1.00735021  1
  H+  H87  1  0.00826347  0.17036110  0.24515117  1
  H+  H88  1  0.35819697  0.85252124  0.69706997  1
  H+  H89  1  0.69275242  0.51436237  0.51406467  1
  H+  H90  1  0.51788815  0.67569264  0.75308818  1
  H+  H91  1  0.66925742  0.51183453  0.74520314  1
  H+  H92  1  0.42586642  0.96896451  0.42376855  1
  H+  H93  1  0.88387042  1.03881432  0.24491366  1
  H+  H94  1  0.15579786  0.29843399  0.51146376  1
  H+  H95  1  0.42863991  0.27033658  0.76114550  1
  H+  H96  1  0.18664456  0.35695081  0.74322508  1
  H+  H97  1  0.49034995  0.19759887  0.74371067  1
  H+  H98  1  0.35895506  0.52289625  0.50080493  1
  H+  H99  1  0.82520087  0.62858434  0.23617394  1
  H+  H100  1  0.59162430  0.10073062  0.36107421  1
  H+  H101  1  0.83449317  0.52970050  0.72826396  1
  H+  H102  1  0.56104050  0.39636179  0.71978320  1
  H+  H103  1  0.77885930  0.88984090  0.58439138  1
  H+  H104  1  0.88975962  0.83320660  0.47014138  1
  H+  H105  1  0.49144567  0.90647403  0.03078102  1
  H+  H106  1  0.81333404  0.97728913  0.50455350  1
  H+  H107  1  0.16198824  0.64504337  0.25127202  1
  H+  H108  1  0.43760648  0.22473019  0.15502959  1
  H+  H109  1  0.00314888  0.82521669  0.47949134  1
  H+  H110  1  0.56024300  0.44904644  0.34822153  1
  H+  H111  1  0.18763906  0.01421718  0.49469232  1
  H+  H112  1  0.22030834  0.44528115  0.39869761  1
  H+  H113  1  0.44973972  0.87908705  0.47164444  1
  H+  H114  1  0.10915258  0.56227741  0.59083148  1
  H+  H115  1  0.88881550  0.49304592  0.99818151  1
  H+  H116  1  0.05595462  0.84415575  0.22746502  1
  H+  H117  1  0.62359968  0.82677215  0.48613090  1
  H+  H118  1  0.81691183  0.90444057  0.13960794  1
  H+  H119  1  0.89862095  0.11588246  0.84482368  1
  H+  H120  1  0.44192056  0.22346695  0.59303494  1
  H+  H121  1  0.21973728  0.10102467  0.35194130  1
  H+  H122  1  0.12318070  0.22717323  0.14702061  1
  H+  H123  1  0.44197963  0.55991872  0.58757917  1
  H+  H124  1  0.10525229  0.39586695  0.92978588  1
  H+  H125  1  0.58032348  0.14107616  0.84473163  1
  H+  H126  1  0.90317009  0.44746563  0.82370344  1
  H+  H127  1  0.87170447  0.42660526  0.41852755  1
  H+  H128  1  0.61870875  0.61516348  0.05674639  1
  H+  H129  1  0.75360040  0.57333614  0.10418785  1
  H+  H130  1  0.22069143  0.78399514  0.89267034  1
  H+  H131  1  0.77480081  0.20753759  0.11712845  1
  H+  H132  1  0.89182028  0.78275164  0.89118111  1
  H+  H133  1  0.22946219  0.43862721  0.83022793  1
  H+  H134  1  0.40293781  0.85221987  0.16292559  1
  H+  H135  1  0.50930928  0.71869707  0.89211507  1
  H+  H136  1  0.52928952  0.77195347  0.36489385  1
  H+  H137  1  0.21350598  0.10217100  0.88935171  1
  H+  H138  1  0.11979759  0.87464115  0.63607582  1
  H+  H139  1  0.50197346  0.57889680  0.11785022  1
  H+  H140  1  0.85651362  0.15541333  0.99062638  1
  H+  H141  1  0.10861131  0.21612933  0.64408497  1
  H+  H142  1  0.50883360  0.37283104  0.48577361  1
  H+  H143  1  0.56235118  0.43829803  0.87765333  1
  O2-  O144  1  0.11996889  0.22766519  0.21545024  1
  O2-  O145  1  0.10425719  0.21537065  0.71450899  1
  O2-  O146  1  0.14313394  0.56684207  0.21437609  1
  O2-  O147  1  0.11367867  0.54933626  0.71056482  1
  O2-  O148  1  0.13903251  0.88386653  0.21448330  1
  O2-  O149  1  0.11298899  0.87649070  0.71696388  1
  O2-  O150  1  0.44095525  0.22951978  0.22230922  1
  O2-  O151  1  0.43655080  0.22034327  0.71709344  1
  O2-  O152  1  0.45368623  0.55489666  0.21815206  1
  O2-  O153  1  0.45206323  0.55494138  0.70765861  1
  O2-  O154  1  0.40890165  0.86731638  0.22881359  1
  O2-  O155  1  0.44583918  0.89138647  0.68349487  1
  O2-  O156  1  0.80220730  0.22016552  0.23854651  1
  O2-  O157  1  0.79987675  0.22263668  0.72561995  1
  O2-  O158  1  0.77845945  0.54695085  0.21259062  1
  O2-  O159  1  0.79489281  0.57200284  0.71170813  1
  O2-  O160  1  0.83637602  0.91173462  0.20897769  1
  O2-  O161  1  0.78257014  0.88767108  0.71021429  1
  O2-  O162  1  0.22630259  0.10828589  0.28386204  1
  O2-  O163  1  0.20178729  0.08744931  0.77572879  1
  O2-  O164  1  0.22943109  0.43932951  0.27802165  1
  O2-  O165  1  0.23151962  0.43962100  0.76279539  1
  O2-  O166  1  0.19417750  0.74583201  0.29808010  1
  O2-  O167  1  0.20022852  0.76619416  0.77866104  1
  O2-  O168  1  0.46961658  0.06560195  0.31515068  1
  O2-  O169  1  0.58100791  0.14470319  0.77550702  1
  O2-  O170  1  0.56301286  0.44972259  0.27964661  1
  O2-  O171  1  0.58321412  0.46230252  0.75967963  1
  O2-  O172  1  0.51986458  0.76282095  0.29460051  1
  O2-  O173  1  0.55569397  0.75465546  0.78510106  1
  O2-  O174  1  0.92062349  0.12091558  0.26869817  1
  O2-  O175  1  0.89426572  0.11598233  0.77649844  1
  O2-  O176  1  0.89471075  0.45447874  0.28571002  1
  O2-  O177  1  0.90090906  0.44117015  0.75751565  1
  O2-  O178  1  0.91188448  0.76138077  0.26467032  1
  O2-  O179  1  0.89524747  0.78356387  0.78029003  1
  O2-  O180  1  0.21664864  0.09177487  0.46816813  1
  O2-  O181  1  0.21348522  0.10251909  0.95822770  1
  O2-  O182  1  0.22041027  0.45016430  0.46641506  1
  O2-  O183  1  0.18420050  0.42656093  0.94993157  1
  O2-  O184  1  0.19437720  0.80781850  0.54420655  1
  O2-  O185  1  0.22863636  0.79445676  0.96095980  1
  O2-  O186  1  0.67182945  0.11967734  0.37674831  1
  O2-  O187  1  0.58398359  0.14957207  0.95836716  1
  O2-  O188  1  0.55253502  0.45249308  0.46322073  1
  O2-  O189  1  0.55459810  0.42748071  0.94509984  1
  O2-  O190  1  0.54131381  0.78822426  0.46821440  1
  O2-  O191  1  0.46755158  0.68701529  0.95173473  1
  O2-  O192  1  0.86577783  0.15547030  0.47815747  1
  O2-  O193  1  0.89557995  0.11732958  0.96253522  1
  O2-  O194  1  0.88233605  0.43104534  0.48492714  1
  O2-  O195  1  0.91651058  0.46572365  1.04829124  1
  O2-  O196  1  0.93911409  0.81054773  0.43834651  1
  O2-  O197  1  0.89927337  0.78976648  0.96014404  1
  O2-  O198  1  0.11426498  0.21810377  0.03196250  1
  O2-  O199  1  0.11987453  0.22179181  0.53943408  1
  O2-  O200  1  0.16168306  0.59015920  0.03775565  1
  O2-  O201  1  0.10481267  0.57075198  0.52389200  1
  O2-  O202  1  0.10821132  0.89094225  0.00753640  1
  O2-  O203  1  0.13340596  0.87430863  0.55032502  1
  O2-  O204  1  0.43030394  0.21909747  0.02567840  1
  O2-  O205  1  0.44162829  0.22615197  0.52569321  1
  O2-  O206  1  0.53609581  0.59349979  0.05321351  1
  O2-  O207  1  0.44161285  0.56478705  0.52003040  1
  O2-  O208  1  0.42262476  0.83231565  0.03806381  1
  O2-  O209  1  0.41316977  0.92563425  0.48060327  1
  O2-  O210  1  0.78092589  0.22246181  0.05020811  1
  O2-  O211  1  0.80189641  0.20393432  0.52453315  1
  O2-  O212  1  0.73816269  0.59679248  0.04310665  1
  O2-  O213  1  0.77064577  0.54862144  0.54038192  1
  O2-  O214  1  0.79163689  0.89739068  0.03822742  1
  O2-  O215  1  0.77521954  0.89479019  0.51718076  1
