# generated using pymatgen
data_H2O
_symmetry_space_group_name_H-M   'P 1'
_cell_length_a   13.47875468
_cell_length_b   13.50020991
_cell_length_c   14.67178811
_cell_angle_alpha   90.07048868
_cell_angle_beta   90.01844697
_cell_angle_gamma   120.08977193
_symmetry_Int_Tables_number   1
_chemical_formula_structural   H2O
_chemical_formula_sum   'H144 O72'
_cell_volume   2309.98845557
_cell_formula_units_Z   72
loop_
 _symmetry_equiv_pos_site_id
 _symmetry_equiv_pos_as_xyz
  1  'x, y, z'
loop_
 _atom_type_symbol
 _atom_type_oxidation_number
  H+  1.0
  O2-  -2.0
loop_
 _atom_site_type_symbol
 _atom_site_label
 _atom_site_symmetry_multiplicity
 _atom_site_fract_x
 _atom_site_fract_y
 _atom_site_fract_z
 _atom_site_occupancy
  H+  H0  1  0.80283793  0.62201851  0.24388761  1
  H+  H1  1  0.37475251  0.18397911  0.73694927  1
  H+  H2  1  0.14352191  0.51002976  0.50399750  1
  H+  H3  1  0.18672448  0.06945829  0.28849431  1
  H+  H4  1  0.66409153  0.80266389  0.26839037  1
  H+  H5  1  0.30211571  0.49960892  0.24132848  1
  H+  H6  1  0.49111987  0.30698228  0.74252769  1
  H+  H7  1  0.84583337  0.34703688  0.75817750  1
  H+  H8  1  0.46308865  0.61997338  -0.00276374  1
  H+  H9  1  0.50566863  0.03202766  0.98191439  1
  H+  H10  1  0.44766401  0.88086008  0.65566060  1
  H+  H11  1  0.18209749  0.69005679  0.74891059  1
  H+  H12  1  0.56151384  0.81934984  0.24448340  1
  H+  H13  1  0.63097232  0.48676909  -0.00841861  1
  H+  H14  1  0.38739588  0.93996999  0.36758842  1
  H+  H15  1  0.29973938  0.46881952  0.96943021  1
  H+  H16  1  0.64052108  0.81415995  0.48822720  1
  H+  H17  1  0.99720112  0.15457832  0.76945150  1
  H+  H18  1  0.59491852  0.98658286  0.19416993  1
  H+  H19  1  0.18401443  0.14633252  -0.00059008  1
  H+  H20  1  0.48217843  0.30404675  0.00257790  1
  H+  H21  1  0.73451865  0.73745764  0.03518727  1
  H+  H22  1  0.47988753  0.18162698  0.00248278  1
  H+  H23  1  0.30200610  0.81188159  0.75205422  1
  H+  H24  1  0.68089742  0.50935820  0.23446832  1
  H+  H25  1  0.64388972  0.16924553  0.49921396  1
  H+  H26  1  0.82817774  0.47669867  0.26096341  1
  H+  H27  1  0.55133316  0.11051820  0.84529272  1
  H+  H28  1  0.24619367  0.39490109  0.72648093  1
  H+  H29  1  0.81924900  0.96113925  0.50956374  1
  H+  H30  1  0.36593169  0.84449147  -0.00098254  1
  H+  H31  1  0.55567851  0.10721885  0.28164233  1
  H+  H32  1  0.62222926  0.15560877  0.98366400  1
  H+  H33  1  0.48331443  0.51673466  0.50827925  1
  H+  H34  1  0.82410961  0.04050041  1.09076691  1
  H+  H35  1  0.79170233  0.31286198  0.00209683  1
  H+  H36  1  0.31750832  0.15882598  0.99484296  1
  H+  H37  1  0.17343765  0.75838422  0.20067178  1
  H+  H38  1  0.80606219  0.20617722  0.00378800  1
  H+  H39  1  0.20096400  0.15418354  0.74998033  1
  H+  H40  1  0.62454358  0.80785918  0.75566756  1
  H+  H41  1  0.06212787  0.85806202  -0.05746875  1
  H+  H42  1  0.63165487  0.48361620  0.49100321  1
  H+  H43  1  0.17408921  0.30167628  0.00925010  1
  H+  H44  1  0.09734346  0.59566342  0.21638964  1
  H+  H45  1  0.14005243  0.76287838  0.24059759  1
  H+  H46  1  0.82383460  0.29693254  0.51291471  1
  H+  H47  1  0.49612952  0.21592710  0.23170196  1
  H+  H48  1  0.48988438  0.19920562  0.51301598  1
  H+  H49  1  0.21304777  0.40498814  0.88368264  1
  H+  H50  1  0.50034000  0.80361277  0.97831449  1
  H+  H51  1  0.98901042  0.30947656  0.94501595  1
  H+  H52  1  -0.03388389  0.48597123  -0.01990972  1
  H+  H53  1  0.81847988  0.52112418  1.00797340  1
  H+  H54  1  0.80961553  0.16581890  0.74942904  1
  H+  H55  1  0.36282522  0.82660508  0.53012729  1
  H+  H56  1  0.18210961  0.86255201  0.94877182  1
  H+  H57  1  0.50873292  0.48169400  0.99105647  1
  H+  H58  1  0.18701285  0.69069623  0.97622502  1
  H+  H59  1  0.06118305  0.91382732  0.22685016  1
  H+  H60  1  0.54111094  0.75820673  0.89278013  1
  H+  H61  1  0.84573638  0.46546433  0.75408380  1
  H+  H62  1  0.31067162  0.17968628  0.26511597  1
  H+  H63  1  0.78882255  0.97809704  0.07856374  1
  H+  H64  1  0.81859495  0.63164257  0.52367698  1
  H+  H65  1  0.18230259  0.81542974  0.49553603  1
  H+  H66  1  0.13360108  0.62162536  0.51469227  1
  H+  H67  1  0.75617017  0.29376694  0.25289039  1
  H+  H68  1  0.81448880  0.84961479  0.73756692  1
  H+  H69  1  0.29975694  0.87366838  0.28894269  1
  H+  H70  1  0.81087645  -0.03474956  0.73135602  1
  H+  H71  1  0.84903601  0.14282613  0.49189552  1
  H+  H72  1  0.15443275  0.84251358  0.73109404  1
  H+  H73  1  0.05048100  0.20232515  0.01586744  1
  H+  H74  1  0.50490021  0.48552381  0.75690751  1
  H+  H75  1  0.63589970  0.76259418  0.03675779  1
  H+  H76  1  0.46092639  0.89063108  0.08113566  1
  H+  H77  1  0.78844176  0.55394712  0.83207558  1
  H+  H78  1  0.48382529  0.83385638  0.51855117  1
  H+  H79  1  0.17643173  0.20855394  0.24928042  1
  H+  H80  1  0.46517491  0.61868826  0.73975457  1
  H+  H81  1  0.48354012  -0.03548908  0.74329519  1
  H+  H82  1  0.47195249  0.51203541  0.23482048  1
  H+  H83  1  0.17121809  0.48236067  0.24245847  1
  H+  H84  1  0.43651174  0.54638188  0.64867633  1
  H+  H85  1  1.03973560  0.85063335  0.73057839  1
  H+  H86  1  0.14828504  0.49824972  -0.01012394  1
  H+  H87  1  0.84988947  0.81104273  0.50277990  1
  H+  H88  1  0.52247904  0.15416637  0.75334209  1
  H+  H89  1  0.50099379  0.37031143  0.25773668  1
  H+  H90  1  0.54232671  0.44602708  0.84976752  1
  H+  H91  1  0.14796440  0.17854281  0.53362507  1
  H+  H92  1  0.48943856  0.63569094  0.22853277  1
  H+  H93  1  0.48905183  0.63783623  0.50999126  1
  H+  H94  1  0.85270155  0.80027694  0.28507413  1
  H+  H95  1  0.05027972  0.87776021  0.32631124  1
  H+  H96  1  0.30766936  0.50352978  0.48382536  1
  H+  H97  1  -0.01067356  0.47488404  0.23073992  1
  H+  H98  1  1.04044607  0.51228103  0.74122918  1
  H+  H99  1  0.47266271  0.90949110  0.24176586  1
  H+  H100  1  0.43788082  0.23123855  0.14202735  1
  H+  H101  1  0.19369742  1.02640215  -0.04075824  1
  H+  H102  1  0.84749083  0.70734925  0.76240872  1
  H+  H103  1  0.91329737  0.82978727  1.01130834  1
  H+  H104  1  0.96219571  0.47511674  0.48957792  1
  H+  H105  1  1.02540365  0.17209794  0.53146817  1
  H+  H106  1  0.15632278  0.97255708  0.50517850  1
  H+  H107  1  0.19711145  1.03414003  0.74124210  1
  H+  H108  1  0.84255588  0.47343193  0.49503614  1
  H+  H109  1  0.89002055  0.09006999  0.41087945  1
  H+  H110  1  0.92445699  0.05121769  0.83758775  1
  H+  H111  1  0.97116070  0.81301012  0.50021004  1
  H+  H112  1  0.86974220  0.43596184  0.35032092  1
  H+  H113  1  0.77276298  0.87945052  0.59651807  1
  H+  H114  1  0.77099949  0.54536286  0.60702022  1
  H+  H115  1  0.78557760  0.21580981  0.60163556  1
  H+  H116  1  0.77478496  0.55897537  0.09738144  1
  H+  H117  1  0.23004645  0.13909785  0.41968642  1
  H+  H118  1  0.17227309  0.33545440  0.23676204  1
  H+  H119  1  0.50767707  0.81093475  0.75951680  1
  H+  H120  1  0.23279687  0.47070170  0.39270254  1
  H+  H121  1  0.93312251  0.19012494  0.89627369  1
  H+  H122  1  0.07802558  0.88849089  0.10292088  1
  H+  H123  1  0.86319659  0.69633609  0.99212691  1
  H+  H124  1  0.04352880  0.91876274  0.10380321  1
  H+  H125  1  0.42820254  0.54433207  0.08836543  1
  H+  H126  1  0.68336217  0.51666305  0.76731628  1
  H+  H127  1  0.88404631  0.44499391  0.89307972  1
  H+  H128  1  0.11484468  0.22889584  0.65323548  1
  H+  H129  1  0.89656953  0.79376731  0.84398627  1
  H+  H130  1  0.09861263  0.52587346  0.07995717  1
  H+  H131  1  0.11851475  0.88950133  0.59134928  1
  H+  H132  1  0.23052907  0.76436944  0.88362545  1
  H+  H133  1  0.30599786  0.16111245  0.50790713  1
  H+  H134  1  0.54484898  0.44720522  0.34894879  1
  H+  H135  1  0.45037425  0.23478321  0.60470569  1
  H+  H136  1  0.56277069  0.77312087  0.39900841  1
  H+  H137  1  0.23979820  0.77305048  0.42115642  1
  H+  H138  1  0.87038804  0.74239311  0.37226412  1
  H+  H139  1  0.69210553  0.16882016  0.74578454  1
  H+  H140  1  0.11119299  0.54770924  0.65008652  1
  H+  H141  1  0.13097835  0.23696582  0.14912026  1
  H+  H142  1  0.59671344  0.18832299  0.40762768  1
  H+  H143  1  0.51144721  0.36694586  0.49349769  1
  O2-  O144  1  0.13461193  0.24741649  0.21796013  1
  O2-  O145  1  0.12479954  0.23130723  0.72848962  1
  O2-  O146  1  0.06892532  0.51491164  0.20250368  1
  O2-  O147  1  0.11914181  0.55778115  0.71753302  1
  O2-  O148  1  0.10717276  0.92990809  0.28229291  1
  O2-  O149  1  0.11818688  0.88590691  0.70520587  1
  O2-  O150  1  0.43763045  0.23513338  0.21020671  1
  O2-  O151  1  0.45853177  0.22806651  0.71751349  1
  O2-  O152  1  0.43642203  0.55546492  0.20754356  1
  O2-  O153  1  0.42967632  0.53857696  0.71678911  1
  O2-  O154  1  0.52475057  0.91191251  0.19251574  1
  O2-  O155  1  0.44337567  0.88226113  0.72505880  1
  O2-  O156  1  0.69828273  0.21519905  0.22942631  1
  O2-  O157  1  0.77521647  0.20883947  0.72446056  1
  O2-  O158  1  0.76202887  0.54540117  0.21252517  1
  O2-  O159  1  0.77149131  0.55655622  0.76765420  1
  O2-  O160  1  0.82696379  0.92020038  0.26277572  1
  O2-  O161  1  0.76907883  0.88422285  0.71290725  1
  O2-  O162  1  0.23508683  0.15505166  0.29544780  1
  O2-  O163  1  0.24250203  0.11348672  0.76474544  1
  O2-  O164  1  0.22057694  0.45145340  0.26436324  1
  O2-  O165  1  0.17381769  0.35090119  0.76093500  1
  O2-  O166  1  0.36502705  0.87903598  0.32253993  1
  O2-  O167  1  0.22017010  0.77170019  0.77346838  1
  O2-  O168  1  0.59571178  0.19101275  0.28262865  1
  O2-  O169  1  0.55865431  0.10985418  0.77726771  1
  O2-  O170  1  0.54293796  0.45067191  0.28064665  1
  O2-  O171  1  0.54995046  0.44915440  0.78198520  1
  O2-  O172  1  0.58105795  0.76794902  0.27885922  1
  O2-  O173  1  0.54492860  0.76548644  0.77922944  1
  O2-  O174  1  0.88894473  0.02238058  0.29279837  1
  O2-  O175  1  0.91776961  0.10612291  0.79852199  1
  O2-  O176  1  0.86287911  0.42990254  0.28202045  1
  O2-  O177  1  0.88724037  0.42896779  0.77934041  1
  O2-  O178  1  0.87444996  0.74358943  0.30407928  1
  O2-  O179  1  0.89185026  0.79094225  0.77640129  1
  O2-  O180  1  0.22400504  0.12010384  0.48533532  1
  O2-  O181  1  0.23244473  0.11592295  0.97270688  1
  O2-  O182  1  0.22864403  0.47238604  0.45941286  1
  O2-  O183  1  0.21672010  0.42127782  0.94990874  1
  O2-  O184  1  0.21764258  0.76590270  0.48522996  1
  O2-  O185  1  0.23320595  0.76989028  0.95290744  1
  O2-  O186  1  0.57160378  0.15305597  0.46801809  1
  O2-  O187  1  0.53968647  0.11319886  0.96105465  1
  O2-  O188  1  0.55230071  0.44632670  0.46644574  1
  O2-  O189  1  0.55072911  0.44220067  0.96864303  1
  O2-  O190  1  0.55903979  0.77360518  0.46672448  1
  O2-  O191  1  0.52943264  0.75125974  0.96066795  1
  O2-  O192  1  0.89017590  0.09980723  0.47746479  1
  O2-  O193  1  0.94966109  0.22736364  0.95734664  1
  O2-  O194  1  0.87990733  0.43323785  0.46717065  1
  O2-  O195  1  0.88452527  0.45410185  0.96105821  1
  O2-  O196  1  0.88747194  0.76523899  0.48582928  1
  O2-  O197  1  0.90722280  0.77586392  0.96423802  1
  O2-  O198  1  0.12858624  0.22370791  0.03904091  1
  O2-  O199  1  0.10276132  0.21190104  0.56021584  1
  O2-  O200  1  0.10690331  0.53708783  0.01293573  1
  O2-  O201  1  0.09332617  0.53911031  0.53109865  1
  O2-  O202  1  0.14527167  0.90923004  -0.06597711  1
  O2-  O203  1  0.11664366  0.88967443  0.52261697  1
  O2-  O204  1  0.43908908  0.22300078  0.02602188  1
  O2-  O205  1  0.44376547  0.23417192  0.53626188  1
  O2-  O206  1  0.42613191  0.53827409  0.02028937  1
  O2-  O207  1  0.44435346  0.55733172  0.53311808  1
  O2-  O208  1  0.44962305  0.89094636  0.01445216  1
  O2-  O209  1  0.44444568  0.87134689  0.54753252  1
  O2-  O210  1  0.75106930  0.23094579  0.01989893  1
  O2-  O211  1  0.78552077  0.21532123  0.53391303  1
  O2-  O212  1  0.77974598  0.56425278  0.02869356  1
  O2-  O213  1  0.77398533  0.54794214  0.54060793  1
  O2-  O214  1  0.69201920  0.75759663  0.07741324  1
  O2-  O215  1  0.77825376  0.87857893  0.52869496  1
