# generated using pymatgen
data_H2O
_symmetry_space_group_name_H-M   'P 1'
_cell_length_a   13.52715613
_cell_length_b   13.53098875
_cell_length_c   14.70806242
_cell_angle_alpha   89.96190728
_cell_angle_beta   90.03320658
_cell_angle_gamma   119.97696428
_symmetry_Int_Tables_number   1
_chemical_formula_structural   H2O
_chemical_formula_sum   'H144 O72'
_cell_volume   2331.96904477
_cell_formula_units_Z   72
loop_
 _symmetry_equiv_pos_site_id
 _symmetry_equiv_pos_as_xyz
  1  'x, y, z'
loop_
 _atom_type_symbol
 _atom_type_oxidation_number
  H+  1.0
  O2-  -2.0
loop_
 _atom_site_type_symbol
 _atom_site_label
 _atom_site_symmetry_multiplicity
 _atom_site_fract_x
 _atom_site_fract_y
 _atom_site_fract_z
 _atom_site_occupancy
  H+  H0  1  0.29478318  0.48463171  0.23816091  1
  H+  H1  1  0.78281933  0.92187661  0.78336963  1
  H+  H2  1  0.86705961  0.81485122  0.77878956  1
  H+  H3  1  0.18068946  1.03378542  0.00467386  1
  H+  H4  1  0.70462331  0.18149553  0.29313364  1
  H+  H5  1  0.81419185  0.14712199  0.49291899  1
  H+  H6  1  0.21229055  0.36251946  0.97039199  1
  H+  H7  1  0.53364396  0.78278587  0.97862829  1
  H+  H8  1  0.52334643  0.35810454  0.99359409  1
  H+  H9  1  0.82235917  0.96387203  0.27207751  1
  H+  H10  1  0.22859460  0.11289890  0.91559093  1
  H+  H11  1  0.50834052  0.34732171  0.24174362  1
  H+  H12  1  0.36148574  0.49050436  0.72798622  1
  H+  H13  1  0.51245415  0.48327526  0.24181712  1
  H+  H14  1  0.51067383  0.45487439  0.75557361  1
  H+  H15  1  0.05175621  0.85655862  0.73637100  1
  H+  H16  1  0.77236149  0.27672826  0.49774459  1
  H+  H17  1  0.63578279  0.48125121  0.24817233  1
  H+  H18  1  0.11071454  0.92296800  0.28048564  1
  H+  H19  1  0.92921762  0.15128786  0.51207314  1
  H+  H20  1  0.19042972  0.15933112  0.24919751  1
  H+  H21  1  0.19270421  0.47007431  0.07136670  1
  H+  H22  1  0.84145949  0.79723986  0.28108566  1
  H+  H23  1  0.44957925  0.86740752  0.03135322  1
  H+  H24  1  0.18605255  0.70063989  0.48655053  1
  H+  H25  1  0.86028993  0.69447998  0.77960735  1
  H+  H26  1  0.49008891  0.87094475  0.73406825  1
  H+  H27  1  0.84709717  0.36598941  0.98890036  1
  H+  H28  1  0.50728021  1.01320434  0.29652517  1
  H+  H29  1  0.47439116  0.60837044  0.73306784  1
  H+  H30  1  0.48040255  0.10364464  0.46071711  1
  H+  H31  1  0.19795302  0.82355670  0.48824027  1
  H+  H32  1  0.50992277  -0.00193147  0.46586581  1
  H+  H33  1  0.95464465  0.78605613  0.27362931  1
  H+  H34  1  0.12709146  0.55206357  0.04726318  1
  H+  H35  1  0.64490186  0.47484154  0.98925595  1
  H+  H36  1  0.11542392  0.56133839  0.64913310  1
  H+  H37  1  0.21286657  0.39570327  0.46769518  1
  H+  H38  1  1.02990912  0.18107942  0.24518542  1
  H+  H39  1  0.57945134  0.50252088  0.49112616  1
  H+  H40  1  0.62751168  0.06044001  0.55228060  1
  H+  H41  1  0.50819514  0.50738239  1.00335271  1
  H+  H42  1  0.37572631  0.87196734  0.72869168  1
  H+  H43  1  0.16483680  0.69210558  0.27135736  1
  H+  H44  1  0.38247868  0.20071824  0.24058319  1
  H+  H45  1  0.51646285  0.75335924  0.33528525  1
  H+  H46  1  0.17733525  0.35601474  0.74539469  1
  H+  H47  1  0.82219159  0.62924314  0.01320911  1
  H+  H48  1  0.83197180  0.81554485  0.48184443  1
  H+  H49  1  0.14629093  0.85509487  0.01699843  1
  H+  H50  1  0.47310605  0.84611125  0.23838795  1
  H+  H51  1  0.80606050  0.53683090  0.55406238  1
  H+  H52  1  0.53864683  0.11896053  0.89672201  1
  H+  H53  1  0.86265294  0.82135361  -0.02312574  1
  H+  H54  1  0.20541408  0.02946356  0.77178238  1
  H+  H55  1  0.84925516  0.14213228  0.27012392  1
  H+  H56  1  0.61333973  0.80212170  0.26074196  1
  H+  H57  1  0.58789169  0.82601235  0.45530603  1
  H+  H58  1  0.51864143  0.95519035  0.59845933  1
  H+  H59  1  0.15297132  0.16938812  0.01929133  1
  H+  H60  1  0.80188030  0.96726035  0.48232092  1
  H+  H61  1  0.69016690  0.51561563  0.76184768  1
  H+  H62  1  0.90832918  0.43323908  0.37924454  1
  H+  H63  1  0.18018570  0.47757494  0.74785630  1
  H+  H64  1  0.32749885  0.13978254  0.78135377  1
  H+  H65  1  0.86611542  0.11058741  0.75713704  1
  H+  H66  1  0.50621168  0.06227129  0.74705588  1
  H+  H67  1  0.18007363  0.98507559  0.50263247  1
  H+  H68  1  0.00511601  0.53259041  0.02041554  1
  H+  H69  1  0.28230911  0.83285536  1.00292051  1
  H+  H70  1  0.10639793  0.21160274  0.11666522  1
  H+  H71  1  0.50391658  1.04217199  -0.01171349  1
  H+  H72  1  0.81857537  0.53125466  0.76527021  1
  H+  H73  1  0.19655873  0.82356019  0.75376749  1
  H+  H74  1  0.60444382  0.78721692  0.74499164  1
  H+  H75  1  0.83192425  0.45904252  0.43914458  1
  H+  H76  1  0.48519245  0.18447913  1.01120405  1
  H+  H77  1  0.70175179  0.82721071  -0.03532283  1
  H+  H78  1  0.16133956  0.71522392  1.00021538  1
  H+  H79  1  0.81954773  0.51016673  1.01188641  1
  H+  H80  1  0.38831067  0.52583538  0.50022297  1
  H+  H81  1  0.84236410  0.69711943  0.51638143  1
  H+  H82  1  0.21478597  0.06005920  0.22158065  1
  H+  H83  1  0.80840593  0.22962503  0.75203843  1
  H+  H84  1  0.81690510  0.28897694  0.25369666  1
  H+  H85  1  0.85771043  1.03704710  -0.02415234  1
  H+  H86  1  0.68865694  0.22389798  0.74080397  1
  H+  H87  1  0.98101073  0.50967975  0.76077947  1
  H+  H88  1  0.17207991  0.17279984  0.77357682  1
  H+  H89  1  0.23607266  0.52279238  1.04585372  1
  H+  H90  1  0.50960581  0.26824792  0.74350873  1
  H+  H91  1  0.09905749  0.20654866  0.43344597  1
  H+  H92  1  0.69935072  0.19203321  1.00090490  1
  H+  H93  1  0.49869197  0.69634300  0.47632280  1
  H+  H94  1  0.85402036  0.40134332  0.75835502  1
  H+  H95  1  0.16505707  0.64062607  0.73744077  1
  H+  H96  1  -0.00594844  0.19302074  0.77713817  1
  H+  H97  1  0.03238689  0.51475282  0.50409893  1
  H+  H98  1  0.47424706  0.62438052  0.22631305  1
  H+  H99  1  0.80867081  0.61395328  0.24799606  1
  H+  H100  1  0.36740725  0.18657216  0.01985866  1
  H+  H101  1  0.15475194  0.52401278  0.50230642  1
  H+  H102  1  0.02566988  0.17049890  0.01742820  1
  H+  H103  1  0.81555071  0.19096837  1.01260205  1
  H+  H104  1  0.41002497  0.18294185  0.50414858  1
  H+  H105  1  0.14789544  0.30456664  0.23660709  1
  H+  H106  1  0.38961128  0.49828596  -0.01297797  1
  H+  H107  1  0.14283882  0.82852534  0.25385061  1
  H+  H108  1  0.77719437  0.54460465  0.15389961  1
  H+  H109  1  0.99110824  0.83114816  0.99900912  1
  H+  H110  1  0.13048908  0.22878973  0.53619321  1
  H+  H111  1  0.47882675  0.17598553  0.58864232  1
  H+  H112  1  0.24011419  0.47806847  0.38651736  1
  H+  H113  1  0.24004725  0.16866445  0.46861532  1
  H+  H114  1  0.09928190  0.88497544  0.10988902  1
  H+  H115  1  0.71844284  0.86422500  0.54473124  1
  H+  H116  1  0.35618760  0.84726673  0.25067081  1
  H+  H117  1  0.46015351  0.23443516  0.15071137  1
  H+  H118  1  0.55195658  0.42206077  0.84731208  1
  H+  H119  1  0.89540731  0.11286963  0.35616326  1
  H+  H120  1  0.04765979  0.55552003  0.16847164  1
  H+  H121  1  0.45766041  0.55171267  0.59198418  1
  H+  H122  1  0.52770218  0.66279326  0.97384497  1
  H+  H123  1  0.78848593  0.88298253  0.68538820  1
  H+  H124  1  0.90842444  0.14312821  0.90785886  1
  H+  H125  1  0.21979422  0.77628611  0.35745121  1
  H+  H126  1  0.78941840  0.59589551  0.64162280  1
  H+  H127  1  0.53072399  0.75228449  0.83248121  1
  H+  H128  1  0.91800997  0.78215488  0.89003124  1
  H+  H129  1  0.25658611  0.41984426  0.87424088  1
  H+  H130  1  0.88413885  0.49788794  0.24530977  1
  H+  H131  1  0.44477820  0.54614512  0.13692304  1
  H+  H132  1  0.26619412  0.11216043  0.38720654  1
  H+  H133  1  0.89484446  0.45680502  0.90365895  1
  H+  H134  1  0.17318249  0.48112513  0.24671093  1
  H+  H135  1  0.05551351  0.87417272  0.50635625  1
  H+  H136  1  0.42421254  0.91352874  0.11949365  1
  H+  H137  1  0.77133273  0.87281511  0.19443329  1
  H+  H138  1  0.10751823  0.16707732  0.68517654  1
  H+  H139  1  0.76389973  0.23576052  0.60023912  1
  H+  H140  1  0.23340084  0.78824339  0.84463218  1
  H+  H141  1  0.87566282  0.75487983  0.40440586  1
  H+  H142  1  0.13111414  0.90195377  0.64739251  1
  H+  H143  1  0.77479906  0.88353920  0.05082942  1
  O2-  O144  1  0.10929433  0.22121774  0.21784659  1
  O2-  O145  1  0.12092301  0.19926281  0.74621008  1
  O2-  O146  1  0.05120377  0.54441135  0.23604895  1
  O2-  O147  1  0.11696421  0.55980138  0.71719736  1
  O2-  O148  1  0.09392607  0.86473149  0.23426329  1
  O2-  O149  1  0.13181419  0.89927623  0.71561758  1
  O2-  O150  1  0.46275778  0.24254517  0.21903333  1
  O2-  O151  1  0.46899117  0.18462250  0.72758582  1
  O2-  O152  1  0.43695586  0.54279060  0.20468712  1
  O2-  O153  1  0.44433609  0.52861047  0.71275488  1
  O2-  O154  1  0.43606262  0.89372646  0.22753736  1
  O2-  O155  1  0.45809061  0.91845886  0.71182046  1
  O2-  O156  1  0.77756395  0.20606136  0.26221946  1
  O2-  O157  1  0.76950150  0.26371435  0.71917269  1
  O2-  O158  1  0.77468414  0.53603690  0.22171469  1
  O2-  O159  1  0.77451949  0.57055429  0.74811972  1
  O2-  O160  1  0.77960554  0.87853597  0.26023134  1
  O2-  O161  1  0.77041789  0.85543863  0.74794585  1
  O2-  O162  1  0.23621955  0.12197783  0.26504706  1
  O2-  O163  1  0.24697204  0.10617602  0.80205326  1
  O2-  O164  1  0.21565776  0.44263766  0.26477798  1
  O2-  O165  1  0.22135465  0.43608863  0.76536461  1
  O2-  O166  1  0.21318415  0.77377107  0.28659679  1
  O2-  O167  1  0.23821328  0.78538763  0.77768198  1
  O2-  O168  1  0.54890912  0.07961332  0.33979846  1
  O2-  O169  1  0.54053434  0.14284170  0.77114419  1
  O2-  O170  1  0.55207057  0.44108939  0.26408724  1
  O2-  O171  1  0.55622882  0.42042669  0.77952070  1
  O2-  O172  1  0.52956359  0.75992415  0.26548538  1
  O2-  O173  1  0.52569342  0.75841203  0.76548512  1
  O2-  O174  1  0.89634741  0.10541087  0.28894855  1
  O2-  O175  1  0.91571281  0.17590016  0.79522479  1
  O2-  O176  1  0.93072801  0.46127358  0.26240003  1
  O2-  O177  1  0.90226930  0.47730628  0.78745531  1
  O2-  O178  1  0.87568591  0.74932219  0.30005822  1
  O2-  O179  1  0.91212401  0.77819297  0.79809597  1
  O2-  O180  1  0.26722581  0.11485036  0.45430508  1
  O2-  O181  1  0.21947646  0.11484772  0.98350063  1
  O2-  O182  1  0.24095922  0.47663574  0.45384922  1
  O2-  O183  1  0.27966981  0.39755598  0.93170756  1
  O2-  O184  1  0.22869370  0.77848219  0.45981949  1
  O2-  O185  1  0.20521151  0.79417194  0.97383671  1
  O2-  O186  1  0.47239219  0.03224670  0.41978170  1
  O2-  O187  1  0.54888802  0.12086700  0.96353580  1
  O2-  O188  1  0.51122178  0.42678769  0.48573305  1
  O2-  O189  1  0.56523927  0.43582364  0.96507325  1
  O2-  O190  1  0.51297958  0.76367878  0.43814880  1
  O2-  O191  1  0.56917589  0.74579895  0.94620297  1
  O2-  O192  1  0.86282658  0.11298819  0.47231791  1
  O2-  O193  1  0.90494547  0.12126999  0.97345354  1
  O2-  O194  1  0.88120902  0.42577013  0.44356290  1
  O2-  O195  1  0.88749317  0.45039397  0.97139695  1
  O2-  O196  1  0.87606852  0.77243949  0.47331108  1
  O2-  O197  1  0.91140959  0.78466025  0.96495404  1
  O2-  O198  1  0.10659311  0.20608505  0.04507689  1
  O2-  O199  1  0.16335602  0.24444313  0.47533881  1
  O2-  O200  1  0.07859543  0.58677315  0.05417507  1
  O2-  O201  1  0.11010607  0.55759593  0.52953576  1
  O2-  O202  1  0.10233162  0.89348199  0.04248248  1
  O2-  O203  1  0.13304924  0.90713808  0.53062788  1
  O2-  O204  1  0.44851296  0.22644604  0.03913438  1
  O2-  O205  1  0.48134452  0.18412666  0.52186243  1
  O2-  O206  1  0.46498970  0.54871359  0.01880501  1
  O2-  O207  1  0.46461914  0.57469464  0.52703444  1
  O2-  O208  1  0.41726671  0.91422173  0.05028450  1
  O2-  O209  1  0.56652207  0.98066729  0.54242260  1
  O2-  O210  1  0.77880823  0.23678676  0.02316492  1
  O2-  O211  1  0.74843452  0.20842273  0.53612521  1
  O2-  O212  1  0.77944896  0.55102307  0.03688160  1
  O2-  O213  1  0.80086241  0.60298173  0.57293698  1
  O2-  O214  1  0.78439984  0.88021407  -0.01471165  1
  O2-  O215  1  0.76321174  0.88218219  0.48889898  1
