# generated using pymatgen
data_H2O
_symmetry_space_group_name_H-M   'P 1'
_cell_length_a   13.50267839
_cell_length_b   13.50874787
_cell_length_c   14.68012719
_cell_angle_alpha   89.97462419
_cell_angle_beta   89.99665874
_cell_angle_gamma   120.00846974
_symmetry_Int_Tables_number   1
_chemical_formula_structural   H2O
_chemical_formula_sum   'H144 O72'
_cell_volume   2318.77352084
_cell_formula_units_Z   72
loop_
 _symmetry_equiv_pos_site_id
 _symmetry_equiv_pos_as_xyz
  1  'x, y, z'
loop_
 _atom_type_symbol
 _atom_type_oxidation_number
  H+  1.0
  O2-  -2.0
loop_
 _atom_site_type_symbol
 _atom_site_label
 _atom_site_symmetry_multiplicity
 _atom_site_fract_x
 _atom_site_fract_y
 _atom_site_fract_z
 _atom_site_occupancy
  H+  H0  1  0.14458773  0.96231615  0.50943372  1
  H+  H1  1  0.16068175  0.15488347  0.27433375  1
  H+  H2  1  0.83276303  0.97738144  0.24737918  1
  H+  H3  1  0.81509537  0.50848994  0.23909156  1
  H+  H4  1  0.47351643  0.97427627  0.72222462  1
  H+  H5  1  0.74977587  0.85824659  0.81855865  1
  H+  H6  1  0.14371822  0.28459801  0.01824725  1
  H+  H7  1  0.84797301  0.69850419  0.49536469  1
  H+  H8  1  0.84693375  0.47967163  0.75226943  1
  H+  H9  1  0.52113464  0.64346289  0.02643983  1
  H+  H10  1  0.53718281  0.47729065  -0.00868151  1
  H+  H11  1  0.48646185  -0.02100105  0.26483135  1
  H+  H12  1  0.34341598  0.83674157  0.02581453  1
  H+  H13  1  0.70427450  0.18355933  0.50721094  1
  H+  H14  1  0.64406387  0.82772218  0.26092429  1
  H+  H15  1  0.96934471  0.47462543  0.49122048  1
  H+  H16  1  0.19818248  0.69581036  0.27534226  1
  H+  H17  1  0.52487803  0.82891479  0.26796882  1
  H+  H18  1  0.54654359  0.81531856  0.94149953  1
  H+  H19  1  0.15617918  0.83171916  0.00571235  1
  H+  H20  1  0.51588071  0.14876060  0.75434634  1
  H+  H21  1  0.03817163  0.18686207  0.18085667  1
  H+  H22  1  0.52698256  0.49407452  0.27426828  1
  H+  H23  1  0.63429039  0.80732712  0.49177737  1
  H+  H24  1  0.84572321  0.36028462  0.75697023  1
  H+  H25  1  0.82678966  0.51950746  1.01013575  1
  H+  H26  1  -0.01929796  0.80504777  -0.01149308  1
  H+  H27  1  0.89689199  0.77129969  0.85061704  1
  H+  H28  1  0.61458474  0.12626632  0.98364395  1
  H+  H29  1  -0.02484191  0.50490108  -0.01712776  1
  H+  H30  1  0.49743510  0.85886118  0.49878811  1
  H+  H31  1  0.17013505  0.12104200  0.99665877  1
  H+  H32  1  0.93401505  0.17228520  0.97412884  1
  H+  H33  1  1.00318205  0.15738154  0.74690871  1
  H+  H34  1  0.18420624  0.14766170  0.77109175  1
  H+  H35  1  0.69104604  0.17777041  0.73577035  1
  H+  H36  1  0.22024048  0.12889591  0.35683935  1
  H+  H37  1  0.30839586  0.81858989  0.28542070  1
  H+  H38  1  0.45329514  0.83162078  0.05869760  1
  H+  H39  1  0.47095082  0.61295935  0.51115683  1
  H+  H40  1  0.15121019  0.94729333  0.01033822  1
  H+  H41  1  0.48635296  0.29976295  0.74009329  1
  H+  H42  1  0.14799154  0.52329792  0.73958567  1
  H+  H43  1  0.34460773  0.49108345  0.51556821  1
  H+  H44  1  0.51706677  0.35080939  -0.00755010  1
  H+  H45  1  0.51966554  0.48005312  0.75867555  1
  H+  H46  1  0.18289887  0.69810672  0.76249692  1
  H+  H47  1  0.85302111  0.69892798  0.99335665  1
  H+  H48  1  0.82411154  0.84949611  0.50693705  1
  H+  H49  1  0.02474305  0.51405648  0.74143858  1
  H+  H50  1  0.48246703  0.29653127  0.50958445  1
  H+  H51  1  0.13848000  0.49993097  0.99541679  1
  H+  H52  1  0.12152340  0.26847380  0.76673453  1
  H+  H53  1  0.46499896  0.85321584  0.70727707  1
  H+  H54  1  0.87641741  1.03887759  -0.00553972  1
  H+  H55  1  0.27025489  0.44965744  0.94865267  1
  H+  H56  1  0.86820721  1.04268322  0.48003134  1
  H+  H57  1  0.63512218  0.48134724  0.49463822  1
  H+  H58  1  0.88812500  0.78755578  0.35371950  1
  H+  H59  1  0.48892931  0.64207791  0.26427054  1
  H+  H60  1  0.82803305  0.14205247  0.75209497  1
  H+  H61  1  0.81863097  0.51329196  0.50789139  1
  H+  H62  1  0.82710293  0.85598976  0.24978850  1
  H+  H63  1  0.36622560  0.18258193  0.74418334  1
  H+  H64  1  0.41827224  0.77789973  0.92268322  1
  H+  H65  1  0.69649908  0.83915278  0.96366487  1
  H+  H66  1  0.69719459  0.17582147  0.25047364  1
  H+  H67  1  0.15291156  0.50029316  0.23423175  1
  H+  H68  1  0.82262609  0.63143042  0.73953633  1
  H+  H69  1  0.15030867  0.49482932  0.51733429  1
  H+  H70  1  0.61206660  0.81052962  0.73293022  1
  H+  H71  1  0.16305091  0.68238638  0.50871936  1
  H+  H72  1  0.96772955  0.81840879  0.49907936  1
  H+  H73  1  0.43435512  0.89814144  0.17839887  1
  H+  H74  1  0.51214035  0.47567059  0.49241824  1
  H+  H75  1  0.18103229  0.14918293  0.49852353  1
  H+  H76  1  0.84785242  0.35954995  0.48801393  1
  H+  H77  1  0.80113164  0.96565510  0.75556069  1
  H+  H78  1  0.77963750  0.55271706  0.59713572  1
  H+  H79  1  0.49610820  1.01110416  -0.01867437  1
  H+  H80  1  0.11428254  -0.09366383  0.65108770  1
  H+  H81  1  0.85810126  0.81008076  0.76101536  1
  H+  H82  1  0.19490998  0.40352486  0.69581444  1
  H+  H83  1  0.77276044  0.14502018  0.01744636  1
  H+  H84  1  -0.01303629  0.16178206  0.49124673  1
  H+  H85  1  0.69861863  0.50255903  0.01110995  1
  H+  H86  1  0.67232836  0.83146727  0.01133112  1
  H+  H87  1  0.36068484  0.18051887  1.01771614  1
  H+  H88  1  0.47842401  0.62414644  0.72074935  1
  H+  H89  1  0.96387275  0.81638817  0.26359557  1
  H+  H90  1  0.70125355  0.51419761  0.73860085  1
  H+  H91  1  0.19100784  0.68866042  -0.01501746  1
  H+  H92  1  0.20371983  0.25463859  0.09530462  1
  H+  H93  1  0.81846912  0.18210000  0.24488173  1
  H+  H94  1  0.29758838  0.14528821  0.49451932  1
  H+  H95  1  0.48491903  0.30698183  0.24908969  1
  H+  H96  1  0.10200835  0.53995834  0.59851227  1
  H+  H97  1  0.40827600  0.53113487  0.04463684  1
  H+  H98  1  0.52481834  0.15589285  0.49601787  1
  H+  H99  1  0.36130888  0.19658673  0.24902616  1
  H+  H100  1  0.51296374  0.15544547  0.26788518  1
  H+  H101  1  0.29293413  0.46333666  0.26939479  1
  H+  H102  1  0.88876255  0.88716874  0.02307107  1
  H+  H103  1  1.04438290  0.86176839  0.74339792  1
  H+  H104  1  0.29875747  0.82039844  0.75547788  1
  H+  H105  1  0.13776844  0.83896472  0.52074756  1
  H+  H106  1  -0.03217790  0.58125449  0.30582300  1
  H+  H107  1  0.68362065  0.49820995  0.23837792  1
  H+  H108  1  0.18872579  0.03353130  0.76294372  1
  H+  H109  1  0.44019228  0.53359926  0.64021215  1
  H+  H110  1  0.77591549  0.21895554  0.64847549  1
  H+  H111  1  0.21942530  0.09667314  0.90556111  1
  H+  H112  1  0.14473291  0.83230538  0.25043793  1
  H+  H113  1  0.82508036  0.18516148  0.50581892  1
  H+  H114  1  0.50938442  0.76054569  0.80368337  1
  H+  H115  1  0.22098051  0.43303203  0.42890195  1
  H+  H116  1  0.85016731  0.92929357  0.11159970  1
  H+  H117  1  0.44251552  0.21851854  0.59926821  1
  H+  H118  1  0.55697216  0.76988434  0.40384722  1
  H+  H119  1  0.74774962  0.19506498  0.10663383  1
  H+  H120  1  0.46574096  0.56360546  0.17914511  1
  H+  H121  1  0.31416068  0.48487987  0.74048079  1
  H+  H122  1  0.56158353  0.43850805  0.84701323  1
  H+  H123  1  0.03845297  0.50631335  0.22925677  1
  H+  H124  1  0.21819084  0.77395010  0.43110649  1
  H+  H125  1  0.89776920  0.46498008  0.35649951  1
  H+  H126  1  0.10475175  0.85993256  0.15634439  1
  H+  H127  1  0.11680611  0.54510966  0.09104868  1
  H+  H128  1  0.78532563  0.89678080  0.59036225  1
  H+  H129  1  0.43895880  0.89850695  0.57343344  1
  H+  H130  1  0.55922364  0.12287109  0.35794609  1
  H+  H131  1  0.76711189  0.53440443  0.13239416  1
  H+  H132  1  0.16697655  0.34979769  0.27286146  1
  H+  H133  1  0.86344266  0.09939955  0.84409274  1
  H+  H134  1  0.43759140  0.22941776  0.10798664  1
  H+  H135  1  0.89109064  0.46220830  0.89661442  1
  H+  H136  1  0.53141248  0.03947370  0.48648708  1
  H+  H137  1  0.93243352  0.13711332  0.34980179  1
  H+  H138  1  0.55071365  0.09518680  0.83891274  1
  H+  H139  1  0.56911310  0.44775831  0.35725039  1
  H+  H140  1  0.18588261  0.41303445  0.86944009  1
  H+  H141  1  0.10748492  0.21640546  0.60293107  1
  H+  H142  1  0.23580346  0.77286255  0.89472986  1
  H+  H143  1  0.16231140  0.31415124  0.51971223  1
  O2-  O144  1  0.04730439  0.19702952  0.24766230  1
  O2-  O145  1  0.08739586  0.19723145  0.73219529  1
  O2-  O146  1  0.11769163  0.54303958  0.20580864  1
  O2-  O147  1  0.10509977  0.55970309  0.71728949  1
  O2-  O148  1  0.09646048  0.86048976  0.22316204  1
  O2-  O149  1  0.12067297  0.91560365  0.71871957  1
  O2-  O150  1  0.44169655  0.22691584  0.22680550  1
  O2-  O151  1  0.44494731  0.21952696  0.71723004  1
  O2-  O152  1  0.45071332  0.55937480  0.24502970  1
  O2-  O153  1  0.44220566  0.53996418  0.71035465  1
  O2-  O154  1  0.44633973  0.89604715  0.24494541  1
  O2-  O155  1  0.42418524  0.89575067  0.69587141  1
  O2-  O156  1  0.77391669  0.21573073  0.22121996  1
  O2-  O157  1  0.77429951  0.21817862  0.71682335  1
  O2-  O158  1  0.76182569  0.52948093  0.20673865  1
  O2-  O159  1  0.78111639  0.55208178  0.71403542  1
  O2-  O160  1  0.78846315  0.89902461  0.22321564  1
  O2-  O161  1  0.76094423  0.87796818  0.75391766  1
  O2-  O162  1  0.22865398  0.15073852  0.29112124  1
  O2-  O163  1  0.23050973  0.11387887  0.79187966  1
  O2-  O164  1  0.21196548  0.43197948  0.28731777  1
  O2-  O165  1  0.22710869  0.44353270  0.75323693  1
  O2-  O166  1  0.22598812  0.77137114  0.30336782  1
  O2-  O167  1  0.23164316  0.77115786  0.79492724  1
  O2-  O168  1  0.55415306  0.11573468  0.28955645  1
  O2-  O169  1  0.55553875  0.10526982  0.76981845  1
  O2-  O170  1  0.56855291  0.45180133  0.28829321  1
  O2-  O171  1  0.56282047  0.44178010  0.77888234  1
  O2-  O172  1  0.56368737  0.78461911  0.28451763  1
  O2-  O173  1  0.52712532  0.76610199  0.73773149  1
  O2-  O174  1  0.92772828  0.13516873  0.27987498  1
  O2-  O175  1  0.86514325  0.09711069  0.77545986  1
  O2-  O176  1  0.91600575  0.50041435  0.29308968  1
  O2-  O177  1  0.88843003  0.44162045  0.77760747  1
  O2-  O178  1  0.88410454  0.78816608  0.28635523  1
  O2-  O179  1  0.89638909  0.76844506  0.78196451  1
  O2-  O180  1  0.21655873  0.10538628  0.47318836  1
  O2-  O181  1  0.21572672  0.08781698  0.97393325  1
  O2-  O182  1  0.22363092  0.43271223  0.49571104  1
  O2-  O183  1  0.18828454  0.40925251  0.93715088  1
  O2-  O184  1  0.19857624  0.76550925  0.49649058  1
  O2-  O185  1  0.23658580  0.77059061  0.96605457  1
  O2-  O186  1  0.57212988  0.12471903  0.47019041  1
  O2-  O187  1  0.54395380  0.08018480  0.94558500  1
  O2-  O188  1  0.55586171  0.43851880  0.46894115  1
  O2-  O189  1  0.56763697  0.43115692  0.96474304  1
  O2-  O190  1  0.55324343  0.76439740  0.47167743  1
  O2-  O191  1  0.47329413  0.75048911  0.92237053  1
  O2-  O192  1  0.90921643  0.12382984  0.45988940  1
  O2-  O193  1  0.86831843  0.09938466  0.95699923  1
  O2-  O194  1  0.88869594  0.44116101  0.46684240  1
  O2-  O195  1  0.89497663  0.47523286  0.96344125  1
  O2-  O196  1  0.88591270  0.78016910  0.47611871  1
  O2-  O197  1  0.89969334  0.77573065  0.96578946  1
  O2-  O198  1  0.13191246  0.22377216  0.06166842  1
  O2-  O199  1  0.11416416  0.22387747  0.53615876  1
  O2-  O200  1  0.11526249  0.55178944  0.02278121  1
  O2-  O201  1  0.10213957  0.53266481  0.53109480  1
  O2-  O202  1  0.11055690  0.86537805  0.02993203  1
  O2-  O203  1  0.09876707  0.88450781  0.53666071  1
  O2-  O204  1  0.43740066  0.23713893  0.04054505  1
  O2-  O205  1  0.44200855  0.21559397  0.53113504  1
  O2-  O206  1  0.49030845  0.56843420  0.05519524  1
  O2-  O207  1  0.43398573  0.53292316  0.53369479  1
  O2-  O208  1  0.42003372  0.88104584  0.05961595  1
  O2-  O209  1  0.46562396  0.90996280  0.50935673  1
  O2-  O210  1  0.73569986  0.18726261  0.03920558  1
  O2-  O211  1  0.78527866  0.22400368  0.53165390  1
  O2-  O212  1  0.77636914  0.54925239  0.03988257  1
  O2-  O213  1  0.77715533  0.55310369  0.52893197  1
  O2-  O214  1  0.89408657  0.95520984  0.05355585  1
  O2-  O215  1  0.78488973  0.89486403  0.52403834  1
