# generated using pymatgen
data_H2O
_symmetry_space_group_name_H-M   'P 1'
_cell_length_a   13.51799681
_cell_length_b   13.51935334
_cell_length_c   14.70916728
_cell_angle_alpha   89.93874263
_cell_angle_beta   90.06214200
_cell_angle_gamma   119.96868513
_symmetry_Int_Tables_number   1
_chemical_formula_structural   H2O
_chemical_formula_sum   'H144 O72'
_cell_volume   2328.75390367
_cell_formula_units_Z   72
loop_
 _symmetry_equiv_pos_site_id
 _symmetry_equiv_pos_as_xyz
  1  'x, y, z'
loop_
 _atom_type_symbol
 _atom_type_oxidation_number
  H+  1.0
  O2-  -2.0
loop_
 _atom_site_type_symbol
 _atom_site_label
 _atom_site_symmetry_multiplicity
 _atom_site_fract_x
 _atom_site_fract_y
 _atom_site_fract_z
 _atom_site_occupancy
  H+  H0  1  0.74079231  0.53728186  0.22043993  1
  H+  H1  1  0.85386594  0.53159248  0.23960895  1
  H+  H2  1  0.47255528  -0.02875572  1.00507942  1
  H+  H3  1  0.59266167  0.42718941  0.79833123  1
  H+  H4  1  0.51115148  1.01853726  0.47477489  1
  H+  H5  1  0.50082283  0.15879278  0.73930055  1
  H+  H6  1  0.20041209  0.10370182  0.39555463  1
  H+  H7  1  0.14797621  0.15805176  0.23205369  1
  H+  H8  1  0.50386091  0.34400339  0.50400276  1
  H+  H9  1  0.81562644  0.95014318  0.74061952  1
  H+  H10  1  0.17552276  0.47181746  0.77679948  1
  H+  H11  1  0.88571121  0.10794273  0.38260682  1
  H+  H12  1  0.68763888  0.18459795  0.74160688  1
  H+  H13  1  0.48774106  0.49653787  0.54250270  1
  H+  H14  1  0.87671678  0.79354480  0.98921152  1
  H+  H15  1  0.68945382  0.83002815  0.51185357  1
  H+  H16  1  0.49403501  0.48720264  0.26668722  1
  H+  H17  1  0.30800142  0.80906737  -0.00524599  1
  H+  H18  1  0.29693285  0.49219501  0.99937389  1
  H+  H19  1  0.48679866  0.20200299  0.00875221  1
  H+  H20  1  0.54727371  0.11328653  0.88067309  1
  H+  H21  1  0.17983440  0.35690724  0.77783444  1
  H+  H22  1  0.64079392  0.82121238  0.25555793  1
  H+  H23  1  0.82554144  0.86300199  0.22246763  1
  H+  H24  1  0.17242058  0.67080297  0.76625222  1
  H+  H25  1  0.48690541  0.17287379  0.50878340  1
  H+  H26  1  0.17347393  0.85041734  1.00530108  1
  H+  H27  1  0.52290590  0.52890125  0.68290439  1
  H+  H28  1  0.33894158  0.17268638  0.74246835  1
  H+  H29  1  0.83203296  0.48907476  -0.00036322  1
  H+  H30  1  0.13543501  0.62306359  0.53327844  1
  H+  H31  1  0.01773245  0.15907420  0.23146695  1
  H+  H32  1  0.60196516  0.48288868  0.30636726  1
  H+  H33  1  0.15561309  1.03244826  0.78394000  1
  H+  H34  1  0.36741970  0.52437888  0.24959162  1
  H+  H35  1  0.32129425  0.50748912  0.51030671  1
  H+  H36  1  0.15135252  0.17786466  0.51780161  1
  H+  H37  1  0.80528410  0.94990369  0.51981414  1
  H+  H38  1  0.16543912  0.63588814  0.01512688  1
  H+  H39  1  0.17081213  1.02784215  0.48511724  1
  H+  H40  1  0.68529828  0.48882522  0.50082970  1
  H+  H41  1  0.45309053  0.91147576  0.82428068  1
  H+  H42  1  0.79351478  0.86984265  0.99209591  1
  H+  H43  1  0.49663839  0.38560365  1.00040700  1
  H+  H44  1  0.64203446  0.80920012  0.76565865  1
  H+  H45  1  0.16161328  0.50594716  0.01215832  1
  H+  H46  1  0.16066512  0.63614170  0.23372331  1
  H+  H47  1  0.51423665  0.79445241  0.48491167  1
  H+  H48  1  0.15182735  0.18429721  0.01039923  1
  H+  H49  1  0.29763024  0.15436824  0.25204038  1
  H+  H50  1  0.81289875  0.17289259  0.50402164  1
  H+  H51  1  0.86165068  0.82018186  0.76054317  1
  H+  H52  1  0.50940771  0.04386931  0.73387067  1
  H+  H53  1  0.48473332  0.84380697  0.23972255  1
  H+  H54  1  0.85448524  0.15287423  0.24835613  1
  H+  H55  1  0.85744681  0.81973733  0.48397320  1
  H+  H56  1  0.36625341  0.19421769  0.01514228  1
  H+  H57  1  0.96278640  0.21646141  0.43614772  1
  H+  H58  1  0.22355940  0.12113291  0.90996632  1
  H+  H59  1  0.44974248  0.29441777  0.73187406  1
  H+  H60  1  0.02802269  0.85083855  0.50530430  1
  H+  H61  1  0.84921038  0.35833630  0.48448187  1
  H+  H62  1  0.31551643  0.81543317  0.24119513  1
  H+  H63  1  0.98881413  0.84195091  0.24611521  1
  H+  H64  1  0.96619132  0.14832742  0.97929395  1
  H+  H65  1  0.50116580  0.61866418  0.55177252  1
  H+  H66  1  0.77857010  0.90207588  0.13456029  1
  H+  H67  1  0.71061429  0.56007224  0.71178607  1
  H+  H68  1  0.83910968  0.65162498  0.72629794  1
  H+  H69  1  0.16526051  0.85289419  0.23022047  1
  H+  H70  1  0.18376963  0.02962072  0.24560740  1
  H+  H71  1  0.73318429  0.14367367  0.07288663  1
  H+  H72  1  0.84253280  0.02583623  0.24103068  1
  H+  H73  1  0.84198383  0.49470302  0.75440965  1
  H+  H74  1  0.46888563  0.30217529  0.24966905  1
  H+  H75  1  0.98586392  0.82886806  0.75862495  1
  H+  H76  1  0.19253814  0.03766399  0.99510019  1
  H+  H77  1  0.15927079  0.82776450  0.74984518  1
  H+  H78  1  0.05554899  0.84749613  -0.00105373  1
  H+  H79  1  0.19773797  0.48521316  0.26556913  1
  H+  H80  1  0.78486008  0.22015598  0.81233161  1
  H+  H81  1  0.87424612  0.72441244  0.24872652  1
  H+  H82  1  0.82651667  0.34172044  -0.01746519  1
  H+  H83  1  0.71214600  0.20893345  0.24718479  1
  H+  H84  1  1.03099576  0.17568926  0.74162985  1
  H+  H85  1  0.62961163  0.13471429  0.48918410  1
  H+  H86  1  0.14957293  0.30285971  0.01459493  1
  H+  H87  1  0.02356772  0.50820690  0.75086441  1
  H+  H88  1  0.29358899  0.79060137  0.77102062  1
  H+  H89  1  0.10226995  0.88107816  0.59921433  1
  H+  H90  1  0.52373024  0.70131330  0.26027608  1
  H+  H91  1  0.83881344  0.37461044  0.75305559  1
  H+  H92  1  0.53801663  0.17885997  0.25840651  1
  H+  H93  1  0.47478849  0.65808422  1.01882902  1
  H+  H94  1  0.84048425  0.02516193  0.98673445  1
  H+  H95  1  0.48882224  0.86113239  0.00969304  1
  H+  H96  1  0.16191947  0.81186655  0.50224982  1
  H+  H97  1  0.34837184  0.82828646  0.49351066  1
  H+  H98  1  0.81931006  0.16298556  0.99274422  1
  H+  H99  1  0.86433173  0.38000012  0.26643087  1
  H+  H100  1  1.03347473  0.17076601  0.53135002  1
  H+  H101  1  0.20946232  0.95255923  0.71314682  1
  H+  H102  1  0.56681742  0.80039395  0.91270007  1
  H+  H103  1  0.20821564  0.51461425  0.50000956  1
  H+  H104  1  0.64636387  0.85495715  1.00146505  1
  H+  H105  1  1.04038957  0.51879555  0.24026529  1
  H+  H106  1  0.12043203  0.55179935  0.10908808  1
  H+  H107  1  0.62893582  0.14103604  0.96628788  1
  H+  H108  1  0.84167263  0.47317820  0.48576749  1
  H+  H109  1  0.47071268  0.53733814  0.01583158  1
  H+  H110  1  0.48752623  0.84237759  0.76160332  1
  H+  H111  1  0.16900698  0.15622381  0.76781306  1
  H+  H112  1  0.10380711  0.20750134  0.13843407  1
  H+  H113  1  0.52664904  0.69393195  0.78389584  1
  H+  H114  1  0.90881437  0.76776791  0.89079074  1
  H+  H115  1  0.78089327  0.21333188  0.59547671  1
  H+  H116  1  0.13724651  0.71922173  0.42751090  1
  H+  H117  1  0.77210776  0.86531366  0.65476505  1
  H+  H118  1  0.84741795  0.62684310  0.99714271  1
  H+  H119  1  0.02273739  0.50234795  0.52093615  1
  H+  H120  1  0.88668189  0.09591246  0.84340187  1
  H+  H121  1  0.51305770  0.45609016  0.91076948  1
  H+  H122  1  0.44267403  0.23136877  0.15693887  1
  H+  H123  1  0.43320390  0.20402944  0.59439574  1
  H+  H124  1  0.57634284  0.13258934  0.34357229  1
  H+  H125  1  0.81627434  0.55940783  0.09633589  1
  H+  H126  1  0.22193085  0.75675969  0.90769794  1
  H+  H127  1  0.11853787  0.22057883  0.65689323  1
  H+  H128  1  0.12919601  0.89372022  0.14009987  1
  H+  H129  1  0.44819270  0.88804818  0.15088110  1
  H+  H130  1  0.91030258  0.80580000  0.39088141  1
  H+  H131  1  0.25331094  0.47542361  0.35745129  1
  H+  H132  1  0.10242850  0.53807219  0.66283640  1
  H+  H133  1  0.42926046  0.86948208  0.57794492  1
  H+  H134  1  0.44350746  0.56622370  0.15717415  1
  H+  H135  1  0.24180644  0.78637186  0.33047339  1
  H+  H136  1  0.51638151  0.42654476  0.42153019  1
  H+  H137  1  0.86654652  0.42722756  0.89397193  1
  H+  H138  1  0.78035260  0.54994430  0.57660977  1
  H+  H139  1  0.21413127  0.44003345  0.90912735  1
  H+  H140  1  0.84585892  0.12767016  0.75109505  1
  H+  H141  1  0.90329969  0.45902421  0.35503230  1
  H+  H142  1  0.80158153  0.26294861  0.16221944  1
  H+  H143  1  0.56515485  0.76360988  0.40086625  1
  O2-  O144  1  0.10016790  0.19665787  0.20809334  1
  O2-  O145  1  0.11381672  0.21955226  0.72664190  1
  O2-  O146  1  0.11823818  0.55480028  0.21204688  1
  O2-  O147  1  0.10458351  0.54220520  0.73143199  1
  O2-  O148  1  0.12644761  0.89501230  0.20809266  1
  O2-  O149  1  0.13620314  0.88385425  0.72500126  1
  O2-  O150  1  0.43598159  0.22343034  0.22446046  1
  O2-  O151  1  0.41769921  0.21276426  0.71626808  1
  O2-  O152  1  0.44977976  0.56432743  0.22475205  1
  O2-  O153  1  0.57428819  0.54290820  0.73766080  1
  O2-  O154  1  0.43903374  0.87834006  0.21766536  1
  O2-  O155  1  0.44386630  0.88463721  0.76144987  1
  O2-  O156  1  0.79839751  0.24517355  0.22687006  1
  O2-  O157  1  0.77335829  0.21998293  0.74663754  1
  O2-  O158  1  0.82164419  0.57549303  0.20496494  1
  O2-  O159  1  0.78919380  0.57235836  0.70384931  1
  O2-  O160  1  0.77926399  0.89848447  0.20403158  1
  O2-  O161  1  0.77555692  0.86732156  0.72317442  1
  O2-  O162  1  0.21321941  0.11027287  0.26695037  1
  O2-  O163  1  0.20839663  0.11358953  0.79500102  1
  O2-  O164  1  0.24633972  0.45694721  0.29096723  1
  O2-  O165  1  0.21451961  0.43413769  0.80566796  1
  O2-  O166  1  0.23090099  0.77610944  0.26480144  1
  O2-  O167  1  0.21242843  0.75249481  0.79083814  1
  O2-  O168  1  0.59302730  0.15494966  0.27848342  1
  O2-  O169  1  0.54883223  0.12327527  0.75604512  1
  O2-  O170  1  0.52004290  0.43585331  0.29781052  1
  O2-  O171  1  0.52360883  0.43208223  0.78664687  1
  O2-  O172  1  0.56408170  0.78143075  0.28478092  1
  O2-  O173  1  0.56315985  0.77648651  0.79261510  1
  O2-  O174  1  0.89017728  0.10669227  0.26700834  1
  O2-  O175  1  0.88641565  0.08934114  0.77442416  1
  O2-  O176  1  0.90604769  0.46233591  0.28608984  1
  O2-  O177  1  0.87769336  0.45141735  0.78126333  1
  O2-  O178  1  0.90760995  0.80500778  0.26719782  1
  O2-  O179  1  0.90740274  0.78412882  0.78257668  1
  O2-  O180  1  0.19586837  0.10544380  0.46220265  1
  O2-  O181  1  0.22617174  0.11982496  0.97802960  1
  O2-  O182  1  0.27360131  0.51956115  0.46629673  1
  O2-  O183  1  0.21459185  0.44412336  0.97984092  1
  O2-  O184  1  0.19149140  0.76036176  0.47619147  1
  O2-  O185  1  0.22466962  0.76125142  0.97577299  1
  O2-  O186  1  0.55309153  0.10104283  0.46025329  1
  O2-  O187  1  0.54801057  0.10990846  0.94809300  1
  O2-  O188  1  0.53826020  0.42823740  0.48585995  1
  O2-  O189  1  0.52651784  0.46416871  0.97683207  1
  O2-  O190  1  0.56217153  0.76079433  0.46924866  1
  O2-  O191  1  0.56243611  0.80641406  0.97956764  1
  O2-  O192  1  0.90204309  0.13785568  0.44681683  1
  O2-  O193  1  0.88762865  0.10957857  0.95384564  1
  O2-  O194  1  0.89235045  0.43973221  0.46630320  1
  O2-  O195  1  0.86645203  0.42232053  0.96235877  1
  O2-  O196  1  0.91171078  0.79869328  0.45784775  1
  O2-  O197  1  0.91442519  0.75710126  0.95902430  1
  O2-  O198  1  0.10743143  0.22058913  0.03369177  1
  O2-  O199  1  0.11319947  0.21608931  0.55034291  1
  O2-  O200  1  0.12359055  0.55323732  0.03841102  1
  O2-  O201  1  0.09976230  0.54161766  0.55100436  1
  O2-  O202  1  0.13412561  0.89364415  0.02332811  1
  O2-  O203  1  0.10900867  0.88473228  0.53256560  1
  O2-  O204  1  0.44708817  0.23866991  0.03708245  1
  O2-  O205  1  0.44993108  0.21654250  0.52897201  1
  O2-  O206  1  0.42961855  0.57747725  0.03970899  1
  O2-  O207  1  0.46420877  0.54313589  0.58136733  1
  O2-  O208  1  0.43761544  0.89260942  0.02988651  1
  O2-  O209  1  0.42985515  0.86775260  0.51168887  1
  O2-  O210  1  0.76729593  0.19212308  0.01956783  1
  O2-  O211  1  0.77094822  0.21014301  0.52957803  1
  O2-  O212  1  0.80580306  0.54933810  0.02774163  1
  O2-  O213  1  0.76929513  0.52770167  0.51204660  1
  O2-  O214  1  0.77491242  0.91932838  0.02684680  1
  O2-  O215  1  0.76944311  0.87041884  0.53948271  1
