# generated using pymatgen
data_H2O
_symmetry_space_group_name_H-M   'P 1'
_cell_length_a   13.51363147
_cell_length_b   13.50788153
_cell_length_c   14.64977423
_cell_angle_alpha   89.97700878
_cell_angle_beta   90.01577747
_cell_angle_gamma   120.00841357
_symmetry_Int_Tables_number   1
_chemical_formula_structural   H2O
_chemical_formula_sum   'H144 O72'
_cell_volume   2315.70916686
_cell_formula_units_Z   72
loop_
 _symmetry_equiv_pos_site_id
 _symmetry_equiv_pos_as_xyz
  1  'x, y, z'
loop_
 _atom_type_symbol
 _atom_type_oxidation_number
  H+  1.0
  O2-  -2.0
loop_
 _atom_site_type_symbol
 _atom_site_label
 _atom_site_symmetry_multiplicity
 _atom_site_fract_x
 _atom_site_fract_y
 _atom_site_fract_z
 _atom_site_occupancy
  H+  H0  1  0.48352416  0.18352199  0.50721664  1
  H+  H1  1  0.92079224  0.77706943  0.73644861  1
  H+  H2  1  0.82091376  1.02737439  0.46963030  1
  H+  H3  1  0.80511771  0.21923742  0.10615832  1
  H+  H4  1  0.37061151  0.51851631  1.01483054  1
  H+  H5  1  0.61611722  0.79749142  0.75394843  1
  H+  H6  1  0.85452574  0.45194616  0.51256208  1
  H+  H7  1  0.80972732  0.85900713  0.73234129  1
  H+  H8  1  0.50006279  0.17994245  0.01955493  1
  H+  H9  1  0.80740773  0.94744900  0.28359772  1
  H+  H10  1  0.84400675  0.29749481  0.26002077  1
  H+  H11  1  1.00693751  0.18854582  0.51096891  1
  H+  H12  1  0.51085907  0.95484554  0.67615527  1
  H+  H13  1  0.17747070  0.16520437  0.97629231  1
  H+  H14  1  0.85631444  0.15355846  0.33887199  1
  H+  H15  1  0.72137243  0.59159869  0.46635130  1
  H+  H16  1  0.69013359  0.50237762  0.25634710  1
  H+  H17  1  -0.00705947  0.17920493  -0.02273794  1
  H+  H18  1  0.53018766  0.32240668  0.73382482  1
  H+  H19  1  0.59531183  0.80328491  0.49215506  1
  H+  H20  1  0.20534456  0.00338927  1.01763620  1
  H+  H21  1  0.48475225  0.84127734  0.72858744  1
  H+  H22  1  0.49122108  0.68408819  0.76415010  1
  H+  H23  1  0.05494135  0.50591673  0.74095688  1
  H+  H24  1  -0.01384132  0.83085880  0.08345797  1
  H+  H25  1  0.44478901  0.51135695  0.52665110  1
  H+  H26  1  0.51224912  0.36876643  0.26689543  1
  H+  H27  1  0.30978134  0.17410185  0.26322229  1
  H+  H28  1  0.61425494  0.79588600  0.28766962  1
  H+  H29  1  0.91971609  0.94363502  0.00037195  1
  H+  H30  1  0.78290779  0.62959513  0.94697716  1
  H+  H31  1  0.61864322  0.49155343  0.76508171  1
  H+  H32  1  0.68523134  0.48686250  0.02095729  1
  H+  H33  1  0.19210038  0.49469070  -0.01470539  1
  H+  H34  1  0.16699643  0.62834324  0.72921919  1
  H+  H35  1  0.52333754  0.75938417  0.39484443  1
  H+  H36  1  0.79797735  0.96882387  0.73332316  1
  H+  H37  1  0.98049172  0.49075699  0.99186266  1
  H+  H38  1  0.10750319  0.09587256  0.74879233  1
  H+  H39  1  0.23380201  0.50588250  0.74146893  1
  H+  H40  1  0.53103536  0.03233549  0.26800401  1
  H+  H41  1  0.58140389  0.12598471  0.91378190  1
  H+  H42  1  0.14130217  0.63851016  0.25565837  1
  H+  H43  1  0.19841583  0.88575417  0.00896412  1
  H+  H44  1  0.29066723  0.82058688  0.42729911  1
  H+  H45  1  0.79994393  0.27617926  0.56114542  1
  H+  H46  1  0.83659334  0.46016619  0.27862188  1
  H+  H47  1  0.48572457  0.51377101  0.01680443  1
  H+  H48  1  0.12892325  0.92997571  0.70065535  1
  H+  H49  1  0.18835181  0.65422727  0.03053804  1
  H+  H50  1  0.45137929  0.63469518  0.52733044  1
  H+  H51  1  0.18224486  0.79973517  0.72400645  1
  H+  H52  1  0.55318408  0.17871947  0.75920994  1
  H+  H53  1  0.52557067  0.87695740  0.03658303  1
  H+  H54  1  0.86375845  0.17316910  0.98364357  1
  H+  H55  1  0.18541637  0.16305738  0.25574795  1
  H+  H56  1  0.11640876  0.81607552  0.44208378  1
  H+  H57  1  0.70352484  0.18100436  0.71419665  1
  H+  H58  1  0.91264951  0.65589481  0.52876567  1
  H+  H59  1  0.86243104  0.36584906  0.74721483  1
  H+  H60  1  0.27990875  0.18683971  0.91101551  1
  H+  H61  1  0.94693838  0.42009651  0.50319718  1
  H+  H62  1  0.87091866  0.36670547  0.99544472  1
  H+  H63  1  0.87612489  0.41566778  0.36631664  1
  H+  H64  1  1.02446644  0.51773847  0.25173182  1
  H+  H65  1  0.37103776  0.14948614  0.02623407  1
  H+  H66  1  0.16929145  1.01468035  0.47471205  1
  H+  H67  1  0.71989777  0.19132094  0.01983150  1
  H+  H68  1  0.30189548  0.81171906  0.75009177  1
  H+  H69  1  0.12791873  0.30625742  0.51078495  1
  H+  H70  1  0.80775671  0.49515704  1.01472837  1
  H+  H71  1  0.78225175  0.59754371  0.79353096  1
  H+  H72  1  0.08363834  0.69409668  0.95091926  1
  H+  H73  1  0.46909013  0.35570451  0.49514159  1
  H+  H74  1  0.69422581  0.55053586  0.50521752  1
  H+  H75  1  0.09892864  0.53169406  0.60411391  1
  H+  H76  1  0.29410474  0.11099632  0.74262066  1
  H+  H77  1  0.84871860  0.79897763  0.28446135  1
  H+  H78  1  0.19547579  0.99388245  0.25297250  1
  H+  H79  1  0.50815119  0.04620403  0.78193001  1
  H+  H80  1  0.84763025  0.67975401  0.28035282  1
  H+  H81  1  0.81557444  0.13548254  0.49978090  1
  H+  H82  1  0.11763181  0.56940072  0.10995034  1
  H+  H83  1  0.20887012  0.84541603  0.27494637  1
  H+  H84  1  0.79800985  0.84498710  0.50806258  1
  H+  H85  1  0.48060166  0.63971473  0.25770250  1
  H+  H86  1  0.51288534  0.69798740  0.99381943  1
  H+  H87  1  0.24119591  0.46170681  0.89697580  1
  H+  H88  1  0.14457746  0.30956650  0.21453516  1
  H+  H89  1  0.98770235  0.80374293  1.03905915  1
  H+  H90  1  0.31283404  0.79712003  0.96666056  1
  H+  H91  1  0.35843503  0.14538258  0.74421159  1
  H+  H92  1  0.55768925  1.05488689  0.00987142  1
  H+  H93  1  -0.02340812  0.16403756  0.74992428  1
  H+  H94  1  0.16284778  0.47570507  0.48544872  1
  H+  H95  1  0.15215164  0.31068343  1.00547689  1
  H+  H96  1  0.49243067  0.18678448  0.25186873  1
  H+  H97  1  0.27742302  0.47505888  0.49474008  1
  H+  H98  1  0.50301731  0.34945996  -0.00206486  1
  H+  H99  1  0.65155177  0.14786783  0.26372155  1
  H+  H100  1  0.49572609  0.03121969  0.47544230  1
  H+  H101  1  0.49251760  0.47431514  0.76786671  1
  H+  H102  1  0.16725222  0.29204168  0.73013520  1
  H+  H103  1  0.87182658  0.89516209  0.97474677  1
  H+  H104  1  0.05874760  0.58570923  0.52793011  1
  H+  H105  1  0.36613393  0.84703251  -0.01416021  1
  H+  H106  1  0.69205958  0.86491715  0.04448729  1
  H+  H107  1  0.38126946  0.85278624  0.26101601  1
  H+  H108  1  0.09833298  0.22173031  0.63911928  1
  H+  H109  1  0.16357557  0.76955787  0.87053836  1
  H+  H110  1  0.39020930  0.86618547  0.55764407  1
  H+  H111  1  0.50468439  0.43804921  0.40844483  1
  H+  H112  1  0.75429055  0.88532315  0.59183026  1
  H+  H113  1  0.54724194  0.77817619  0.90555048  1
  H+  H114  1  0.86096329  0.58557054  0.62053216  1
  H+  H115  1  0.51379385  0.48925352  0.26312193  1
  H+  H116  1  0.22726043  0.11663936  0.40658254  1
  H+  H117  1  0.97942994  0.90046140  0.77887749  1
  H+  H118  1  0.77118248  0.53523952  0.16865838  1
  H+  H119  1  0.54487394  0.43427936  0.91142482  1
  H+  H120  1  0.39367860  0.53848644  0.66057409  1
  H+  H121  1  0.36075640  0.17056716  0.52138711  1
  H+  H122  1  0.29973405  0.48393756  0.23430671  1
  H+  H123  1  0.56134302  0.12472324  0.40123426  1
  H+  H124  1  0.20113576  0.93127378  0.16137335  1
  H+  H125  1  0.45616330  0.83632807  0.48259286  1
  H+  H126  1  0.82882114  0.73433249  0.87552402  1
  H+  H127  1  0.10882646  0.86225050  0.60683748  1
  H+  H128  1  0.45444983  0.56863986  0.16193939  1
  H+  H129  1  0.49356145  0.83735981  0.26770449  1
  H+  H130  1  0.90466334  0.14156447  0.87897215  1
  H+  H131  1  0.90105518  0.43351236  0.84255276  1
  H+  H132  1  0.02042311  0.19826152  0.22469594  1
  H+  H133  1  0.85694030  0.16261389  0.74312518  1
  H+  H134  1  0.68154560  0.95568557  0.09685367  1
  H+  H135  1  0.13576720  0.04820883  0.83823330  1
  H+  H136  1  0.50000624  0.24554187  0.64297910  1
  H+  H137  1  0.81090378  0.50736750  0.75186327  1
  H+  H138  1  0.45317949  0.22168347  0.16154260  1
  H+  H139  1  0.10019322  0.22330576  0.09293518  1
  H+  H140  1  0.76153793  0.88909754  0.18841291  1
  H+  H141  1  0.93675064  0.77801913  0.39785902  1
  H+  H142  1  0.49993090  0.91978358  0.13281226  1
  H+  H143  1  0.18126548  0.48631180  0.23473954  1
  O2-  O144  1  0.09708530  0.22318703  0.19972385  1
  O2-  O145  1  0.10698655  0.21612858  0.71023638  1
  O2-  O146  1  0.10109868  0.56382763  0.22359206  1
  O2-  O147  1  0.13334481  0.54484394  0.71420992  1
  O2-  O148  1  0.18101141  0.91908810  0.22759387  1
  O2-  O149  1  0.11369972  0.85670800  0.67370689  1
  O2-  O150  1  0.45164028  0.22633921  0.22918447  1
  O2-  O151  1  0.54244112  0.26445969  0.70257552  1
  O2-  O152  1  0.44633667  0.55864863  0.22899628  1
  O2-  O153  1  0.39543607  0.53427922  0.73285144  1
  O2-  O154  1  0.46256453  0.89108098  0.24288992  1
  O2-  O155  1  0.44887914  0.88556416  0.70326402  1
  O2-  O156  1  0.80771656  0.21600781  0.23400497  1
  O2-  O157  1  0.78343661  0.22104329  0.68969617  1
  O2-  O158  1  0.77214440  0.53364476  0.23648532  1
  O2-  O159  1  0.77620034  0.55430220  0.73563040  1
  O2-  O160  1  0.77455228  0.87332085  0.25367247  1
  O2-  O161  1  0.75881309  0.88908872  0.71110765  1
  O2-  O162  1  0.22857543  0.12958931  0.28379293  1
  O2-  O163  1  0.10215503  0.02566926  0.77668711  1
  O2-  O164  1  0.21533404  0.43770140  0.22409646  1
  O2-  O165  1  0.27573980  0.46756139  0.76718064  1
  O2-  O166  1  0.23040975  0.78356804  0.30127756  1
  O2-  O167  1  0.21913635  0.76456279  0.76191239  1
  O2-  O168  1  0.57084157  0.11692071  0.28085103  1
  O2-  O169  1  0.57354924  0.12254372  0.79236350  1
  O2-  O170  1  0.55340711  0.44908660  0.28936587  1
  O2-  O171  1  0.54072648  0.44355859  0.79053783  1
  O2-  O172  1  0.53220156  0.75982395  0.30129842  1
  O2-  O173  1  0.53771143  0.76660370  0.77918381  1
  O2-  O174  1  0.87484605  0.16657349  0.27182193  1
  O2-  O175  1  0.89618378  0.12694819  0.77590136  1
  O2-  O176  1  0.88324006  0.42466582  0.29850765  1
  O2-  O177  1  0.90734783  0.44232119  0.77503287  1
  O2-  O178  1  0.89023117  0.75920510  0.30428655  1
  O2-  O179  1  0.90496536  0.82670509  0.77486847  1
  O2-  O180  1  0.22498059  0.09671865  0.47186554  1
  O2-  O181  1  0.21559630  0.12695605  0.94472619  1
  O2-  O182  1  0.20062204  0.43249700  0.46702201  1
  O2-  O183  1  0.22710626  0.44953448  0.96350132  1
  O2-  O184  1  0.21092091  0.77853937  0.40044338  1
  O2-  O185  1  0.12653285  0.77222080  0.92855419  1
  O2-  O186  1  0.54612730  0.11466857  0.46777042  1
  O2-  O187  1  0.58665699  0.13311863  0.98180024  1
  O2-  O188  1  0.47851466  0.42931489  0.47256422  1
  O2-  O189  1  0.54480844  0.43126786  0.97953940  1
  O2-  O190  1  0.51586169  0.76346232  0.46998645  1
  O2-  O191  1  0.54967753  0.77915578  0.97299181  1
  O2-  O192  1  0.85185660  0.10929958  0.45464742  1
  O2-  O193  1  0.91055178  0.14351231  0.94993012  1
  O2-  O194  1  0.86398134  0.38803961  0.48805594  1
  O2-  O195  1  0.90280630  0.44350263  0.96658668  1
  O2-  O196  1  0.95684002  0.78419478  0.46868552  1
  O2-  O197  1  0.76750333  0.65605131  0.88851741  1
  O2-  O198  1  0.10668511  0.22788696  0.02241570  1
  O2-  O199  1  0.08179780  0.22862832  0.54100106  1
  O2-  O200  1  0.12957361  0.57467815  0.04141117  1
  O2-  O201  1  0.07927165  0.52660414  0.53755772  1
  O2-  O202  1  0.23274038  0.95626266  0.04695857  1
  O2-  O203  1  0.08139748  0.85361293  0.47934377  1
  O2-  O204  1  0.44883870  0.20975412  0.04090209  1
  O2-  O205  1  0.44308758  0.22074001  0.53740913  1
  O2-  O206  1  0.45071026  0.56022991  0.03646328  1
  O2-  O207  1  0.41395179  0.55765246  0.55803882  1
  O2-  O208  1  0.53956891  0.94567771  0.07205590  1
  O2-  O209  1  0.40949362  0.87695606  0.49272642  1
  O2-  O210  1  0.80294307  0.22611166  0.03872986  1
  O2-  O211  1  0.76635433  0.19815593  0.59110614  1
  O2-  O212  1  0.76681066  0.53221349  0.04077087  1
  O2-  O213  1  0.89895478  0.58656251  0.56292794  1
  O2-  O214  1  0.73573808  0.92731175  0.08826364  1
  O2-  O215  1  0.75455501  0.88261232  0.52354789  1
