# generated using pymatgen
data_H2O
_symmetry_space_group_name_H-M   'P 1'
_cell_length_a   13.51049576
_cell_length_b   13.52968433
_cell_length_c   14.70097144
_cell_angle_alpha   89.93774388
_cell_angle_beta   90.08082064
_cell_angle_gamma   119.97761940
_symmetry_Int_Tables_number   1
_chemical_formula_structural   H2O
_chemical_formula_sum   'H144 O72'
_cell_volume   2327.73233552
_cell_formula_units_Z   72
loop_
 _symmetry_equiv_pos_site_id
 _symmetry_equiv_pos_as_xyz
  1  'x, y, z'
loop_
 _atom_type_symbol
 _atom_type_oxidation_number
  H+  1.0
  O2-  -2.0
loop_
 _atom_site_type_symbol
 _atom_site_label
 _atom_site_symmetry_multiplicity
 _atom_site_fract_x
 _atom_site_fract_y
 _atom_site_fract_z
 _atom_site_occupancy
  H+  H0  1  0.94108361  0.15883668  0.27660841  1
  H+  H1  1  0.85345873  0.67142927  0.30972009  1
  H+  H2  1  0.88236642  0.37003145  0.76263417  1
  H+  H3  1  0.81300416  0.17105340  0.00641922  1
  H+  H4  1  0.16662323  0.33294253  0.24886948  1
  H+  H5  1  0.79438359  0.93282753  0.73853789  1
  H+  H6  1  0.15637281  0.51907577  0.02444824  1
  H+  H7  1  0.17799946  0.69739357  0.99799771  1
  H+  H8  1  0.47947419  0.17652239  0.01710545  1
  H+  H9  1  0.47936689  0.29973254  0.24379204  1
  H+  H10  1  0.63390746  0.16474735  0.25570516  1
  H+  H11  1  0.85250528  0.80734703  0.76339928  1
  H+  H12  1  0.96935568  0.79514987  0.46419450  1
  H+  H13  1  0.69919347  0.19839224  0.50247532  1
  H+  H14  1  0.82426230  0.62477492  0.00560227  1
  H+  H15  1  0.85963912  0.47317017  0.99201254  1
  H+  H16  1  0.62040595  0.11556860  0.76685091  1
  H+  H17  1  0.48608431  0.86469392  0.49399763  1
  H+  H18  1  0.18646491  0.13724479  0.46775069  1
  H+  H19  1  0.03308696  0.50795675  0.02340954  1
  H+  H20  1  0.51363691  0.03712769  0.47934161  1
  H+  H21  1  0.17194547  0.53525351  0.74042686  1
  H+  H22  1  0.44639587  0.81964479  0.23486467  1
  H+  H23  1  0.14175466  0.30073152  0.47286474  1
  H+  H24  1  0.48057090  0.29737194  0.50838600  1
  H+  H25  1  0.11369285  0.53594938  0.16077181  1
  H+  H26  1  0.33233267  0.85241929  0.23513391  1
  H+  H27  1  0.02661671  0.20620662  0.77695900  1
  H+  H28  1  0.47538569  0.48109964  0.76956229  1
  H+  H29  1  0.63389435  0.47868360  0.48638129  1
  H+  H30  1  0.84549426  0.00622360  0.48038523  1
  H+  H31  1  0.50670921  0.60516287  0.03174330  1
  H+  H32  1  0.88529056  0.09590133  0.70432836  1
  H+  H33  1  0.70699102  0.85815074  0.22927409  1
  H+  H34  1  0.17407956  0.81356713  0.99456999  1
  H+  H35  1  0.32076458  0.47895605  0.00383320  1
  H+  H36  1  0.47558377  0.50154579  0.25332114  1
  H+  H37  1  0.78492129  0.55026522  0.09625228  1
  H+  H38  1  0.29352085  0.12937003  0.25380339  1
  H+  H39  1  0.80069505  0.30974985  0.21654728  1
  H+  H40  1  -0.03696522  0.13641098  0.47666788  1
  H+  H41  1  0.50182430  0.68469638  0.76167274  1
  H+  H42  1  0.81997393  0.83286315  0.48088066  1
  H+  H43  1  0.18096719  0.38063511  0.79711913  1
  H+  H44  1  0.81863835  0.29185538  0.00630838  1
  H+  H45  1  0.31081894  0.48714448  0.79228618  1
  H+  H46  1  0.49101486  0.48359796  1.01468203  1
  H+  H47  1  0.81855779  0.31568572  0.50832913  1
  H+  H48  1  -0.03086164  0.80681654  -0.00602421  1
  H+  H49  1  0.85775605  0.50029729  0.50353633  1
  H+  H50  1  0.35815461  0.83618922  0.73282030  1
  H+  H51  1  0.11188118  0.87509573  0.10794482  1
  H+  H52  1  0.34746141  0.85196102  1.00791774  1
  H+  H53  1  0.76811643  0.23092896  0.63539558  1
  H+  H54  1  0.82746582  0.17009526  0.27149319  1
  H+  H55  1  0.19144281  0.16232323  0.78168078  1
  H+  H56  1  0.04502639  0.53399332  0.51690541  1
  H+  H57  1  0.49762828  0.73695185  0.97568073  1
  H+  H58  1  0.14892906  -0.03612134  1.02374880  1
  H+  H59  1  0.18730535  0.70235523  0.76031375  1
  H+  H60  1  0.51161162  0.15570430  0.48203023  1
  H+  H61  1  0.22729325  0.43524510  0.56347730  1
  H+  H62  1  0.68645691  0.62018136  0.68054455  1
  H+  H63  1  0.64352802  0.47242270  0.99339021  1
  H+  H64  1  0.03232479  0.49410208  0.24979805  1
  H+  H65  1  0.72526865  0.26947268  0.72300079  1
  H+  H66  1  0.99222912  0.49193487  0.76439825  1
  H+  H67  1  0.16373834  0.65089054  0.50117605  1
  H+  H68  1  0.55520924  0.12278149  0.35676653  1
  H+  H69  1  0.29773605  0.82521847  0.47595765  1
  H+  H70  1  0.19489695  0.35598723  -0.00100771  1
  H+  H71  1  0.84767624  0.51518077  0.23842242  1
  H+  H72  1  0.13938499  0.94940667  0.50212809  1
  H+  H73  1  -0.02383456  0.14853977  -0.01826712  1
  H+  H74  1  0.36972585  0.53328826  0.48383714  1
  H+  H75  1  0.44359135  0.20978072  0.65026279  1
  H+  H76  1  0.82415257  0.95930300  -0.00142623  1
  H+  H77  1  0.89168766  0.10515437  0.89709151  1
  H+  H78  1  0.51868598  0.48427937  0.47803001  1
  H+  H79  1  0.28974134  0.45364185  0.25439779  1
  H+  H80  1  0.62961421  0.14703777  0.99148056  1
  H+  H81  1  0.47699068  -0.05018643  0.73584949  1
  H+  H82  1  0.52157709  0.72104725  0.45686491  1
  H+  H83  1  0.47753188  0.16316413  0.73916058  1
  H+  H84  1  0.44112204  0.89268299  0.58569733  1
  H+  H85  1  0.17326927  0.81428383  0.48329744  1
  H+  H86  1  0.67888729  0.82072988  0.72704480  1
  H+  H87  1  0.47490717  0.86962314  0.00489311  1
  H+  H88  1  0.70124142  0.85011117  0.99509855  1
  H+  H89  1  0.02624506  0.82634588  0.72623447  1
  H+  H90  1  0.83554315  0.16279919  0.75335753  1
  H+  H91  1  0.48225045  0.29485232  0.01914131  1
  H+  H92  1  0.51027063  0.33998837  0.76362989  1
  H+  H93  1  0.16692346  0.18364059  0.00211509  1
  H+  H94  1  0.84931607  0.80311590  -0.01391067  1
  H+  H95  1  0.18633427  0.00288574  0.25941203  1
  H+  H96  1  0.36454730  0.17519997  0.50561301  1
  H+  H97  1  0.64069359  0.49761022  0.25989949  1
  H+  H98  1  0.50462049  0.03475090  0.99716954  1
  H+  H99  1  0.09486734  0.86369628  0.58857470  1
  H+  H100  1  0.13085176  0.13993596  0.23888776  1
  H+  H101  1  0.05713083  0.80056368  0.28063977  1
  H+  H102  1  0.29923722  0.14356689  1.00078536  1
  H+  H103  1  0.14930930  0.83933127  0.72532251  1
  H+  H104  1  0.64169564  0.83355282  0.46214005  1
  H+  H105  1  0.81547984  0.62761166  0.49272706  1
  H+  H106  1  0.23661403  0.45470912  0.90585218  1
  H+  H107  1  0.30195168  0.15081820  0.76781549  1
  H+  H108  1  0.41569167  0.49952452  0.68461640  1
  H+  H109  1  0.76105909  0.21267823  0.14092924  1
  H+  H110  1  0.78454323  0.88437576  0.14556937  1
  H+  H111  1  0.11769971  0.25180571  0.70033504  1
  H+  H112  1  0.90992447  0.43730457  0.90735837  1
  H+  H113  1  0.41399852  0.87634189  0.13981025  1
  H+  H114  1  0.76927526  0.56546650  0.59040308  1
  H+  H115  1  0.53794761  0.78689690  0.32798004  1
  H+  H116  1  0.92463393  0.49245846  0.41901855  1
  H+  H117  1  0.50066530  0.80319485  0.74352796  1
  H+  H118  1  0.20750826  0.81843867  0.34360562  1
  H+  H119  1  0.86392733  0.10824940  0.39674314  1
  H+  H120  1  0.55044862  0.80153974  0.88507265  1
  H+  H121  1  0.78165170  0.86510317  0.57541069  1
  H+  H122  1  0.46655335  0.59946683  0.55550093  1
  H+  H123  1  0.79335579  0.64123290  0.73641015  1
  H+  H124  1  0.18350479  0.49734303  0.50086910  1
  H+  H125  1  0.13271266  0.57157458  0.64757989  1
  H+  H126  1  0.22481389  0.78177329  0.84864292  1
  H+  H127  1  0.54314583  0.09228566  0.85524752  1
  H+  H128  1  0.89250972  0.76492892  0.85083598  1
  H+  H129  1  0.50753628  0.16192332  0.25992625  1
  H+  H130  1  0.22388863  0.10557516  0.90913985  1
  H+  H131  1  0.43250518  0.52870700  0.16248929  1
  H+  H132  1  0.15470840  0.46505936  0.24874218  1
  H+  H133  1  0.61955647  0.46924836  0.76086278  1
  H+  H134  1  0.11748548  0.21030074  0.54727639  1
  H+  H135  1  0.48442364  0.68796751  0.25200222  1
  H+  H136  1  0.83459129  0.42729148  0.31170852  1
  H+  H137  1  0.12310549  0.22111986  0.08953632  1
  H+  H138  1  0.01669301  0.10545557  0.18771711  1
  H+  H139  1  0.77971885  0.64347526  0.20005968  1
  H+  H140  1  0.55773254  0.42493072  0.90668403  1
  H+  H141  1  0.44027596  0.21718853  0.15570773  1
  H+  H142  1  0.22797736  0.08663033  0.39207315  1
  H+  H143  1  0.55650901  0.43845920  0.34526529  1
  O2-  O144  1  0.08406084  0.17269008  0.21263149  1
  O2-  O145  1  0.11114720  0.24878512  0.76653681  1
  O2-  O146  1  0.11192330  0.52105596  0.22895898  1
  O2-  O147  1  0.12752348  0.56872572  0.71575056  1
  O2-  O148  1  0.12091489  0.83427707  0.23447943  1
  O2-  O149  1  0.10020641  0.86383343  0.69398752  1
  O2-  O150  1  0.43938633  0.21720478  0.22458376  1
  O2-  O151  1  0.44475402  0.21080932  0.71830048  1
  O2-  O152  1  0.42524376  0.53226914  0.22928273  1
  O2-  O153  1  0.43392531  0.52349697  0.74798199  1
  O2-  O154  1  0.40818682  0.86675810  0.20935987  1
  O2-  O155  1  0.43808180  0.87269482  0.70694448  1
  O2-  O156  1  0.75935068  0.22547599  0.20865792  1
  O2-  O157  1  0.76292783  0.22642277  0.70636153  1
  O2-  O158  1  0.77392550  0.58035453  0.23627492  1
  O2-  O159  1  0.72699185  0.58056356  0.69929174  1
  O2-  O160  1  0.78719548  0.90063336  0.21096992  1
  O2-  O161  1  0.76079530  0.85989506  0.70643111  1
  O2-  O162  1  0.21285809  0.08326002  0.27545316  1
  O2-  O163  1  0.22847307  0.11925369  0.80077888  1
  O2-  O164  1  0.20479175  0.41218056  0.27140351  1
  O2-  O165  1  0.23200146  0.46239645  0.81782117  1
  O2-  O166  1  0.22874608  0.86313055  0.28422420  1
  O2-  O167  1  0.23034031  0.78336264  0.78120998  1
  O2-  O168  1  0.55426022  0.12524647  0.28405487  1
  O2-  O169  1  0.54069321  0.08336965  0.78707915  1
  O2-  O170  1  0.55592209  0.44361939  0.27768647  1
  O2-  O171  1  0.54474632  0.41894484  0.79167961  1
  O2-  O172  1  0.51565921  0.77103464  0.26215483  1
  O2-  O173  1  0.54464176  0.76788420  0.77241430  1
  O2-  O174  1  0.86955458  0.13978836  0.30733996  1
  O2-  O175  1  0.87921772  0.12221003  0.76500169  1
  O2-  O176  1  0.87764849  0.46060884  0.25579315  1
  O2-  O177  1  0.91759556  0.44314203  0.79485450  1
  O2-  O178  1  0.92213159  0.74267505  0.34099742  1
  O2-  O179  1  0.88725315  0.76146674  0.78252928  1
  O2-  O180  1  0.22780644  0.09521522  0.45975464  1
  O2-  O181  1  0.21846078  0.10483446  0.97845036  1
  O2-  O182  1  0.22192444  0.44828462  0.49866606  1
  O2-  O183  1  0.23800396  0.44320883  0.98218826  1
  O2-  O184  1  0.21740441  0.78008707  0.45373288  1
  O2-  O185  1  0.21660205  0.77530430  0.97147551  1
  O2-  O186  1  0.55310794  0.11771368  0.45480247  1
  O2-  O187  1  0.54880084  0.11266103  0.96976356  1
  O2-  O188  1  0.55236527  0.43547435  0.46576459  1
  O2-  O189  1  0.56069827  0.43067317  0.97475062  1
  O2-  O190  1  0.56176072  0.80373653  0.44151408  1
  O2-  O191  1  0.55231061  0.81261339  0.95299180  1
  O2-  O192  1  0.87761693  0.09111687  0.46656955  1
  O2-  O193  1  0.89441247  0.10595070  0.96384036  1
  O2-  O194  1  0.90696919  0.46746252  0.48214859  1
  O2-  O195  1  0.90266241  0.43347413  0.97597720  1
  O2-  O196  1  0.89005128  0.75259452  0.43566860  1
  O2-  O197  1  0.89125896  0.76308559  0.96660784  1
  O2-  O198  1  0.13012652  0.23121326  0.02257442  1
  O2-  O199  1  0.10420853  0.21626128  0.48266853  1
  O2-  O200  1  0.11286057  0.55280326  0.05034392  1
  O2-  O201  1  0.12891368  0.57286600  0.53069498  1
  O2-  O202  1  0.10886370  0.88127071  0.04122425  1
  O2-  O203  1  0.09549500  0.86729995  0.51853726  1
  O2-  O204  1  0.43842688  0.21494712  0.04264551  1
  O2-  O205  1  0.44434600  0.21657758  0.53023827  1
  O2-  O206  1  0.44955059  0.52475494  0.03921301  1
  O2-  O207  1  0.45486816  0.57831690  0.49129586  1
  O2-  O208  1  0.42724876  0.89720773  0.03520248  1
  O2-  O209  1  0.44314279  0.90123233  0.51806592  1
  O2-  O210  1  0.77184790  0.21051310  0.02759551  1
  O2-  O211  1  0.77543091  0.23657704  0.53188220  1
  O2-  O212  1  0.78388117  0.54396282  0.02913350  1
  O2-  O213  1  0.77461214  0.55159639  0.52441879  1
  O2-  O214  1  0.78051875  0.87698677  0.01461784  1
  O2-  O215  1  0.78480896  0.87528796  0.50831967  1
