# generated using pymatgen
data_H2O
_symmetry_space_group_name_H-M   'P 1'
_cell_length_a   13.53248946
_cell_length_b   13.53692201
_cell_length_c   14.71103816
_cell_angle_alpha   90.04652971
_cell_angle_beta   89.96311250
_cell_angle_gamma   120.05205285
_symmetry_Int_Tables_number   1
_chemical_formula_structural   H2O
_chemical_formula_sum   'H144 O72'
_cell_volume   2332.61671795
_cell_formula_units_Z   72
loop_
 _symmetry_equiv_pos_site_id
 _symmetry_equiv_pos_as_xyz
  1  'x, y, z'
loop_
 _atom_type_symbol
 _atom_type_oxidation_number
  H+  1.0
  O2-  -2.0
loop_
 _atom_site_type_symbol
 _atom_site_label
 _atom_site_symmetry_multiplicity
 _atom_site_fract_x
 _atom_site_fract_y
 _atom_site_fract_z
 _atom_site_occupancy
  H+  H0  1  0.17919973  0.82071619  0.76697790  1
  H+  H1  1  0.82649357  0.95937935  0.00439411  1
  H+  H2  1  -0.03989961  0.14002930  0.51979993  1
  H+  H3  1  0.27811816  0.48856833  0.98848729  1
  H+  H4  1  0.48258863  0.96605659  0.00733710  1
  H+  H5  1  0.14479225  0.63434080  0.50497540  1
  H+  H6  1  0.48867685  0.65845206  0.22160518  1
  H+  H7  1  0.84244919  0.53465517  0.74131864  1
  H+  H8  1  0.86553719  0.38943119  0.75416318  1
  H+  H9  1  0.64033492  0.14601284  0.23963575  1
  H+  H10  1  0.14796130  0.96188468  0.23995113  1
  H+  H11  1  -0.03168470  0.13760515  -0.01730271  1
  H+  H12  1  0.67479663  0.46624699  0.01149518  1
  H+  H13  1  0.82252270  0.29519398  0.50753688  1
  H+  H14  1  0.15977254  0.85597924  0.01087359  1
  H+  H15  1  0.83445250  0.03928758  0.74967010  1
  H+  H16  1  0.19019328  0.03253217  0.99290707  1
  H+  H17  1  0.82358977  0.63118255  0.51107935  1
  H+  H18  1  0.51524569  0.81956979  0.24474092  1
  H+  H19  1  0.17892201  0.69664708  0.24970098  1
  H+  H20  1  0.27943126  0.49017904  0.75769571  1
  H+  H21  1  0.41651194  0.47717208  0.74006655  1
  H+  H22  1  0.61616855  0.48538627  0.27411524  1
  H+  H23  1  0.78892944  0.55834694  0.60301529  1
  H+  H24  1  0.82616215  0.87969291  0.24673458  1
  H+  H25  1  0.81646235  -0.00909381  0.22468439  1
  H+  H26  1  0.80413218  0.85285726  0.74017941  1
  H+  H27  1  0.29772309  0.49569319  0.24743898  1
  H+  H28  1  0.49319822  0.51213051  0.52745521  1
  H+  H29  1  0.81570534  0.59931691  0.28334565  1
  H+  H30  1  0.11667962  0.89385425  0.09685418  1
  H+  H31  1  0.13580904  0.50937122  0.00672942  1
  H+  H32  1  0.65233293  0.47464081  0.50223023  1
  H+  H33  1  0.30968474  0.14945521  -0.00777476  1
  H+  H34  1  0.84744525  0.74587848  0.24047318  1
  H+  H35  1  0.15187505  0.18878767  0.75569706  1
  H+  H36  1  0.62032940  0.79801422  0.49749919  1
  H+  H37  1  0.29999967  0.81081256  -0.00543672  1
  H+  H38  1  0.85229034  0.70788454  0.75129730  1
  H+  H39  1  0.83498714  0.21669738  0.73876061  1
  H+  H40  1  0.51648193  0.71372573  0.99152489  1
  H+  H41  1  0.75608186  0.68188250  -0.06723685  1
  H+  H42  1  0.14751477  0.18636361  0.23339690  1
  H+  H43  1  -0.03472901  0.47186234  -0.01076976  1
  H+  H44  1  0.64420984  0.82378323  0.99177500  1
  H+  H45  1  0.20748852  0.15722843  0.48901158  1
  H+  H46  1  0.82703691  0.15098984  0.22222108  1
  H+  H47  1  0.14115817  0.63089234  0.00658663  1
  H+  H48  1  0.95162071  0.15929973  0.23369318  1
  H+  H49  1  0.49604787  -0.00362492  0.76811341  1
  H+  H50  1  0.37937033  0.17115089  0.51009684  1
  H+  H51  1  0.30336921  0.14370270  0.76194914  1
  H+  H52  1  0.55673171  0.45951313  0.99705101  1
  H+  H53  1  0.84603421  0.13055946  0.98431007  1
  H+  H54  1  0.22536313  0.10589648  0.33998598  1
  H+  H55  1  0.14986813  0.52640989  0.23685920  1
  H+  H56  1  0.15655020  0.18201880  1.00316768  1
  H+  H57  1  0.50015639  0.79271812  0.49887572  1
  H+  H58  1  0.85290094  0.47819704  0.49848341  1
  H+  H59  1  0.50450154  0.28388080  0.01798052  1
  H+  H60  1  0.49902897  0.28612930  0.52024466  1
  H+  H61  1  0.22082140  0.77553876  0.90595695  1
  H+  H62  1  0.63594533  0.82274402  0.23865375  1
  H+  H63  1  0.81186220  0.84070222  0.51555481  1
  H+  H64  1  0.82046025  0.17512613  0.51791386  1
  H+  H65  1  0.71963847  0.52152473  0.73972349  1
  H+  H66  1  0.30039962  0.13794025  0.25095848  1
  H+  H67  1  0.14515035  0.52396737  0.74124115  1
  H+  H68  1  0.97376140  0.48300502  0.49469018  1
  H+  H69  1  0.64160757  0.13791535  0.98276079  1
  H+  H70  1  0.45092256  0.20323605  0.10481230  1
  H+  H71  1  -0.11969512  0.10833420  0.84142329  1
  H+  H72  1  0.78034136  0.47019396  0.27000890  1
  H+  H73  1  0.47814321  0.84723104  0.75869877  1
  H+  H74  1  0.79976124  0.25321902  0.64775093  1
  H+  H75  1  0.51343051  0.13714893  0.76217744  1
  H+  H76  1  0.64772051  0.13989947  0.48701830  1
  H+  H77  1  0.85898856  0.41171700  0.36738975  1
  H+  H78  1  0.15036001  0.97272274  0.75132740  1
  H+  H79  1  0.35860072  0.85130801  0.76182644  1
  H+  H80  1  0.36060462  0.83831772  0.49436110  1
  H+  H81  1  0.49134605  0.16936726  0.24480189  1
  H+  H82  1  0.84755464  0.46528158  0.00097531  1
  H+  H83  1  0.52175170  0.14001390  0.99153722  1
  H+  H84  1  0.16501597  0.47965022  0.48665992  1
  H+  H85  1  1.02740147  0.85611977  0.74475369  1
  H+  H86  1  0.22972301  0.10951254  0.85379373  1
  H+  H87  1  0.29889121  0.81833388  0.25480822  1
  H+  H88  1  0.47972020  0.28328798  0.24379582  1
  H+  H89  1  0.48739906  0.85203015  0.00992761  1
  H+  H90  1  0.81165475  0.27464285  -0.00289712  1
  H+  H91  1  0.50054770  0.68985669  0.76398712  1
  H+  H92  1  0.68156011  0.84412124  0.73914590  1
  H+  H93  1  0.44711638  0.53066186  -0.00028863  1
  H+  H94  1  0.48308724  0.96823665  0.23956087  1
  H+  H95  1  0.18218598  0.70340226  0.76135436  1
  H+  H96  1  0.09445557  0.19872421  0.43980236  1
  H+  H97  1  0.16642615  0.79998686  0.47180996  1
  H+  H98  1  0.98095698  0.82667048  0.26117581  1
  H+  H99  1  0.48227083  0.95049593  0.49879003  1
  H+  H100  1  0.16766920  0.36502403  0.76403881  1
  H+  H101  1  -0.02486330  0.81587274  0.49684317  1
  H+  H102  1  0.49493333  0.28577795  0.74173078  1
  H+  H103  1  0.77074162  0.30930855  0.30520935  1
  H+  H104  1  0.84319759  1.02301124  0.50711945  1
  H+  H105  1  0.20338759  0.03699142  0.49375570  1
  H+  H106  1  0.14672210  0.84165338  0.24066377  1
  H+  H107  1  0.18302710  0.37368198  0.24759811  1
  H+  H108  1  0.23220887  0.91302130  0.56267460  1
  H+  H109  1  0.20251982  0.44261663  0.89785484  1
  H+  H110  1  0.44013034  0.88945517  0.15066019  1
  H+  H111  1  0.78689546  0.54565896  0.12997940  1
  H+  H112  1  0.57246510  0.10846672  0.34062469  1
  H+  H113  1  0.88356140  0.78056832  0.84201551  1
  H+  H114  1  0.78625078  0.88774220  0.09828274  1
  H+  H115  1  0.55168510  0.77405862  0.85081294  1
  H+  H116  1  0.47635426  0.53103174  0.21561296  1
  H+  H117  1  0.43553437  0.54938702  0.64716313  1
  H+  H118  1  0.21157972  0.76638074  0.38300476  1
  H+  H119  1  0.14525675  0.29520902  0.00107528  1
  H+  H120  1  0.48813418  0.62992627  0.52239976  1
  H+  H121  1  0.76548589  0.87870756  0.60099750  1
  H+  H122  1  0.50739312  0.46424306  0.33403609  1
  H+  H123  1  0.79769446  0.28094982  0.19107774  1
  H+  H124  1  0.15936572  0.30595250  0.49867603  1
  H+  H125  1  0.12989926  0.90007474  0.61991613  1
  H+  H126  1  0.58044087  0.40941086  0.41575839  1
  H+  H127  1  0.82261100  0.79309065  0.99020300  1
  H+  H128  1  0.10947737  0.56484869  0.60018532  1
  H+  H129  1  0.03386182  0.53557981  0.74257896  1
  H+  H130  1  0.75933403  0.19132219  0.08684209  1
  H+  H131  1  0.89441425  0.45870966  0.84963432  1
  H+  H132  1  0.55317660  0.47827999  0.78679125  1
  H+  H133  1  0.55443565  0.10116953  0.85706130  1
  H+  H134  1  0.45065775  0.20558359  0.65305347  1
  H+  H135  1  0.03269214  0.18610252  0.75028928  1
  H+  H136  1  0.59681797  0.42463835  0.85970506  1
  H+  H137  1  0.52924342  0.13680541  0.48720110  1
  H+  H138  1  0.10708643  0.56292507  0.14941424  1
  H+  H139  1  0.11394946  0.22552769  0.14243135  1
  H+  H140  1  0.42589962  0.57382479  0.09613524  1
  H+  H141  1  0.89988484  0.78120624  0.40740585  1
  H+  H142  1  0.20575670  0.44489301  0.39678922  1
  H+  H143  1  0.82053023  0.62251150  0.03735966  1
  O2-  O144  1  0.11317819  0.23103258  0.21028075  1
  O2-  O145  1  0.11544523  0.23300103  0.73653694  1
  O2-  O146  1  0.11402745  0.57143989  0.21655530  1
  O2-  O147  1  0.11392407  0.57254255  0.71777927  1
  O2-  O148  1  0.10263181  0.88009642  0.22036488  1
  O2-  O149  1  0.10965993  0.89216296  0.72652735  1
  O2-  O150  1  0.44518682  0.20489434  0.22016378  1
  O2-  O151  1  0.44876829  0.20554490  0.72175448  1
  O2-  O152  1  0.43790518  0.57325022  0.19736422  1
  O2-  O153  1  0.42149737  0.54776331  0.71943120  1
  O2-  O154  1  0.43864556  0.88688343  0.21852382  1
  O2-  O155  1  0.44188089  0.89435994  0.74458467  1
  O2-  O156  1  0.74968080  0.19847938  0.18496416  1
  O2-  O157  1  0.81038394  0.26923865  0.71438873  1
  O2-  O158  1  0.76044052  0.53133707  0.24987100  1
  O2-  O159  1  0.79773242  0.57119973  0.71565677  1
  O2-  O160  1  0.78150724  0.90372245  0.20983813  1
  O2-  O161  1  0.76148216  0.88907465  0.71575655  1
  O2-  O162  1  0.21970031  0.10298853  0.27262857  1
  O2-  O163  1  0.22394539  0.10663300  0.78548407  1
  O2-  O164  1  0.21889137  0.45309769  0.27195849  1
  O2-  O165  1  0.20159037  0.44788965  0.78459368  1
  O2-  O166  1  0.21721275  0.77851750  0.27534053  1
  O2-  O167  1  0.22169763  0.78259415  0.78859569  1
  O2-  O168  1  0.56156666  0.10918575  0.27339994  1
  O2-  O169  1  0.54908885  0.09309630  0.78755668  1
  O2-  O170  1  0.53089305  0.44184505  0.27853933  1
  O2-  O171  1  0.58673005  0.42948361  0.79273952  1
  O2-  O172  1  0.55367397  0.77375116  0.25388898  1
  O2-  O173  1  0.54388584  0.77126247  0.78295242  1
  O2-  O174  1  0.86988086  0.11316822  0.24860965  1
  O2-  O175  1  0.88110075  0.11780457  0.77417270  1
  O2-  O176  1  0.82413864  0.39148948  0.30441693  1
  O2-  O177  1  0.90096673  0.47014754  0.78227944  1
  O2-  O178  1  0.89981129  0.79207885  0.28845305  1
  O2-  O179  1  0.88685646  0.78824876  0.77497674  1
  O2-  O180  1  0.24533364  0.11416004  0.46596844  1
  O2-  O181  1  0.23059690  0.11387614  0.96819747  1
  O2-  O182  1  0.19808872  0.43373290  0.46337083  1
  O2-  O183  1  0.19937995  0.43668799  0.96628037  1
  O2-  O184  1  0.20915035  0.76286334  0.45230000  1
  O2-  O185  1  0.21874133  0.77087830  0.97377761  1
  O2-  O186  1  0.56906395  0.09961252  0.45922904  1
  O2-  O187  1  0.55789510  0.09902619  0.96236747  1
  O2-  O188  1  0.57141656  0.42586934  0.47883911  1
  O2-  O189  1  0.59933498  0.42325094  0.97653389  1
  O2-  O190  1  0.53880747  0.74874064  0.48204200  1
  O2-  O191  1  0.56533039  0.79165220  0.96594755  1
  O2-  O192  1  0.88377638  0.10612115  0.49272347  1
  O2-  O193  1  0.88794960  0.09198691  0.96042419  1
  O2-  O194  1  0.89152693  0.43791551  0.47357613  1
  O2-  O195  1  0.88380160  0.42925101  0.96660760  1
  O2-  O196  1  0.89640838  0.77336940  0.47483202  1
  O2-  O197  1  0.83100373  0.72974723  0.95996380  1
  O2-  O198  1  0.10954321  0.21558648  0.02485080  1
  O2-  O199  1  0.12718852  0.21981846  0.50064915  1
  O2-  O200  1  0.09624091  0.55035032  0.02927291  1
  O2-  O201  1  0.10289586  0.55641059  0.53259615  1
  O2-  O202  1  0.12565256  0.90286142  0.03007885  1
  O2-  O203  1  0.15737481  0.90626752  0.55415106  1
  O2-  O204  1  0.45242640  0.20392522  0.03643667  1
  O2-  O205  1  0.45663502  0.20461417  0.53943257  1
  O2-  O206  1  0.41858460  0.57748179  0.02570736  1
  O2-  O207  1  0.45395207  0.55029554  0.55213202  1
  O2-  O208  1  0.44149907  0.88623029  0.03202741  1
  O2-  O209  1  0.43598002  0.87247227  0.52386312  1
  O2-  O210  1  0.76920430  0.19287541  0.01470517  1
  O2-  O211  1  0.77804067  0.21717252  0.53373044  1
  O2-  O212  1  0.79067511  0.54417332  0.06230473  1
  O2-  O213  1  0.78387443  0.55151649  0.53473469  1
  O2-  O214  1  0.78328957  0.87943557  0.02982718  1
  O2-  O215  1  0.76919848  0.87921425  0.53295776  1
