# generated using pymatgen
data_H2O
_symmetry_space_group_name_H-M   'P 1'
_cell_length_a   13.51402483
_cell_length_b   13.51629693
_cell_length_c   14.73037180
_cell_angle_alpha   89.95618322
_cell_angle_beta   90.05345553
_cell_angle_gamma   119.95784409
_symmetry_Int_Tables_number   1
_chemical_formula_structural   H2O
_chemical_formula_sum   'H144 O72'
_cell_volume   2331.15359767
_cell_formula_units_Z   72
loop_
 _symmetry_equiv_pos_site_id
 _symmetry_equiv_pos_as_xyz
  1  'x, y, z'
loop_
 _atom_type_symbol
 _atom_type_oxidation_number
  H+  1.0
  O2-  -2.0
loop_
 _atom_site_type_symbol
 _atom_site_label
 _atom_site_symmetry_multiplicity
 _atom_site_fract_x
 _atom_site_fract_y
 _atom_site_fract_z
 _atom_site_occupancy
  H+  H0  1  0.30353395  0.15180822  0.75532946  1
  H+  H1  1  0.81525448  0.32453924  0.01762076  1
  H+  H2  1  0.26926279  0.88872073  0.48261891  1
  H+  H3  1  0.39363082  0.53745127  0.54508536  1
  H+  H4  1  0.18626139  0.49645796  0.76920394  1
  H+  H5  1  0.50721804  0.34861330  -0.04813341  1
  H+  H6  1  0.14232946  0.28297474  0.23468266  1
  H+  H7  1  0.56563842  0.46767771  0.42880045  1
  H+  H8  1  0.16204880  0.19484997  0.73692950  1
  H+  H9  1  0.46542133  0.26041364  0.03069026  1
  H+  H10  1  0.69683485  0.82726330  0.24030874  1
  H+  H11  1  0.86036042  0.16363695  0.76371142  1
  H+  H12  1  0.19067464  0.17707765  0.50066039  1
  H+  H13  1  1.03135194  0.51802397  0.24150989  1
  H+  H14  1  0.37310468  0.88867241  0.68333251  1
  H+  H15  1  0.95787040  0.83196332  0.77014154  1
  H+  H16  1  0.35442100  0.50773465  0.24258356  1
  H+  H17  1  0.47336885  0.81850136  1.01348484  1
  H+  H18  1  0.52261893  0.50395144  0.28717181  1
  H+  H19  1  0.15185811  0.96098395  0.28457049  1
  H+  H20  1  0.31808094  0.81126823  0.26353611  1
  H+  H21  1  0.15917523  0.82801234  0.77916609  1
  H+  H22  1  0.22278235  0.85595442  0.44816379  1
  H+  H23  1  0.27825842  0.83291543  0.79388763  1
  H+  H24  1  0.69085495  0.86350551  0.74154076  1
  H+  H25  1  0.17188685  0.68782572  1.00558091  1
  H+  H26  1  -0.03446961  0.81206109  0.29300191  1
  H+  H27  1  0.96469592  0.14874169  0.26293464  1
  H+  H28  1  0.15751543  0.62999500  0.24112469  1
  H+  H29  1  0.02963463  0.17994740  0.00953940  1
  H+  H30  1  0.04302298  0.19370255  0.73950052  1
  H+  H31  1  0.62638630  0.14350998  0.47087588  1
  H+  H32  1  0.20093240  0.80613820  0.29455581  1
  H+  H33  1  0.14496756  0.98244958  0.75389395  1
  H+  H34  1  0.54266561  0.70618803  0.49624861  1
  H+  H35  1  0.51107974  0.02432304  0.47172615  1
  H+  H36  1  0.85024063  0.49753797  0.01654833  1
  H+  H37  1  0.35910382  0.82658628  0.01542490  1
  H+  H38  1  0.19263291  1.04270619  -0.03118428  1
  H+  H39  1  0.18461315  0.15504548  0.98103547  1
  H+  H40  1  0.01649937  0.51888144  0.52216172  1
  H+  H41  1  0.36815515  0.18919874  0.51636752  1
  H+  H42  1  0.51638092  0.14714398  0.75783059  1
  H+  H43  1  0.21205903  0.11124956  0.36393759  1
  H+  H44  1  0.34465586  0.51022887  0.02213978  1
  H+  H45  1  0.52270224  -0.00172937  0.97934112  1
  H+  H46  1  0.83316761  0.19401685  0.25294011  1
  H+  H47  1  0.85815246  0.37414676  0.26033694  1
  H+  H48  1  0.15134982  0.60627153  0.51604212  1
  H+  H49  1  0.15573253  0.84760433  0.01033173  1
  H+  H50  1  0.50766728  0.68885299  0.26286543  1
  H+  H51  1  0.45477589  0.63234059  1.02288796  1
  H+  H52  1  0.33681785  0.49003976  0.41514372  1
  H+  H53  1  0.64522592  0.15369708  0.25251309  1
  H+  H54  1  0.48808220  0.28958397  0.74658004  1
  H+  H55  1  0.45194038  0.56001453  0.68809337  1
  H+  H56  1  0.16324670  1.12950208  0.26882963  1
  H+  H57  1  0.14726803  0.29696711  0.01453614  1
  H+  H58  1  0.48903731  0.50063516  0.82420683  1
  H+  H59  1  0.34447206  0.15303933  0.22753504  1
  H+  H60  1  0.84754173  0.15612605  -0.00796833  1
  H+  H61  1  0.51487286  0.85299041  0.49216339  1
  H+  H62  1  0.82037456  0.17730439  0.49149533  1
  H+  H63  1  0.34013695  0.75079777  0.47675654  1
  H+  H64  1  0.49365659  -0.01295278  0.72264110  1
  H+  H65  1  0.50441169  0.82393244  0.75086953  1
  H+  H66  1  0.35404012  0.52232965  0.76588324  1
  H+  H67  1  0.16740651  0.47147144  0.24547640  1
  H+  H68  1  0.78197741  0.56799233  0.11320745  1
  H+  H69  1  0.89864953  0.12078692  0.84945617  1
  H+  H70  1  0.63959578  0.11816205  -0.02932929  1
  H+  H71  1  0.48224348  0.18191648  0.50685563  1
  H+  H72  1  0.18684025  0.37605386  0.76546224  1
  H+  H73  1  0.83032540  0.86485830  1.01044518  1
  H+  H74  1  0.88437549  0.45897279  0.92291571  1
  H+  H75  1  -0.15703766  0.48263474  0.49509368  1
  H+  H76  1  0.81398292  -0.01971107  0.74510207  1
  H+  H77  1  0.81565599  0.52020931  0.24901715  1
  H+  H78  1  0.50300089  0.70430267  0.76383918  1
  H+  H79  1  0.82313205  0.63756818  0.52653878  1
  H+  H80  1  0.52294103  0.37524979  0.51020510  1
  H+  H81  1  0.20727619  0.77111280  0.91936669  1
  H+  H82  1  0.71198027  0.86295589  1.00626604  1
  H+  H83  1  0.70441792  0.52040700  0.53142501  1
  H+  H84  1  0.64088915  0.50484878  0.28888641  1
  H+  H85  1  0.17407299  1.05210153  0.50960641  1
  H+  H86  1  0.71190510  0.86379553  0.51047868  1
  H+  H87  1  0.27621130  0.55803194  0.45074899  1
  H+  H88  1  0.84165410  0.49697804  0.78798761  1
  H+  H89  1  0.49450075  0.96903715  0.23792775  1
  H+  H90  1  0.01072726  0.86134970  0.52541278  1
  H+  H91  1  0.02155588  0.51539603  0.01601916  1
  H+  H92  1  0.84588457  0.81039501  0.27269791  1
  H+  H93  1  0.51875483  0.81321226  0.26364404  1
  H+  H94  1  0.20022957  0.42842333  0.33429199  1
  H+  H95  1  0.65038433  0.48699400  0.76947540  1
  H+  H96  1  0.14725553  0.63633195  0.75890073  1
  H+  H97  1  0.16798590  0.47582863  0.99682017  1
  H+  H98  1  0.83730429  0.82853478  0.76622053  1
  H+  H99  1  -0.02008302  0.16840324  0.49923139  1
  H+  H100  1  0.46133265  0.15845540  0.21429618  1
  H+  H101  1  0.81719707  0.63828791  0.25890074  1
  H+  H102  1  0.83944003  0.37870738  0.79956255  1
  H+  H103  1  0.44887352  0.88018378  0.15468071  1
  H+  H104  1  0.16474072  0.33049924  0.51265822  1
  H+  H105  1  0.69403339  0.18604058  0.75158707  1
  H+  H106  1  0.82279376  0.64298737  0.02240506  1
  H+  H107  1  -0.03004730  0.82521183  -0.01146633  1
  H+  H108  1  0.88121406  0.78483651  0.90628527  1
  H+  H109  1  0.44964819  0.21706055  0.65413691  1
  H+  H110  1  0.10351873  0.20046412  0.14949119  1
  H+  H111  1  0.55507376  0.11070713  0.33362238  1
  H+  H112  1  0.55511539  0.08946297  0.83934574  1
  H+  H113  1  0.84279324  0.36446496  0.48348117  1
  H+  H114  1  0.10685279  0.55202744  0.10125973  1
  H+  H115  1  0.12576553  0.25239946  0.60272640  1
  H+  H116  1  0.84897395  0.03865548  0.99343135  1
  H+  H117  1  0.56412660  0.78111779  0.88602953  1
  H+  H118  1  0.84459364  0.82227613  0.50808356  1
  H+  H119  1  0.26018872  0.70777392  0.38995946  1
  H+  H120  1  0.81501863  0.65016592  0.75377561  1
  H+  H121  1  0.89437076  0.45490229  0.34773033  1
  H+  H122  1  0.46780548  0.89249375  0.57592518  1
  H+  H123  1  0.79376885  0.28170128  0.68924334  1
  H+  H124  1  0.22585537  0.12556893  0.84488077  1
  H+  H125  1  0.13464309  0.87593744  0.52708696  1
  H+  H126  1  0.59080938  0.70132205  0.94575695  1
  H+  H127  1  0.89653058  0.12397765  0.35607470  1
  H+  H128  1  0.11182287  0.56157029  0.66811288  1
  H+  H129  1  0.86479493  1.04332340  0.50032143  1
  H+  H130  1  0.09514871  0.89878824  0.66899149  1
  H+  H131  1  0.21364281  0.44031166  0.90953602  1
  H+  H132  1  0.88132119  0.77821655  0.41977635  1
  H+  H133  1  0.69526949  0.24011647  0.05987737  1
  H+  H134  1  0.43776136  0.55347069  0.15859321  1
  H+  H135  1  0.79866502  0.23654074  0.16146806  1
  H+  H136  1  0.78568767  0.56675752  0.66699648  1
  H+  H137  1  0.13065994  0.92510369  0.07757685  1
  H+  H138  1  0.78039933  0.87499338  0.15491640  1
  H+  H139  1  0.11468896  0.86302115  0.21001348  1
  H+  H140  1  0.50615962  0.52784587  0.54364338  1
  H+  H141  1  0.77955901  0.90289384  0.60583267  1
  H+  H142  1  0.75615273  0.19328904  0.57327443  1
  H+  H143  1  0.57077200  0.77089394  0.39748983  1
  O2-  O144  1  0.10327004  0.20073209  0.21761953  1
  O2-  O145  1  0.12264484  0.23744082  0.71584719  1
  O2-  O146  1  0.11114210  0.55097859  0.21625015  1
  O2-  O147  1  0.13053684  0.56236728  0.73391956  1
  O2-  O148  1  0.11733533  0.87406229  0.27532890  1
  O2-  O149  1  0.09859359  0.89858037  0.73674019  1
  O2-  O150  1  0.40646925  0.17477745  0.18348059  1
  O2-  O151  1  0.44587417  0.20999661  0.72194958  1
  O2-  O152  1  0.43682602  0.55311221  0.22722383  1
  O2-  O153  1  0.44031776  0.56653735  0.75403981  1
  O2-  O154  1  0.45095276  0.88497092  0.22217691  1
  O2-  O155  1  0.45136710  0.90653862  0.69425187  1
  O2-  O156  1  0.79327800  0.23657278  0.22844542  1
  O2-  O157  1  0.77998278  0.23258804  0.74155300  1
  O2-  O158  1  0.77321030  0.56018966  0.23194204  1
  O2-  O159  1  0.77974223  0.56834345  0.73470832  1
  O2-  O160  1  0.77665255  0.85697358  0.22022065  1
  O2-  O161  1  0.77207376  0.90015119  0.72126081  1
  O2-  O162  1  0.20232485  0.09111215  0.29813877  1
  O2-  O163  1  0.22256126  0.11942250  0.77529401  1
  O2-  O164  1  0.20441617  0.42680801  0.26774538  1
  O2-  O165  1  0.22524961  0.45299883  0.79417169  1
  O2-  O166  1  0.24053899  0.76097843  0.29145514  1
  O2-  O167  1  0.19683818  0.78521214  0.80486594  1
  O2-  O168  1  0.56196587  0.10667780  0.26664396  1
  O2-  O169  1  0.55882659  0.10481940  0.77107817  1
  O2-  O170  1  0.56824658  0.47882164  0.32272326  1
  O2-  O171  1  0.56711319  0.42694274  0.77849872  1
  O2-  O172  1  0.55470718  0.76895559  0.28676166  1
  O2-  O173  1  0.54795913  0.78948118  0.77657534  1
  O2-  O174  1  0.88863683  0.12559729  0.28938466  1
  O2-  O175  1  0.89911634  0.12048902  0.78152302  1
  O2-  O176  1  0.89771985  0.45661908  0.27991037  1
  O2-  O177  1  0.88003602  0.45917416  0.81786986  1
  O2-  O178  1  0.88319715  0.77249318  0.30823828  1
  O2-  O179  1  0.87646264  0.78789892  0.79073605  1
  O2-  O180  1  0.22407424  0.12870674  0.48212487  1
  O2-  O181  1  0.22802909  0.12313410  0.95012185  1
  O2-  O182  1  0.27391120  0.48176352  0.45307802  1
  O2-  O183  1  0.20947541  0.43531669  0.97755615  1
  O2-  O184  1  0.27778640  0.68062107  0.44789099  1
  O2-  O185  1  0.21710257  0.77145754  0.98659019  1
  O2-  O186  1  0.54426795  0.10625408  0.45389327  1
  O2-  O187  1  0.56672460  0.06674937  0.94089219  1
  O2-  O188  1  0.56460034  0.45884120  0.49795185  1
  O2-  O189  1  0.52910211  0.46522995  0.85706476  1
  O2-  O190  1  0.58007901  0.78183204  0.46567121  1
  O2-  O191  1  0.57521555  0.76439481  0.95119723  1
  O2-  O192  1  0.90025627  0.12308930  0.47580121  1
  O2-  O193  1  0.88839132  0.11885366  0.96791824  1
  O2-  O194  1  0.88305486  0.44583856  0.46525797  1
  O2-  O195  1  0.88781967  0.45305535  0.99195025  1
  O2-  O196  1  0.88486457  0.78036851  0.48843820  1
  O2-  O197  1  0.88716766  0.78804118  0.97421438  1
  O2-  O198  1  0.10890332  0.21474806  0.03367487  1
  O2-  O199  1  0.12291646  0.25107673  0.53417141  1
  O2-  O200  1  0.10577938  0.55405225  0.03335609  1
  O2-  O201  1  0.08811334  0.55895406  0.55772989  1
  O2-  O202  1  0.11680155  0.89487218  0.01620230  1
  O2-  O203  1  0.09130722  0.91026052  0.55134966  1
  O2-  O204  1  0.52204999  0.29292398  -0.01791396  1
  O2-  O205  1  0.44911092  0.22475898  0.53732072  1
  O2-  O206  1  0.42384698  0.55533477  0.04736371  1
  O2-  O207  1  0.47284569  0.57548922  0.56760195  1
  O2-  O208  1  0.44094340  0.86464111  0.03570903  1
  O2-  O209  1  0.46286106  0.88372439  0.50894077  1
  O2-  O210  1  0.76467852  0.24116143  0.03964164  1
  O2-  O211  1  0.77011040  0.21098943  0.50885932  1
  O2-  O212  1  0.78923377  0.56443276  0.04621659  1
  O2-  O213  1  0.78689052  0.55756344  0.54988686  1
  O2-  O214  1  0.78979583  0.90621349  0.03220160  1
  O2-  O215  1  0.79000187  0.90582159  0.53827229  1
