# generated using pymatgen
data_H2O
_symmetry_space_group_name_H-M   'P 1'
_cell_length_a   13.51554812
_cell_length_b   13.52186274
_cell_length_c   14.70673515
_cell_angle_alpha   90.00352267
_cell_angle_beta   90.00428692
_cell_angle_gamma   120.04500762
_symmetry_Int_Tables_number   1
_chemical_formula_structural   H2O
_chemical_formula_sum   'H144 O72'
_cell_volume   2326.59045735
_cell_formula_units_Z   72
loop_
 _symmetry_equiv_pos_site_id
 _symmetry_equiv_pos_as_xyz
  1  'x, y, z'
loop_
 _atom_type_symbol
 _atom_type_oxidation_number
  H+  1.0
  O2-  -2.0
loop_
 _atom_site_type_symbol
 _atom_site_label
 _atom_site_symmetry_multiplicity
 _atom_site_fract_x
 _atom_site_fract_y
 _atom_site_fract_z
 _atom_site_occupancy
  H+  H0  1  0.54089747  1.05172512  0.23512305  1
  H+  H1  1  0.85071842  1.03312842  0.00282821  1
  H+  H2  1  0.55322986  0.37768665  0.70871504  1
  H+  H3  1  0.15098609  0.19153418  0.51469319  1
  H+  H4  1  0.45319648  0.23899183  0.70783581  1
  H+  H5  1  0.81962575  0.85780705  0.51739817  1
  H+  H6  1  0.84175464  0.35008307  0.76172809  1
  H+  H7  1  0.67505865  0.46672423  0.50782940  1
  H+  H8  1  0.11933970  0.63873735  0.02972125  1
  H+  H9  1  0.53702486  0.38465471  0.24859430  1
  H+  H10  1  0.18993085  0.37302530  0.48388302  1
  H+  H11  1  0.51778273  0.69845001  0.99341921  1
  H+  H12  1  0.84158520  0.83029463  0.99988155  1
  H+  H13  1  0.18326828  0.16214266  0.25678602  1
  H+  H14  1  0.13231346  0.62160072  0.72939276  1
  H+  H15  1  0.19934233  0.45411020  1.02817307  1
  H+  H16  1  0.05252761  0.18679575  0.74463393  1
  H+  H17  1  0.81214506  0.18151794  0.04890138  1
  H+  H18  1  0.14009381  0.85546937  0.22809245  1
  H+  H19  1  0.62286436  0.15110559  0.76005818  1
  H+  H20  1  0.49480736  0.12570554  0.76382004  1
  H+  H21  1  -0.09714443  0.11204938  -0.08266953  1
  H+  H22  1  0.53553348  0.74025256  0.75853423  1
  H+  H23  1  0.81322127  0.47810363  0.99266331  1
  H+  H24  1  0.30439240  0.14361154  -0.00703060  1
  H+  H25  1  0.18525425  0.14349789  0.99221444  1
  H+  H26  1  0.85795207  0.46463800  0.50257322  1
  H+  H27  1  0.84337614  0.67764301  0.77704594  1
  H+  H28  1  0.11700819  0.24003714  0.64071516  1
  H+  H29  1  0.79623335  -0.02874037  0.24670844  1
  H+  H30  1  0.42129632  0.17309317  0.57742470  1
  H+  H31  1  0.71401183  0.62643996  0.67561076  1
  H+  H32  1  0.13365971  0.84973323  0.71540719  1
  H+  H33  1  0.93844694  0.47284029  0.98903872  1
  H+  H34  1  0.48469858  0.85240678  0.75106741  1
  H+  H35  1  0.15153569  0.97544303  0.00161192  1
  H+  H36  1  0.48971950  0.51661395  0.02297906  1
  H+  H37  1  0.50619754  0.50824409  0.79434332  1
  H+  H38  1  0.47933365  0.96512368  0.00747579  1
  H+  H39  1  0.51095531  0.33835230  0.47074709  1
  H+  H40  1  0.88494156  0.13057281  0.77406475  1
  H+  H41  1  0.54755237  0.69227113  0.49482702  1
  H+  H42  1  0.80822139  0.17397699  0.51099923  1
  H+  H43  1  0.37118525  0.52858121  0.24756716  1
  H+  H44  1  0.97497531  0.83742857  0.99984289  1
  H+  H45  1  0.78751961  0.58470773  0.52131201  1
  H+  H46  1  0.89293187  0.72445911  0.44990401  1
  H+  H47  1  0.76223955  0.14851799  0.71296853  1
  H+  H48  1  0.38636667  0.19917771  0.24303250  1
  H+  H49  1  -0.04081340  0.14838501  0.26040657  1
  H+  H50  1  0.16511667  1.01860878  0.76344702  1
  H+  H51  1  0.72785795  0.24169989  0.18623402  1
  H+  H52  1  0.17532562  0.76537456  0.46398334  1
  H+  H53  1  0.68498635  0.49404663  1.01909703  1
  H+  H54  1  0.96090917  0.46798518  0.76270639  1
  H+  H55  1  -0.01889140  0.85088875  0.47549911  1
  H+  H56  1  0.03285876  0.51372019  0.25568501  1
  H+  H57  1  0.50508565  0.19824095  0.23705143  1
  H+  H58  1  0.48530644  -0.02970117  0.75512136  1
  H+  H59  1  0.11432756  0.52855028  -0.00551390  1
  H+  H60  1  0.62766363  0.13948574  1.00822006  1
  H+  H61  1  0.53246194  0.50022774  0.25604374  1
  H+  H62  1  0.46428315  0.14376092  0.48613155  1
  H+  H63  1  0.22745792  0.10153453  0.84758009  1
  H+  H64  1  0.22494194  0.44829636  0.34861474  1
  H+  H65  1  0.33429843  0.12937329  0.72940621  1
  H+  H66  1  0.85621487  0.03441611  0.50783567  1
  H+  H67  1  0.74731996  0.53586165  0.65297392  1
  H+  H68  1  0.51450847  0.81591720  -0.00784650  1
  H+  H69  1  0.35794471  0.58160743  0.72165090  1
  H+  H70  1  0.15952966  0.28670799  0.01275543  1
  H+  H71  1  0.17650032  0.48066042  0.49124687  1
  H+  H72  1  0.29776592  0.15500670  0.47782018  1
  H+  H73  1  0.61598036  0.80507889  0.35021184  1
  H+  H74  1  0.80674158  0.84956548  0.24210142  1
  H+  H75  1  0.13686935  0.60158819  0.52344436  1
  H+  H76  1  0.51624495  0.38732139  0.67527567  1
  H+  H77  1  0.30119839  0.82820313  0.73812557  1
  H+  H78  1  0.18939192  0.04784832  0.25358598  1
  H+  H79  1  0.18680415  0.48672457  0.25866824  1
  H+  H80  1  0.76721662  0.88675989  0.09810045  1
  H+  H81  1  0.78395268  0.54274591  0.09750041  1
  H+  H82  1  0.50740173  0.35424728  0.00284478  1
  H+  H83  1  0.57642086  0.11373993  0.32862832  1
  H+  H84  1  0.88244767  0.76970616  0.91417193  1
  H+  H85  1  0.46220523  0.56104465  0.51055275  1
  H+  H86  1  -0.03442557  0.79457220  0.77693064  1
  H+  H87  1  0.96428431  0.84458338  0.24146688  1
  H+  H88  1  0.43970862  0.78752530  0.54513598  1
  H+  H89  1  0.10348506  0.90267558  0.14378585  1
  H+  H90  1  0.44750738  0.63924723  0.63944046  1
  H+  H91  1  0.14267591  0.30296482  0.24514747  1
  H+  H92  1  0.14068313  0.85038768  1.00898654  1
  H+  H93  1  0.15758938  0.90357296  0.52731061  1
  H+  H94  1  0.72891783  0.85547137  0.75690220  1
  H+  H95  1  0.31870863  0.47881445  0.99581634  1
  H+  H96  1  0.02904684  0.18729199  0.51898601  1
  H+  H97  1  0.69033663  0.84572503  1.00846348  1
  H+  H98  1  0.36695163  0.84766265  0.22885334  1
  H+  H99  1  0.17707689  0.70019471  0.23723989  1
  H+  H100  1  0.16210520  0.48505968  0.76144795  1
  H+  H101  1  0.51178854  1.00087398  0.47958423  1
  H+  H102  1  0.30417296  0.82068803  1.01325600  1
  H+  H103  1  0.56538634  0.84907324  0.42641586  1
  H+  H104  1  0.30818545  0.80960721  0.47864439  1
  H+  H105  1  0.14495687  1.01028868  0.50457687  1
  H+  H106  1  0.86633185  0.48708838  0.27487073  1
  H+  H107  1  0.48278276  0.17702549  0.01178811  1
  H+  H108  1  0.83759666  0.83593541  0.76398989  1
  H+  H109  1  0.88891816  0.10800450  0.41504706  1
  H+  H110  1  0.22342789  0.75085628  0.93314227  1
  H+  H111  1  0.88973892  0.80585093  0.33240091  1
  H+  H112  1  0.49465963  0.64535358  0.23866235  1
  H+  H113  1  0.83221789  0.64768580  0.22822494  1
  H+  H114  1  0.44610656  0.21974490  0.10068293  1
  H+  H115  1  0.56164828  0.11321208  0.91066371  1
  H+  H116  1  0.81449257  0.29523482  0.50455934  1
  H+  H117  1  0.62366937  0.12416926  0.48186429  1
  H+  H118  1  0.20623188  0.80182695  0.81029524  1
  H+  H119  1  0.84179909  0.14766895  0.26932274  1
  H+  H120  1  0.49090127  0.85445650  0.23053099  1
  H+  H121  1  0.71684420  0.53009480  0.23657232  1
  H+  H122  1  0.44733712  0.88956633  0.09806773  1
  H+  H123  1  0.03585727  0.17341670  0.01659530  1
  H+  H124  1  -0.01727245  0.46843085  0.50865068  1
  H+  H125  1  0.22764984  0.78707806  0.31792688  1
  H+  H126  1  0.86769645  0.43066381  0.89187575  1
  H+  H127  1  0.56398212  0.43515565  0.39338020  1
  H+  H128  1  0.10363639  0.22073615  0.15745304  1
  H+  H129  1  0.21174384  0.44619984  0.84848242  1
  H+  H130  1  0.09781185  0.53358082  0.63965687  1
  H+  H131  1  0.88710326  1.01456778  0.77482333  1
  H+  H132  1  0.44697850  0.56360791  0.10424667  1
  H+  H133  1  0.58462940  0.79612254  0.85583115  1
  H+  H134  1  0.07381351  0.89903208  0.65105274  1
  H+  H135  1  0.21622462  0.12679359  0.39108336  1
  H+  H136  1  0.43313705  0.87221192  0.61320505  1
  H+  H137  1  0.15549889  0.32920742  0.74025816  1
  H+  H138  1  0.63186728  0.53213610  0.78835190  1
  H+  H139  1  0.09408170  0.54132988  0.15898201  1
  H+  H140  1  0.75429606  0.21833875  0.63157935  1
  H+  H141  1  0.81166642  0.89842890  0.61752260  1
  H+  H142  1  0.55409153  0.45711859  0.92708554  1
  H+  H143  1  0.90461386  0.44413070  0.36291353  1
  O2-  O144  1  0.09790431  0.22078674  0.22523465  1
  O2-  O145  1  0.12351102  0.24711271  0.71273909  1
  O2-  O146  1  0.11147294  0.55485519  0.22438240  1
  O2-  O147  1  0.09591663  0.53965339  0.71541809  1
  O2-  O148  1  0.10261530  0.90095022  0.21163593  1
  O2-  O149  1  0.08108946  0.88169330  0.71554617  1
  O2-  O150  1  0.46394612  0.23862672  0.21596086  1
  O2-  O151  1  0.41167413  0.15628280  0.69693240  1
  O2-  O152  1  0.45062948  0.56448794  0.22095677  1
  O2-  O153  1  0.41986675  0.65413728  0.69822328  1
  O2-  O154  1  0.44944225  0.89298910  0.21015487  1
  O2-  O155  1  0.44278930  0.89066592  0.72931910  1
  O2-  O156  1  0.78324123  0.27352778  0.13562482  1
  O2-  O157  1  0.75060059  0.21275500  0.70147400  1
  O2-  O158  1  0.79693140  0.56601911  0.21247215  1
  O2-  O159  1  0.73974863  0.57895607  0.70583295  1
  O2-  O160  1  0.76132672  0.89087837  0.21818202  1
  O2-  O161  1  0.81190565  0.88781076  0.73882575  1
  O2-  O162  1  0.22933641  0.12711326  0.27796988  1
  O2-  O163  1  0.22266258  0.09801523  0.78007928  1
  O2-  O164  1  0.22840765  0.44691408  0.27934340  1
  O2-  O165  1  0.20782589  0.44645962  0.78150517  1
  O2-  O166  1  0.21931093  0.78476839  0.25063226  1
  O2-  O167  1  0.21557033  0.79074650  0.74624037  1
  O2-  O168  1  0.58152390  0.12887612  0.26240401  1
  O2-  O169  1  0.54925605  0.10537603  0.79342115  1
  O2-  O170  1  0.57739166  0.46342133  0.27458157  1
  O2-  O171  1  0.57390310  0.52974187  0.83101689  1
  O2-  O172  1  0.63574392  0.82227567  0.24237445  1
  O2-  O173  1  0.59571692  0.81156657  0.78928004  1
  O2-  O174  1  0.87791066  0.10249814  0.28388758  1
  O2-  O175  1  0.93092253  0.09843817  0.79586629  1
  O2-  O176  1  0.90830601  0.44892248  0.29500613  1
  O2-  O177  1  0.88308221  0.42576039  0.79112954  1
  O2-  O178  1  0.88272439  0.80496311  0.26450390  1
  O2-  O179  1  0.89076180  0.75110612  0.81016010  1
  O2-  O180  1  0.21607940  0.12808217  0.45983203  1
  O2-  O181  1  0.22435269  0.10266550  0.96764117  1
  O2-  O182  1  0.22287319  0.45085688  0.45948153  1
  O2-  O183  1  0.23426327  0.43411585  0.97871475  1
  O2-  O184  1  0.24420747  0.77735112  0.43369084  1
  O2-  O185  1  0.21943873  0.77674045  0.99415722  1
  O2-  O186  1  0.54591940  0.07867683  0.45415035  1
  O2-  O187  1  0.55122998  0.10582973  0.97804480  1
  O2-  O188  1  0.55907203  0.42146081  0.46028513  1
  O2-  O189  1  0.55140294  0.43936573  0.99349876  1
  O2-  O190  1  0.59955138  0.80131055  0.41826623  1
  O2-  O191  1  0.55981428  0.77976282  0.97220267  1
  O2-  O192  1  0.89300368  0.11514047  0.48197365  1
  O2-  O193  1  0.89761184  0.11465095  0.98426429  1
  O2-  O194  1  0.89915775  0.42697542  0.47897644  1
  O2-  O195  1  0.86024756  0.43262733  0.96240327  1
  O2-  O196  1  0.90427439  0.80131262  0.44633104  1
  O2-  O197  1  0.88923027  0.79217836  0.98155391  1
  O2-  O198  1  0.11689602  0.20870361  0.03915431  1
  O2-  O199  1  0.10966604  0.22775161  0.54338054  1
  O2-  O200  1  0.07455343  0.55369830  0.03544902  1
  O2-  O201  1  0.09740169  0.52399026  0.54701863  1
  O2-  O202  1  0.10147210  0.89362994  0.02527869  1
  O2-  O203  1  0.10239124  0.92963201  0.53312415  1
  O2-  O204  1  0.43940702  0.21518974  0.03261140  1
  O2-  O205  1  0.42752800  0.18655496  0.51046387  1
  O2-  O206  1  0.44846562  0.55969585  0.03612539  1
  O2-  O207  1  0.51042108  0.63239920  0.54288826  1
  O2-  O208  1  0.43842984  0.88379603  0.02982884  1
  O2-  O209  1  0.42784287  0.85319153  0.54670580  1
  O2-  O210  1  0.74178532  0.17000477  0.07906065  1
  O2-  O211  1  0.76336650  0.21256880  0.52553654  1
  O2-  O212  1  0.77038842  0.53169099  0.03006015  1
  O2-  O213  1  0.75347167  0.50574777  0.54109041  1
  O2-  O214  1  0.77293337  0.88598283  0.03079268  1
  O2-  O215  1  0.80272750  0.90943330  0.55216345  1
