# generated using pymatgen
data_H2O
_symmetry_space_group_name_H-M   'P 1'
_cell_length_a   13.50250726
_cell_length_b   13.51316491
_cell_length_c   14.68301973
_cell_angle_alpha   90.01353782
_cell_angle_beta   90.03430101
_cell_angle_gamma   120.04466287
_symmetry_Int_Tables_number   1
_chemical_formula_structural   H2O
_chemical_formula_sum   'H144 O72'
_cell_volume   2319.11197287
_cell_formula_units_Z   72
loop_
 _symmetry_equiv_pos_site_id
 _symmetry_equiv_pos_as_xyz
  1  'x, y, z'
loop_
 _atom_type_symbol
 _atom_type_oxidation_number
  H+  1.0
  O2-  -2.0
loop_
 _atom_site_type_symbol
 _atom_site_label
 _atom_site_symmetry_multiplicity
 _atom_site_fract_x
 _atom_site_fract_y
 _atom_site_fract_z
 _atom_site_occupancy
  H+  H0  1  0.34936167  0.85538355  0.75119184  1
  H+  H1  1  0.49751303  0.53128496  0.21927276  1
  H+  H2  1  0.83450887  0.19915414  0.02697634  1
  H+  H3  1  0.84125525  0.52666463  0.20469153  1
  H+  H4  1  0.20143126  0.50444612  0.74375126  1
  H+  H5  1  0.50521184  0.81035745  0.25371692  1
  H+  H6  1  0.28279079  0.84528523  0.97151350  1
  H+  H7  1  0.18380563  0.03682287  0.49266942  1
  H+  H8  1  0.86250976  0.16810993  0.51228488  1
  H+  H9  1  0.50552089  0.82182126  0.76211908  1
  H+  H10  1  0.15890288  0.65574621  1.00756598  1
  H+  H11  1  0.66614180  0.19928874  0.98416536  1
  H+  H12  1  0.82505228  0.14073784  0.27599394  1
  H+  H13  1  0.14336821  0.85294570  0.49871279  1
  H+  H14  1  0.30765053  0.48587195  0.25259269  1
  H+  H15  1  0.83360196  0.55570517  0.74487994  1
  H+  H16  1  0.02936972  0.83811487  0.03710995  1
  H+  H17  1  0.23633800  0.12034257  0.40702085  1
  H+  H18  1  0.54038434  0.18553043  0.98889487  1
  H+  H19  1  0.47533421  0.28821206  0.02720762  1
  H+  H20  1  0.37136755  0.18436850  0.75570714  1
  H+  H21  1  0.58354840  0.77565773  0.87926882  1
  H+  H22  1  -0.01706293  0.15800416  0.00237291  1
  H+  H23  1  0.22349700  0.05168930  0.26834528  1
  H+  H24  1  0.36567078  0.18305489  0.51986941  1
  H+  H25  1  0.84609811  0.83731652  0.76961266  1
  H+  H26  1  0.51996012  0.38357140  0.76234514  1
  H+  H27  1  0.63720616  0.50215231  0.75701079  1
  H+  H28  1  0.29052357  0.83507693  0.23289645  1
  H+  H29  1  0.86464946  0.04502373  1.02182526  1
  H+  H30  1  0.15370909  0.64137272  0.73194434  1
  H+  H31  1  0.16421170  0.16226212  0.01343712  1
  H+  H32  1  0.30171913  0.12769336  0.00885428  1
  H+  H33  1  0.86437005  0.37983085  -0.00862947  1
  H+  H34  1  0.81575358  0.31328726  0.25425916  1
  H+  H35  1  0.80546415  -0.03830310  0.27367172  1
  H+  H36  1  0.82861982  0.03158312  0.78158951  1
  H+  H37  1  0.84833146  0.72036307  0.76384801  1
  H+  H38  1  0.96779075  0.81866954  0.46716477  1
  H+  H39  1  0.80454738  0.15848726  0.77529685  1
  H+  H40  1  0.81511497  0.63804116  0.49975560  1
  H+  H41  1  0.17040597  0.30090338  0.24430728  1
  H+  H42  1  0.51231142  0.70401158  0.75370808  1
  H+  H43  1  0.98918502  0.52000313  0.75658679  1
  H+  H44  1  0.38363797  0.21167136  0.25791834  1
  H+  H45  1  0.18285656  0.49554569  0.47785605  1
  H+  H46  1  0.45467415  0.96961230  0.00901825  1
  H+  H47  1  0.84569923  0.48546859  0.50035084  1
  H+  H48  1  0.49507787  0.53433667  0.74814199  1
  H+  H49  1  0.50130242  0.21227264  0.26553551  1
  H+  H50  1  0.18107625  0.00857645  1.01116696  1
  H+  H51  1  0.65526511  0.75485339  0.49154093  1
  H+  H52  1  0.35216671  0.51038861  -0.00435295  1
  H+  H53  1  0.50524494  0.46333592  1.00327311  1
  H+  H54  1  0.56473950  0.13430347  0.38453929  1
  H+  H55  1  0.11958588  0.11666160  0.72759750  1
  H+  H56  1  0.29969625  0.84045412  0.48011769  1
  H+  H57  1  0.44807370  0.84128133  0.51103796  1
  H+  H58  1  0.14197716  0.82834990  0.02030045  1
  H+  H59  1  0.65106168  0.72980072  0.93733017  1
  H+  H60  1  0.50525719  0.69295026  0.25301733  1
  H+  H61  1  0.46848459  0.97334777  0.75219660  1
  H+  H62  1  0.47893000  0.77490243  0.00182908  1
  H+  H63  1  0.02507042  0.86562849  0.73300620  1
  H+  H64  1  0.81409054  0.63582571  0.98577276  1
  H+  H65  1  0.69315791  0.83934807  0.26699107  1
  H+  H66  1  0.51989785  0.49422730  0.51647233  1
  H+  H67  1  0.03968889  0.53421419  0.00662447  1
  H+  H68  1  0.19775990  0.29175316  0.02454043  1
  H+  H69  1  0.35045512  0.74860476  -0.00572472  1
  H+  H70  1  0.15216530  0.65326095  0.49235597  1
  H+  H71  1  0.50943717  1.05363341  0.29953701  1
  H+  H72  1  0.47885903  0.61588380  -0.01175103  1
  H+  H73  1  0.46195897  0.61748868  0.51488045  1
  H+  H74  1  0.03614419  0.53233403  0.50623250  1
  H+  H75  1  0.20141571  0.38872943  0.48428449  1
  H+  H76  1  0.20226830  0.16111691  0.26462504  1
  H+  H77  1  0.35574059  0.66192198  0.43974998  1
  H+  H78  1  0.19355606  1.02056036  0.76600308  1
  H+  H79  1  0.43603440  -0.02344804  0.96220228  1
  H+  H80  1  0.84068414  0.81768235  0.33323823  1
  H+  H81  1  -0.14459743  0.49353511  -0.01932211  1
  H+  H82  1  0.17638135  0.50819159  0.98665583  1
  H+  H83  1  0.14830151  0.38319120  0.95666605  1
  H+  H84  1  1.05515342  0.21215734  0.50895429  1
  H+  H85  1  0.67585774  0.16732166  0.75593113  1
  H+  H86  1  0.70439695  0.18947336  0.53761326  1
  H+  H87  1  0.15126906  0.50390401  0.23259103  1
  H+  H88  1  0.69818056  0.51950518  0.51091277  1
  H+  H89  1  0.88693008  0.89721293  0.53097264  1
  H+  H90  1  0.51293347  0.15518386  0.76097633  1
  H+  H91  1  0.16853178  0.20345244  0.50783872  1
  H+  H92  1  0.44446562  0.22555076  0.66386552  1
  H+  H93  1  0.62682016  0.46853855  0.99882646  1
  H+  H94  1  0.67592266  0.80970815  0.46566348  1
  H+  H95  1  1.09686143  0.17694485  0.64530490  1
  H+  H96  1  0.52222332  0.16364010  0.51649909  1
  H+  H97  1  0.99142835  0.49363537  0.25510604  1
  H+  H98  1  0.88820062  1.06483641  0.51132168  1
  H+  H99  1  0.48291573  0.30453318  0.52780021  1
  H+  H100  1  0.12473014  0.83802962  0.73898139  1
  H+  H101  1  0.85771388  0.83119596  0.00604479  1
  H+  H102  1  0.69468019  0.20018424  0.25730017  1
  H+  H103  1  0.54353783  0.39188033  0.24752281  1
  H+  H104  1  0.68976849  0.85973266  0.73789247  1
  H+  H105  1  0.52159666  0.04431308  0.51133696  1
  H+  H106  1  0.73101859  0.53880602  0.20322800  1
  H+  H107  1  0.22876743  0.44990917  0.34277126  1
  H+  H108  1  0.44103892  0.55957541  0.13563263  1
  H+  H109  1  0.17465274  0.76260731  0.86850012  1
  H+  H110  1  0.77415256  0.21501653  0.67389889  1
  H+  H111  1  0.42741073  0.89208193  0.60386744  1
  H+  H112  1  0.46624165  0.57241170  0.61720214  1
  H+  H113  1  0.56183292  0.12938981  0.85178315  1
  H+  H114  1  0.71847372  0.86851741  0.04353961  1
  H+  H115  1  0.44459301  0.20997911  0.11403657  1
  H+  H116  1  0.86673776  0.10978227  0.87513551  1
  H+  H117  1  0.79775622  0.91448110  0.66636879  1
  H+  H118  1  0.37278725  0.53437882  0.74402714  1
  H+  H119  1  0.47030585  0.94283913  0.17147724  1
  H+  H120  1  0.61827899  0.50194272  0.31127194  1
  H+  H121  1  0.11363540  0.55256701  0.14679130  1
  H+  H122  1  0.78493337  0.57889830  0.65306492  1
  H+  H123  1  0.12806271  0.57519516  0.63583787  1
  H+  H124  1  0.78644094  0.24000166  0.10971094  1
  H+  H125  1  0.82218065  0.30773904  0.54152427  1
  H+  H126  1  0.89340127  0.80095567  0.90903261  1
  H+  H127  1  0.92165414  0.49388953  0.85267624  1
  H+  H128  1  0.92459227  0.53666457  0.31821946  1
  H+  H129  1  0.95974569  0.99676507  0.60646883  1
  H+  H130  1  0.23726477  0.47571483  0.83818633  1
  H+  H131  1  0.78935488  0.89492016  0.13646182  1
  H+  H132  1  0.88023533  0.42625887  0.42163248  1
  H+  H133  1  0.15913675  0.88230382  0.16592771  1
  H+  H134  1  0.41700558  0.82032418  0.12887413  1
  H+  H135  1  0.22600835  0.80970211  0.38683483  1
  H+  H136  1  0.22749174  0.08925747  0.86068391  1
  H+  H137  1  0.47466590  0.73879421  0.39091325  1
  H+  H138  1  0.79183541  0.56075389  0.07294609  1
  H+  H139  1  0.52390699  0.42786275  0.42710258  1
  H+  H140  1  0.09827129  0.88469771  0.58955072  1
  H+  H141  1  0.87171503  0.11126198  0.36594787  1
  H+  H142  1  0.12973019  0.21478636  0.16044937  1
  H+  H143  1  0.06377124  0.68243413  0.80694492  1
  O2-  O144  1  0.13758340  0.21875622  0.22720843  1
  O2-  O145  1  0.05888207  0.11037117  0.68646827  1
  O2-  O146  1  0.10762540  0.54233954  0.21407656  1
  O2-  O147  1  0.12566380  0.56507528  0.70341909  1
  O2-  O148  1  0.20232462  0.91298586  0.22510848  1
  O2-  O149  1  0.10281485  0.89059206  0.70765724  1
  O2-  O150  1  0.46543432  0.25231013  0.23535859  1
  O2-  O151  1  0.45151932  0.22890363  0.73159953  1
  O2-  O152  1  0.44784386  0.56368359  0.20355253  1
  O2-  O153  1  0.45739995  0.57911467  0.72549757  1
  O2-  O154  1  0.42554139  0.86247640  0.18834750  1
  O2-  O155  1  0.42727112  0.89240874  0.72725156  1
  O2-  O156  1  0.77213039  0.23502080  0.22984083  1
  O2-  O157  1  0.76238295  0.20633277  0.74226147  1
  O2-  O158  1  0.81001760  0.57300960  0.17980436  1
  O2-  O159  1  0.78290106  0.58386655  0.72033720  1
  O2-  O160  1  0.77639976  0.87921473  0.25369705  1
  O2-  O161  1  0.77503488  0.90467378  0.73183567  1
  O2-  O162  1  0.25090354  0.12919082  0.29260398  1
  O2-  O163  1  0.23391935  0.09861477  0.79334968  1
  O2-  O164  1  0.22716402  0.44260038  0.27404100  1
  O2-  O165  1  0.24508030  0.47065460  0.77182449  1
  O2-  O166  1  0.21782646  0.82083800  0.26224483  1
  O2-  O167  1  0.14438103  0.74486532  0.80017476  1
  O2-  O168  1  0.55932412  0.13371458  0.31533669  1
  O2-  O169  1  0.54848047  0.10901964  0.78373243  1
  O2-  O170  1  0.58914430  0.47867378  0.24968525  1
  O2-  O171  1  0.55655856  0.46578621  0.77754246  1
  O2-  O172  1  0.53721854  0.76818336  0.28600615  1
  O2-  O173  1  0.55384805  0.78766562  0.77657524  1
  O2-  O174  1  0.85161807  0.09038643  0.30090761  1
  O2-  O175  1  0.85578246  0.10998112  0.80782696  1
  O2-  O176  1  0.91196911  0.46781688  0.28659179  1
  O2-  O177  1  0.93470000  0.53330049  0.79259589  1
  O2-  O178  1  0.87400214  0.77012460  0.35534144  1
  O2-  O179  1  0.89065546  0.80007471  0.78920857  1
  O2-  O180  1  0.23229505  0.11876129  0.47532406  1
  O2-  O181  1  0.22114592  0.08736541  0.98417084  1
  O2-  O182  1  0.22970293  0.46408303  0.45333854  1
  O2-  O183  1  0.21152947  0.46161538  0.95981974  1
  O2-  O184  1  0.22103334  0.79671481  0.45366155  1
  O2-  O185  1  0.20811135  0.77699818  0.96499073  1
  O2-  O186  1  0.56741840  0.12701616  0.49427074  1
  O2-  O187  1  0.59680423  0.18084497  0.94837372  1
  O2-  O188  1  0.55229696  0.44293918  0.48937194  1
  O2-  O189  1  0.54278082  0.41687205  1.00207153  1
  O2-  O190  1  0.43467126  0.72154189  0.45167276  1
  O2-  O191  1  0.59922016  0.75999957  0.94439892  1
  O2-  O192  1  0.90739413  0.13830587  0.48081641  1
  O2-  O193  1  0.89957625  0.12047719  0.99009051  1
  O2-  O194  1  0.88645613  0.44150472  0.48756777  1
  O2-  O195  1  0.90449837  0.45873649  0.96564787  1
  O2-  O196  1  0.88302035  0.78461779  0.45526462  1
  O2-  O197  1  0.88986661  0.78760676  0.97627554  1
  O2-  O198  1  0.13319029  0.21455757  0.03191510  1
  O2-  O199  1  0.13593104  0.25037613  0.53082060  1
  O2-  O200  1  0.12096040  0.57239360  0.02896241  1
  O2-  O201  1  0.11950511  0.57574895  0.51983016  1
  O2-  O202  1  0.11016577  0.87119097  0.05676103  1
  O2-  O203  1  0.09794088  0.88805763  0.52121833  1
  O2-  O204  1  0.43706424  0.20441854  0.04686322  1
  O2-  O205  1  0.44532771  0.22229162  0.54620445  1
  O2-  O206  1  0.43169962  0.54162737  0.01864478  1
  O2-  O207  1  0.47853398  0.56556980  0.55026393  1
  O2-  O208  1  0.40879460  0.75300534  0.03652182  1
  O2-  O209  1  0.43236261  0.90074863  0.53638272  1
  O2-  O210  1  0.79669685  0.24406074  0.04237190  1
  O2-  O211  1  0.78377517  0.22694309  0.56329932  1
  O2-  O212  1  0.77858075  0.55439100  0.00456816  1
  O2-  O213  1  0.78096987  0.56113100  0.52821241  1
  O2-  O214  1  0.79641836  0.90624780  0.06813624  1
  O2-  O215  1  0.88622932  0.95472391  0.57217084  1
