# generated using pymatgen
data_H2O
_symmetry_space_group_name_H-M   'P 1'
_cell_length_a   13.51329627
_cell_length_b   13.52738418
_cell_length_c   14.71401867
_cell_angle_alpha   89.97327685
_cell_angle_beta   90.05167347
_cell_angle_gamma   119.97728645
_symmetry_Int_Tables_number   1
_chemical_formula_structural   H2O
_chemical_formula_sum   'H144 O72'
_cell_volume   2329.89438548
_cell_formula_units_Z   72
loop_
 _symmetry_equiv_pos_site_id
 _symmetry_equiv_pos_as_xyz
  1  'x, y, z'
loop_
 _atom_type_symbol
 _atom_type_oxidation_number
  H+  1.0
  O2-  -2.0
loop_
 _atom_site_type_symbol
 _atom_site_label
 _atom_site_symmetry_multiplicity
 _atom_site_fract_x
 _atom_site_fract_y
 _atom_site_fract_z
 _atom_site_occupancy
  H+  H0  1  1.01446552  0.25889406  0.92892893  1
  H+  H1  1  0.83326789  0.86750709  0.48379464  1
  H+  H2  1  0.16580530  0.86369825  0.76401248  1
  H+  H3  1  0.16897481  0.01280079  0.26196225  1
  H+  H4  1  0.88146962  0.39010875  0.51311246  1
  H+  H5  1  0.48628096  0.50643890  0.73695010  1
  H+  H6  1  0.45274474  0.29785482  -0.00478839  1
  H+  H7  1  0.21471360  0.77678684  0.87280222  1
  H+  H8  1  0.16116246  0.52143053  0.74156097  1
  H+  H9  1  0.09313199  0.60214964  0.22101245  1
  H+  H10  1  0.16368929  0.49450040  0.26346839  1
  H+  H11  1  0.49488698  0.62564611  0.74679000  1
  H+  H12  1  0.29173600  0.80434620  1.00482359  1
  H+  H13  1  0.17002779  0.19227080  0.75203770  1
  H+  H14  1  0.84863023  0.35994787  0.29766620  1
  H+  H15  1  0.84066178  0.39337044  -0.01739031  1
  H+  H16  1  0.80868876  0.52524419  0.73820957  1
  H+  H17  1  0.14763078  0.83821936  0.24147083  1
  H+  H18  1  0.16268367  0.17358045  0.51439324  1
  H+  H19  1  0.04543829  0.19601987  0.52274337  1
  H+  H20  1  0.35885818  0.51743051  0.25492862  1
  H+  H21  1  1.10601120  0.21645430  1.01175867  1
  H+  H22  1  0.50533348  0.15248307  0.23708446  1
  H+  H23  1  0.82321986  -0.01547610  0.48145952  1
  H+  H24  1  0.31339539  0.49734640  0.71454807  1
  H+  H25  1  0.34669814  0.16480024  0.22919165  1
  H+  H26  1  0.68549042  0.82934837  0.26094482  1
  H+  H27  1  0.83326847  0.80501456  0.01042832  1
  H+  H28  1  0.50356194  0.94274120  0.79901090  1
  H+  H29  1  0.56458162  0.79986403  0.80642875  1
  H+  H30  1  0.08979649  0.53593137  0.11152680  1
  H+  H31  1  0.95139814  0.80473438  0.99341023  1
  H+  H32  1  0.51341061  0.81508079  0.46814133  1
  H+  H33  1  0.48285026  0.84804903  0.24669138  1
  H+  H34  1  0.59684337  0.13885455  -0.02967340  1
  H+  H35  1  0.30953224  0.82099263  0.27025165  1
  H+  H36  1  0.46044907  0.48902032  1.02783128  1
  H+  H37  1  0.14775585  0.86488541  0.52289460  1
  H+  H38  1  0.87191299  1.04703578  0.73552230  1
  H+  H39  1  0.13071351  0.83456767  0.00589672  1
  H+  H40  1  0.14721532  0.62839331  0.77913119  1
  H+  H41  1  0.81575023  0.15459569  0.25935334  1
  H+  H42  1  0.17361640  0.71138868  0.50221372  1
  H+  H43  1  0.66440548  0.81263651  0.03972976  1
  H+  H44  1  0.54529308  0.42962122  0.39244809  1
  H+  H45  1  -0.03146958  0.84257946  0.49127295  1
  H+  H46  1  0.50681370  0.68842818  0.25838304  1
  H+  H47  1  0.18292569  0.03918027  0.50299601  1
  H+  H48  1  0.79321656  0.63239959  0.02324301  1
  H+  H49  1  0.63160042  0.48393687  0.76149063  1
  H+  H50  1  0.05385683  0.87200522  0.76631715  1
  H+  H51  1  0.92542004  0.45774230  0.41802057  1
  H+  H52  1  0.61934348  0.47344741  1.00256700  1
  H+  H53  1  0.46397798  0.85574337  0.72025068  1
  H+  H54  1  0.77669541  0.93518316  0.03774595  1
  H+  H55  1  0.02594064  0.82893497  0.22710820  1
  H+  H56  1  0.42924254  0.53666006  0.16287442  1
  H+  H57  1  0.63830750  0.82502943  0.48230963  1
  H+  H58  1  1.03271011  0.16482432  0.22799332  1
  H+  H59  1  0.35164335  0.84131948  0.46425012  1
  H+  H60  1  0.56652830  0.12654665  0.37581529  1
  H+  H61  1  0.19475890  0.37969759  0.71747891  1
  H+  H62  1  0.50422052  0.47047762  0.26360865  1
  H+  H63  1  0.92890059  0.14522524  0.98379180  1
  H+  H64  1  0.83048601  0.81744112  0.77067279  1
  H+  H65  1  0.04755741  0.52599832  0.52167404  1
  H+  H66  1  0.45520878  0.60206065  0.03504749  1
  H+  H67  1  0.62783156  0.15499657  0.24246192  1
  H+  H68  1  0.95441252  0.48238126  0.76362955  1
  H+  H69  1  0.46815328  -0.04383303  0.44880160  1
  H+  H70  1  0.50941409  0.47586144  0.48059128  1
  H+  H71  1  0.49170067  0.64071849  0.50661616  1
  H+  H72  1  0.16917266  0.68801778  1.00439946  1
  H+  H73  1  0.17537418  0.38093985  0.27897940  1
  H+  H74  1  0.65687359  0.75374031  0.81965055  1
  H+  H75  1  0.23051946  0.22139108  0.02948865  1
  H+  H76  1  0.83252807  0.77966033  0.23939812  1
  H+  H77  1  0.10639552  0.50030969  0.00690946  1
  H+  H78  1  0.84216654  -0.00279851  0.26318206  1
  H+  H79  1  0.48055697  0.19076762  0.50727063  1
  H+  H80  1  0.48392796  0.19082464  0.73305529  1
  H+  H81  1  0.63201741  0.14809761  0.75026960  1
  H+  H82  1  0.49710554  0.79156913  1.01489760  1
  H+  H83  1  0.81087974  0.30537383  0.75519443  1
  H+  H84  1  0.30098724  0.81060559  0.79090928  1
  H+  H85  1  0.78596783  0.63096293  0.75015262  1
  H+  H86  1  0.81974068  0.18951535  0.74887068  1
  H+  H87  1  0.51357401  0.36568051  0.76366004  1
  H+  H88  1  0.45097051  0.55805995  0.59428570  1
  H+  H89  1  0.31631103  0.17012637  0.76860916  1
  H+  H90  1  0.17170932  0.41789809  -0.09903969  1
  H+  H91  1  0.84820345  0.72788751  0.48236997  1
  H+  H92  1  0.30243750  0.16005227  0.49367726  1
  H+  H93  1  0.69903819  0.54079589  0.49904279  1
  H+  H94  1  0.50117616  0.35196716  0.25549570  1
  H+  H95  1  0.76752770  0.20624366  0.03977207  1
  H+  H96  1  0.80317599  0.52267351  1.02452699  1
  H+  H97  1  0.52155275  0.06333893  0.69508736  1
  H+  H98  1  0.15161534  0.16799488  0.24317763  1
  H+  H99  1  0.71087754  0.21127158  0.52073678  1
  H+  H100  1  0.63192042  0.08230843  0.43339503  1
  H+  H101  1  0.97215470  0.46482424  0.27186107  1
  H+  H102  1  0.86959621  0.19042228  0.50901068  1
  H+  H103  1  0.19969201  0.52364354  0.50393698  1
  H+  H104  1  0.47053040  0.94361306  0.00976401  1
  H+  H105  1  0.73572800  0.87885326  0.69765584  1
  H+  H106  1  0.08269275  0.44505774  0.85809150  1
  H+  H107  1  0.20193882  0.05296566  0.78698979  1
  H+  H108  1  0.90494001  0.08550470  0.34406150  1
  H+  H109  1  0.76923517  0.58470179  0.59027242  1
  H+  H110  1  0.22825103  0.47813119  0.40195631  1
  H+  H111  1  0.13119153  0.57282727  0.61153250  1
  H+  H112  1  0.12772106  0.21805142  0.61684359  1
  H+  H113  1  0.41550400  0.20681169  0.13539686  1
  H+  H114  1  0.21047221  0.69495398  0.28368676  1
  H+  H115  1  0.11784390  0.90940906  0.61402464  1
  H+  H116  1  0.48436652  0.31152414  0.50192130  1
  H+  H117  1  0.48688791  0.93677279  0.61176898  1
  H+  H118  1  0.81642396  0.91906403  0.61485177  1
  H+  H119  1  0.70599207  0.26932720  0.07705690  1
  H+  H120  1  0.19874358  0.78201986  0.40953373  1
  H+  H121  1  0.91803586  0.11810579  0.82925825  1
  H+  H122  1  0.28625945  0.16176076  0.91791023  1
  H+  H123  1  0.79415405  0.59793021  0.16773522  1
  H+  H124  1  0.54736395  0.76564568  0.34823339  1
  H+  H125  1  0.50306313  0.08362180  0.89442721  1
  H+  H126  1  1.04792930  0.18898286  0.73788070  1
  H+  H127  1  0.96190021  0.50693064  0.99608796  1
  H+  H128  1  0.14952595  0.23127082  0.12255945  1
  H+  H129  1  0.42326282  0.89500426  0.61693472  1
  H+  H130  1  0.21347395  0.09885792  0.34817083  1
  H+  H131  1  0.95351166  0.23779807  0.42832181  1
  H+  H132  1  0.83105340  0.24775962  0.18984460  1
  H+  H133  1  0.87619028  0.45807231  0.84940838  1
  H+  H134  1  0.55139201  0.44393593  0.90681290  1
  H+  H135  1  0.44250230  0.23275053  0.64686900  1
  H+  H136  1  0.09566633  0.88108263  0.08947431  1
  H+  H137  1  0.48274925  0.96772616  0.24005116  1
  H+  H138  1  0.76106117  0.86472831  0.17247074  1
  H+  H139  1  0.54426277  0.73927422  0.93806374  1
  H+  H140  1  0.32466487  0.51672067  0.49317496  1
  H+  H141  1  0.77537294  0.23279670  0.61756266  1
  H+  H142  1  0.43646767  0.87757219  0.10594574  1
  H+  H143  1  0.82653917  0.76315635  0.87064115  1
  O2-  O144  1  0.11608436  0.21198976  0.21552710  1
  O2-  O145  1  0.12974407  0.22668406  0.71768301  1
  O2-  O146  1  0.09233698  0.53039183  0.21198194  1
  O2-  O147  1  0.10477990  0.54571456  0.76326352  1
  O2-  O148  1  0.11026777  0.88090120  0.21998233  1
  O2-  O149  1  0.13151340  0.91088630  0.74236198  1
  O2-  O150  1  0.42483713  0.20594124  0.20246126  1
  O2-  O151  1  0.44264235  0.23118377  0.71501063  1
  O2-  O152  1  0.43767955  0.55029553  0.23148670  1
  O2-  O153  1  0.45542404  0.55435547  0.71021686  1
  O2-  O154  1  0.44018381  0.88557592  0.22273710  1
  O2-  O155  1  0.46897805  0.86039173  0.78670351  1
  O2-  O156  1  0.78302667  0.20378458  0.24067601  1
  O2-  O157  1  0.77206880  0.22400657  0.73227453  1
  O2-  O158  1  0.82183910  0.62934488  0.23018583  1
  O2-  O159  1  0.76210857  0.55884396  0.71662057  1
  O2-  O160  1  0.76794697  0.86693581  0.24031054  1
  O2-  O161  1  0.81730031  0.91945059  0.68419343  1
  O2-  O162  1  0.20989447  0.09587327  0.28099564  1
  O2-  O163  1  0.24237566  0.13558408  0.80337733  1
  O2-  O164  1  0.21002217  0.46107879  0.29794313  1
  O2-  O165  1  0.22878339  0.46255314  0.70762004  1
  O2-  O166  1  0.22812688  0.77391346  0.29244824  1
  O2-  O167  1  0.21926393  0.78021816  0.80334577  1
  O2-  O168  1  0.54800599  0.11570173  0.26418452  1
  O2-  O169  1  0.54586234  0.10125010  0.75413179  1
  O2-  O170  1  0.54085603  0.42695440  0.28582086  1
  O2-  O171  1  0.55225974  0.44493414  0.78820971  1
  O2-  O172  1  0.54787543  0.77032926  0.28039349  1
  O2-  O173  1  0.57580415  0.73591172  0.82466013  1
  O2-  O174  1  0.89036130  0.08283027  0.27871423  1
  O2-  O175  1  0.90737610  0.12533776  0.76373419  1
  O2-  O176  1  0.90333359  0.43921094  0.31266452  1
  O2-  O177  1  0.87266475  0.44455610  0.78196992  1
  O2-  O178  1  0.88197999  0.75204724  0.21211776  1
  O2-  O179  1  0.78703266  0.75017606  0.80949834  1
  O2-  O180  1  0.21921416  0.11896104  0.47575911  1
  O2-  O181  1  0.28955512  0.16894423  0.98624779  1
  O2-  O182  1  0.23975641  0.48395947  0.47198942  1
  O2-  O183  1  0.09276717  0.40064274  0.90784848  1
  O2-  O184  1  0.20450955  0.78990598  0.47693142  1
  O2-  O185  1  0.21219404  0.76779652  0.97973783  1
  O2-  O186  1  0.58394418  0.11682712  0.44121569  1
  O2-  O187  1  0.52652854  0.06882837  0.95311618  1
  O2-  O188  1  0.54711120  0.43230418  0.46227605  1
  O2-  O189  1  0.54153467  0.43257283  0.97406031  1
  O2-  O190  1  0.55714116  0.77299793  0.46495031  1
  O2-  O191  1  0.53800646  0.74731771  1.00485775  1
  O2-  O192  1  0.92536480  0.17623400  0.47313302  1
  O2-  O193  1  0.99331677  0.17750419  0.94179570  1
  O2-  O194  1  0.93517920  0.46495338  0.48683978  1
  O2-  O195  1  0.88459897  0.47435116  0.96485904  1
  O2-  O196  1  0.89413005  0.80935757  0.46005740  1
  O2-  O197  1  0.86704200  0.76588677  0.97609135  1
  O2-  O198  1  0.17511673  0.25034129  0.05258188  1
  O2-  O199  1  0.12421177  0.21790855  0.54591087  1
  O2-  O200  1  0.08727214  0.55101255  0.04082891  1
  O2-  O201  1  0.13425851  0.57584415  0.54491510  1
  O2-  O202  1  0.08549024  0.87120033  0.02305885  1
  O2-  O203  1  0.11507499  0.91225887  0.54688056  1
  O2-  O204  1  0.40925710  0.21321282  0.01309600  1
  O2-  O205  1  0.44027270  0.22946373  0.52900042  1
  O2-  O206  1  0.41584804  0.52136024  0.05539936  1
  O2-  O207  1  0.44408129  0.55866778  0.52633816  1
  O2-  O208  1  0.43209516  0.86634715  0.03846356  1
  O2-  O209  1  0.43214765  0.87287615  0.44404187  1
  O2-  O210  1  0.73336720  0.25175945  0.02124539  1
  O2-  O211  1  0.78592751  0.23857157  0.54978853  1
  O2-  O212  1  0.75621220  0.55384004  0.05038386  1
  O2-  O213  1  0.77278602  0.59933139  0.52443700  1
  O2-  O214  1  0.74874585  0.85756724  0.05889719  1
  O2-  O215  1  0.78738334  0.90804070  0.50755279  1
