# generated using pymatgen
data_H2O
_symmetry_space_group_name_H-M   'P 1'
_cell_length_a   13.49914312
_cell_length_b   13.50850099
_cell_length_c   14.69739646
_cell_angle_alpha   89.96391747
_cell_angle_beta   89.98546419
_cell_angle_gamma   120.01800569
_symmetry_Int_Tables_number   1
_chemical_formula_structural   H2O
_chemical_formula_sum   'H144 O72'
_cell_volume   2320.62729437
_cell_formula_units_Z   72
loop_
 _symmetry_equiv_pos_site_id
 _symmetry_equiv_pos_as_xyz
  1  'x, y, z'
loop_
 _atom_type_symbol
 _atom_type_oxidation_number
  H+  1.0
  O2-  -2.0
loop_
 _atom_site_type_symbol
 _atom_site_label
 _atom_site_symmetry_multiplicity
 _atom_site_fract_x
 _atom_site_fract_y
 _atom_site_fract_z
 _atom_site_occupancy
  H+  H0  1  0.88013334  0.10722390  0.91025966  1
  H+  H1  1  0.81718266  0.18693286  0.77491025  1
  H+  H2  1  0.84413735  0.48487483  0.75354751  1
  H+  H3  1  0.51699205  0.70637218  0.74980684  1
  H+  H4  1  0.47569170  0.96101053  0.73316198  1
  H+  H5  1  0.16936971  0.13927627  -0.00133168  1
  H+  H6  1  0.63222797  0.14561892  0.48896780  1
  H+  H7  1  0.82045108  0.63595030  0.71889014  1
  H+  H8  1  0.29987091  0.14781847  0.26468914  1
  H+  H9  1  0.12998276  0.59928075  0.00183932  1
  H+  H10  1  0.16765417  0.45627904  0.99207874  1
  H+  H11  1  0.22016677  0.78241038  0.80969190  1
  H+  H12  1  0.84932348  0.81289498  -0.01037221  1
  H+  H13  1  0.50608867  0.82011617  0.48124877  1
  H+  H14  1  0.14946181  0.86461083  0.72490069  1
  H+  H15  1  0.36687668  0.85030286  0.26041681  1
  H+  H16  1  -0.03166903  0.48030965  0.27293285  1
  H+  H17  1  0.17958901  0.72701720  0.49932633  1
  H+  H18  1  0.84815277  1.02504416  0.23994931  1
  H+  H19  1  0.50603515  0.13574008  0.77902646  1
  H+  H20  1  0.95472523  0.17116313  0.48773503  1
  H+  H21  1  0.79960981  0.17879767  0.50420739  1
  H+  H22  1  0.42465784  0.95003610  0.04229958  1
  H+  H23  1  0.50916351  0.14091876  0.48366953  1
  H+  H24  1  0.69561382  0.50844385  0.24707206  1
  H+  H25  1  0.17825874  1.03064080  0.26288153  1
  H+  H26  1  0.36746595  0.18871530  0.78049515  1
  H+  H27  1  0.84454911  0.69346354  0.26244898  1
  H+  H28  1  0.10472153  0.21058884  0.66925602  1
  H+  H29  1  0.79498963  0.28943811  0.00404925  1
  H+  H30  1  0.95378858  0.14258258  1.00148989  1
  H+  H31  1  0.14940598  0.98232358  0.74080808  1
  H+  H32  1  0.02858489  0.17735238  0.22880520  1
  H+  H33  1  0.31169635  0.46955898  0.48124839  1
  H+  H34  1  0.30029166  0.81963806  0.72422773  1
  H+  H35  1  0.63655974  0.49732945  0.71972726  1
  H+  H36  1  0.87232111  0.44086982  0.90029968  1
  H+  H37  1  0.13858774  0.28134804  0.00823714  1
  H+  H38  1  0.49720832  0.45545015  1.00079238  1
  H+  H39  1  0.95676009  0.81316811  0.48666275  1
  H+  H40  1  -0.05610233  0.46359772  -0.00783242  1
  H+  H41  1  0.51761483  0.38236176  0.73416353  1
  H+  H42  1  0.88619669  0.77067304  0.84398379  1
  H+  H43  1  0.62253803  0.13575247  0.00136870  1
  H+  H44  1  0.63201208  0.14600688  0.26029924  1
  H+  H45  1  0.70242464  0.85780845  0.74116988  1
  H+  H46  1  0.02149794  0.84595137  0.24971083  1
  H+  H47  1  0.17840832  0.35397747  0.25290558  1
  H+  H48  1  0.79181219  0.29145099  0.51176038  1
  H+  H49  1  0.80354098  0.50823860  0.01103953  1
  H+  H50  1  0.18916819  0.52052887  0.23773252  1
  H+  H51  1  0.46592329  0.61121855  0.01352502  1
  H+  H52  1  -0.03506590  0.46253700  0.50457490  1
  H+  H53  1  0.77453782  0.53414106  0.44460028  1
  H+  H54  1  0.21808285  0.86881519  1.05876002  1
  H+  H55  1  0.63831935  0.49922305  0.50117103  1
  H+  H56  1  0.17071722  0.82135426  0.26733349  1
  H+  H57  1  0.84146405  0.86915018  0.51234959  1
  H+  H58  1  0.84222791  0.69112398  0.99091178  1
  H+  H59  1  0.13594739  0.62858683  0.72680181  1
  H+  H60  1  0.36651767  0.53015742  0.73389017  1
  H+  H61  1  0.47163153  0.28463135  0.02388109  1
  H+  H62  1  0.77006356  0.55029442  0.10154240  1
  H+  H63  1  0.48847376  0.96219661  0.25434966  1
  H+  H64  1  0.85489009  0.03637571  0.76828222  1
  H+  H65  1  0.14822264  0.86833459  0.51087887  1
  H+  H66  1  0.09825222  0.50465346  0.61598809  1
  H+  H67  1  0.69992235  0.84309415  0.00720380  1
  H+  H68  1  0.48555584  0.53011050  0.71958780  1
  H+  H69  1  0.48083526  0.62575174  0.24769628  1
  H+  H70  1  0.85006257  0.14448192  0.23984779  1
  H+  H71  1  0.83895642  0.68809155  0.48670203  1
  H+  H72  1  0.96607787  0.82193903  0.75611577  1
  H+  H73  1  0.49595484  0.97627873  0.49778228  1
  H+  H74  1  0.12868485  0.15256910  0.52591904  1
  H+  H75  1  0.18063410  0.48862452  0.76541429  1
  H+  H76  1  0.50944204  0.81113148  0.26622374  1
  H+  H77  1  0.28918637  0.13923182  1.00281507  1
  H+  H78  1  0.81296299  0.29651376  0.24233215  1
  H+  H79  1  0.81857839  0.85285078  0.74455310  1
  H+  H80  1  0.86064516  0.49136082  0.50213366  1
  H+  H81  1  0.48205513  0.17537296  0.25330143  1
  H+  H82  1  0.44357112  0.57138293  0.59180468  1
  H+  H83  1  0.48732061  0.29918486  0.50644974  1
  H+  H84  1  0.81552776  0.51164012  0.24623167  1
  H+  H85  1  0.27151341  0.78894871  1.06643868  1
  H+  H86  1  0.50167147  0.68916117  0.48599498  1
  H+  H87  1  0.36768729  0.18546451  0.49863829  1
  H+  H88  1  0.60716612  0.69118950  -0.06770183  1
  H+  H89  1  0.15060738  0.18130259  0.23778625  1
  H+  H90  1  0.47417408  0.26687676  0.84187398  1
  H+  H91  1  0.81310498  -0.03395871  1.01300661  1
  H+  H92  1  0.51537318  0.82319863  0.75420043  1
  H+  H93  1  0.51681596  0.35853200  0.27191463  1
  H+  H94  1  0.62965435  0.80822798  0.26193286  1
  H+  H95  1  0.17689218  0.40644941  0.49327243  1
  H+  H96  1  0.18609519  0.15980670  0.77227195  1
  H+  H97  1  0.61769600  0.46224008  1.00016573  1
  H+  H98  1  0.02725971  0.83989210  0.01338619  1
  H+  H99  1  0.69473825  0.17851017  0.77110712  1
  H+  H100  1  0.01715825  0.50991468  0.74641904  1
  H+  H101  1  0.37418122  0.85863640  0.50203283  1
  H+  H102  1  0.55642759  0.76074180  0.89040972  1
  H+  H103  1  0.49306783  0.53049008  0.50767592  1
  H+  H104  1  0.80092088  0.17320908  0.01056418  1
  H+  H105  1  0.84090361  0.36461041  0.77346521  1
  H+  H106  1  0.16086087  0.55047343  0.52184133  1
  H+  H107  1  0.28929323  0.46285033  0.99743765  1
  H+  H108  1  0.36379045  0.50378941  0.24737831  1
  H+  H109  1  0.25934113  0.63951274  0.18934645  1
  H+  H110  1  0.22559582  0.44690866  0.85011637  1
  H+  H111  1  0.53498821  0.07410143  0.85647803  1
  H+  H112  1  0.17960514  1.04032129  0.48765060  1
  H+  H113  1  0.45169763  0.89142872  0.63799362  1
  H+  H114  1  0.21167733  0.72635888  0.92304334  1
  H+  H115  1  0.76825061  0.22198480  0.15083566  1
  H+  H116  1  0.55783907  0.45423907  0.41326620  1
  H+  H117  1  0.10413151  0.21011072  0.10146907  1
  H+  H118  1  0.80601822  0.83616179  0.24228817  1
  H+  H119  1  0.21818862  0.79362078  0.40502782  1
  H+  H120  1  0.15617934  0.30987587  0.74748523  1
  H+  H121  1  0.21400851  0.10633978  0.85948761  1
  H+  H122  1  0.43180867  0.54141168  0.10801385  1
  H+  H123  1  0.13906712  0.96576289  0.01644088  1
  H+  H124  1  0.00334643  0.07477049  0.56443325  1
  H+  H125  1  0.84855657  0.05225122  0.48208202  1
  H+  H126  1  0.55474622  0.10496327  0.35139739  1
  H+  H127  1  0.80936593  0.91419650  0.60294333  1
  H+  H128  1  0.89169747  0.44271942  0.36226787  1
  H+  H129  1  0.18057057  0.70710841  0.27152844  1
  H+  H130  1  0.10152773  0.90610190  0.59622694  1
  H+  H131  1  0.76527661  0.87256305  0.15200412  1
  H+  H132  1  0.51758618  0.47717479  0.26604512  1
  H+  H133  1  0.09993217  0.88619991  0.16019369  1
  H+  H134  1  0.87944887  0.77245046  0.35233889  1
  H+  H135  1  0.54647076  0.77101599  0.38643946  1
  H+  H136  1  0.11564319  0.54362827  0.09920277  1
  H+  H137  1  0.22360272  0.42673513  0.34670904  1
  H+  H138  1  0.43923236  0.21448894  0.16617056  1
  H+  H139  1  0.97316710  0.15614556  0.77511574  1
  H+  H140  1  0.78750698  0.55827981  0.62926402  1
  H+  H141  1  0.27682978  0.75813415  0.91987731  1
  H+  H142  1  0.21590310  0.12071477  0.40038372  1
  H+  H143  1  0.46530476  0.16238364  0.02687997  1
  O2-  O144  1  0.11377724  0.22370364  0.21213888  1
  O2-  O145  1  0.11473460  0.22565709  0.73654365  1
  O2-  O146  1  0.18033445  0.58378438  0.20546046  1
  O2-  O147  1  0.09797655  0.54404159  0.72146716  1
  O2-  O148  1  0.10336851  0.88614484  0.22824592  1
  O2-  O149  1  0.10567066  0.90433535  0.71239499  1
  O2-  O150  1  0.44202855  0.21812034  0.23412942  1
  O2-  O151  1  0.45378300  0.23073538  0.78198062  1
  O2-  O152  1  0.44434442  0.54584511  0.22374372  1
  O2-  O153  1  0.44377031  0.57382706  0.70535168  1
  O2-  O154  1  0.44655149  0.87806598  0.24157742  1
  O2-  O155  1  0.43787462  0.88224931  0.70520853  1
  O2-  O156  1  0.77036369  0.21755699  0.21850496  1
  O2-  O157  1  0.77790832  0.23186206  0.76705536  1
  O2-  O158  1  0.77546915  0.55073977  0.22167431  1
  O2-  O159  1  0.78273854  0.55566498  0.69671723  1
  O2-  O160  1  0.76083331  0.87171357  0.21989041  1
  O2-  O161  1  0.78451158  0.89949983  0.72295838  1
  O2-  O162  1  0.21741418  0.11205263  0.28300682  1
  O2-  O163  1  0.22299516  0.11425408  0.79161110  1
  O2-  O164  1  0.22222564  0.43472152  0.27803906  1
  O2-  O165  1  0.22803355  0.45375362  0.78235060  1
  O2-  O166  1  0.21251758  0.78470047  0.29669806  1
  O2-  O167  1  0.21649399  0.78173245  0.74319495  1
  O2-  O168  1  0.55116865  0.10423746  0.28267385  1
  O2-  O169  1  0.53880229  0.08468278  0.78957241  1
  O2-  O170  1  0.55996172  0.44067268  0.29168304  1
  O2-  O171  1  0.55450050  0.46625621  0.73526461  1
  O2-  O172  1  0.54894524  0.76687466  0.28740056  1
  O2-  O173  1  0.55727835  0.78500401  0.77773279  1
  O2-  O174  1  0.89842176  0.10882164  0.24456307  1
  O2-  O175  1  0.89224730  0.11388781  0.79704611  1
  O2-  O176  1  0.88909710  0.44209333  0.29323721  1
  O2-  O177  1  0.88534964  0.45079961  0.78569970  1
  O2-  O178  1  0.88304058  0.77454979  0.28327126  1
  O2-  O179  1  0.88482149  0.77505555  0.77626087  1
  O2-  O180  1  0.21981858  0.12227093  0.46834780  1
  O2-  O181  1  0.21063520  0.09933602  0.97556599  1
  O2-  O182  1  0.23781330  0.41142235  0.45386812  1
  O2-  O183  1  0.21173776  0.42146168  0.96780602  1
  O2-  O184  1  0.22738206  0.80298916  0.47386102  1
  O2-  O185  1  0.28715940  0.86595796  1.07931446  1
  O2-  O186  1  0.54931082  0.09855103  0.46344505  1
  O2-  O187  1  0.53868632  0.09107556  0.98182942  1
  O2-  O188  1  0.55509992  0.45988382  0.48074780  1
  O2-  O189  1  0.53638788  0.41354954  0.98150469  1
  O2-  O190  1  0.54126057  0.77184465  0.45830580  1
  O2-  O191  1  0.57032103  0.73432226  0.95102414  1
  O2-  O192  1  0.87744416  0.13221226  0.46144957  1
  O2-  O193  1  0.87314897  0.10478128  0.97865077  1
  O2-  O194  1  0.89109849  0.44310252  0.47527860  1
  O2-  O195  1  0.86519768  0.43135077  0.96854433  1
  O2-  O196  1  0.87688650  0.77268309  0.46373034  1
  O2-  O197  1  0.88730973  0.77070837  0.96613153  1
  O2-  O198  1  0.09626198  0.20188907  0.03288274  1
  O2-  O199  1  0.06756535  0.15441402  0.56369403  1
  O2-  O200  1  0.09234868  0.52589069  0.03374213  1
  O2-  O201  1  0.09652049  0.48405578  0.54954474  1
  O2-  O202  1  0.10333894  0.88672772  0.04320568  1
  O2-  O203  1  0.10093928  0.90268467  0.52806028  1
  O2-  O204  1  0.42606343  0.20357336  0.04815972  1
  O2-  O205  1  0.44858215  0.21602346  0.51727854  1
  O2-  O206  1  0.42247426  0.53334544  0.04014855  1
  O2-  O207  1  0.44791037  0.57062912  0.52317535  1
  O2-  O208  1  0.50525026  0.97832518  0.02081476  1
  O2-  O209  1  0.45570329  0.89154458  0.52000478  1
  O2-  O210  1  0.75687578  0.21105048  0.03124495  1
  O2-  O211  1  0.75033854  0.20988592  0.52852120  1
  O2-  O212  1  0.76588667  0.55111633  0.03369101  1
  O2-  O213  1  0.78210658  0.55997730  0.50741277  1
  O2-  O214  1  0.77812008  0.88402344  0.03319430  1
  O2-  O215  1  0.84109329  0.93602376  0.54060077  1
