# generated using pymatgen
data_H2O
_symmetry_space_group_name_H-M   'P 1'
_cell_length_a   13.49516717
_cell_length_b   13.49161829
_cell_length_c   14.71831975
_cell_angle_alpha   89.95568854
_cell_angle_beta   90.12100145
_cell_angle_gamma   120.04828017
_symmetry_Int_Tables_number   1
_chemical_formula_structural   H2O
_chemical_formula_sum   'H144 O72'
_cell_volume   2319.62988886
_cell_formula_units_Z   72
loop_
 _symmetry_equiv_pos_site_id
 _symmetry_equiv_pos_as_xyz
  1  'x, y, z'
loop_
 _atom_type_symbol
 _atom_type_oxidation_number
  H+  1.0
  O2-  -2.0
loop_
 _atom_site_type_symbol
 _atom_site_label
 _atom_site_symmetry_multiplicity
 _atom_site_fract_x
 _atom_site_fract_y
 _atom_site_fract_z
 _atom_site_occupancy
  H+  H0  1  0.20463678  0.69744240  0.25022318  1
  H+  H1  1  0.12419700  0.15663371  0.44300497  1
  H+  H2  1  1.01773078  0.49478255  1.01560890  1
  H+  H3  1  0.48874677  0.85376232  0.00948901  1
  H+  H4  1  0.20216086  0.16202165  0.24316990  1
  H+  H5  1  0.85349056  0.15339816  0.99847323  1
  H+  H6  1  0.96327899  0.80880390  0.24876770  1
  H+  H7  1  0.50360488  0.81572635  0.76283633  1
  H+  H8  1  0.36083921  0.84144053  0.50127679  1
  H+  H9  1  0.84561155  0.81584933  0.75695797  1
  H+  H10  1  0.63969734  0.48347613  0.76563896  1
  H+  H11  1  0.81720241  0.61296244  0.24086069  1
  H+  H12  1  0.50319842  0.34639697  0.50991909  1
  H+  H13  1  0.68572420  0.84954716  0.75867532  1
  H+  H14  1  0.68168311  0.49119434  0.51912611  1
  H+  H15  1  0.16406775  -0.02128831  0.99823988  1
  H+  H16  1  0.51107401  0.69578451  0.99505032  1
  H+  H17  1  0.35653407  0.84765635  0.74035885  1
  H+  H18  1  0.64712688  0.15796508  0.99179223  1
  H+  H19  1  0.82351038  0.76361009  0.46467412  1
  H+  H20  1  0.67991981  0.17865277  0.74096979  1
  H+  H21  1  0.14425637  0.18037162  0.73974291  1
  H+  H22  1  0.15615142  -0.03649905  0.75132010  1
  H+  H23  1  0.83407265  0.30721840  0.01653783  1
  H+  H24  1  0.75428058  0.21785517  0.60236256  1
  H+  H25  1  0.36676682  0.51222968  0.74456603  1
  H+  H26  1  0.89321591  0.15820220  0.27908891  1
  H+  H27  1  0.30088050  0.15301301  0.75037776  1
  H+  H28  1  0.19021110  0.48888741  0.25188993  1
  H+  H29  1  0.85533124  0.03494868  0.99713638  1
  H+  H30  1  0.19158321  0.16168765  0.98441192  1
  H+  H31  1  0.13810547  0.62141303  1.01143568  1
  H+  H32  1  0.17982476  0.48624739  -0.01105665  1
  H+  H33  1  0.12886140  0.23409348  0.13435372  1
  H+  H34  1  0.84613864  0.30178411  0.24943764  1
  H+  H35  1  0.52711742  0.04032132  0.98904741  1
  H+  H36  1  0.48435808  0.51709905  1.01111623  1
  H+  H37  1  0.82861973  0.88571130  0.54324449  1
  H+  H38  1  0.73467624  0.17872887  0.24761051  1
  H+  H39  1  0.45915132  0.16231525  0.51500549  1
  H+  H40  1  0.86247732  0.83061542  0.98341167  1
  H+  H41  1  0.18184141  0.36322276  0.75294356  1
  H+  H42  1  0.81533421  0.63479087  0.74021367  1
  H+  H43  1  0.51149671  0.98523590  0.24147579  1
  H+  H44  1  0.78228598  0.88644854  0.10893082  1
  H+  H45  1  0.02974622  0.18677676  0.74426332  1
  H+  H46  1  0.18653287  0.69497142  0.75812990  1
  H+  H47  1  0.96617234  0.48282483  0.48979451  1
  H+  H48  1  0.63918077  0.24224033  0.31214484  1
  H+  H49  1  0.32428359  0.81589784  0.25053228  1
  H+  H50  1  0.24238522  0.77861626  0.38349180  1
  H+  H51  1  0.11737751  0.56593499  0.58304177  1
  H+  H52  1  0.48535000  0.30498520  0.22583820  1
  H+  H53  1  0.69866470  0.84527009  0.02267626  1
  H+  H54  1  0.84695548  0.36103346  0.71468015  1
  H+  H55  1  0.30037750  0.49433431  0.48933323  1
  H+  H56  1  0.70447300  0.49229755  0.02192045  1
  H+  H57  1  0.80481436  0.14615202  0.50155534  1
  H+  H58  1  0.54642537  1.12544928  0.84713761  1
  H+  H59  1  0.65103576  0.82419906  0.27019438  1
  H+  H60  1  0.50144701  1.01733641  0.48899200  1
  H+  H61  1  0.50743909  0.80946544  0.49402110  1
  H+  H62  1  0.15978594  0.85668156  0.00233823  1
  H+  H63  1  0.48853759  0.51679447  0.75044475  1
  H+  H64  1  0.44939163  0.22140578  0.09352198  1
  H+  H65  1  0.79098947  0.97833694  0.52697917  1
  H+  H66  1  0.37295744  0.52760556  0.23876635  1
  H+  H67  1  0.89047105  0.42609030  0.92590015  1
  H+  H68  1  -0.01749726  0.83533491  -0.02426027  1
  H+  H69  1  0.51628272  0.36728026  0.99497349  1
  H+  H70  1  0.50662553  0.69737033  0.76517068  1
  H+  H71  1  0.30205444  0.81476142  0.99307977  1
  H+  H72  1  0.03802274  0.51403832  0.24142263  1
  H+  H73  1  0.04053853  0.51572584  0.70876994  1
  H+  H74  1  0.05652835  0.18753628  0.22594159  1
  H+  H75  1  0.81861951  0.47917829  0.02655745  1
  H+  H76  1  0.31087793  0.16146522  -0.01526106  1
  H+  H77  1  0.18875914  0.70098912  0.47383564  1
  H+  H78  1  0.80556413  0.49541308  0.51427946  1
  H+  H79  1  1.02480181  0.17347140  0.48510825  1
  H+  H80  1  0.19846236  0.37450787  0.25019675  1
  H+  H81  1  0.84908705  0.47024324  0.26063767  1
  H+  H82  1  0.67319499  0.18145592  0.51307161  1
  H+  H83  1  0.79845941  0.17445001  0.74370494  1
  H+  H84  1  0.98402121  0.14311847  0.34840380  1
  H+  H85  1  1.03400603  0.83490491  0.48197954  1
  H+  H86  1  0.49323748  0.64542462  0.24062808  1
  H+  H87  1  0.40432829  0.29212373  0.69300608  1
  H+  H88  1  0.63165035  0.47208475  0.24717731  1
  H+  H89  1  0.50116797  0.16268655  0.75989331  1
  H+  H90  1  0.22171281  0.44567136  0.84039632  1
  H+  H91  1  0.51599487  0.86915880  0.24316894  1
  H+  H92  1  0.15840859  0.84943597  0.47587973  1
  H+  H93  1  0.85496437  0.48330518  0.71846047  1
  H+  H94  1  0.49335746  0.18769510  0.00424629  1
  H+  H95  1  0.52607072  0.18067481  0.25544309  1
  H+  H96  1  0.84553863  0.36226002  0.49406322  1
  H+  H97  1  0.48235653  0.62708357  0.51602928  1
  H+  H98  1  0.23074399  0.11330246  0.33321439  1
  H+  H99  1  0.15145714  0.52510295  0.49259266  1
  H+  H100  1  0.51093544  0.46891142  0.50977021  1
  H+  H101  1  0.83982645  -0.03849965  0.25776529  1
  H+  H102  1  0.03593182  0.18906236  0.00244370  1
  H+  H103  1  0.51784625  0.48202857  0.24128671  1
  H+  H104  1  0.36919978  0.17935948  0.23038855  1
  H+  H105  1  0.83700202  0.03403665  0.77036387  1
  H+  H106  1  0.13482481  0.97331338  0.22676571  1
  H+  H107  1  0.82293980  0.83507232  0.25049830  1
  H+  H108  1  0.45861883  0.90213663  0.09686564  1
  H+  H109  1  0.76059303  0.89467182  0.66913553  1
  H+  H110  1  0.56255838  0.78343870  0.35426551  1
  H+  H111  1  0.28541852  0.14207146  0.48073091  1
  H+  H112  1  0.84251015  0.09255545  0.41854234  1
  H+  H113  1  0.99696972  0.60536540  0.85828549  1
  H+  H114  1  0.79144998  0.21576526  0.10208644  1
  H+  H115  1  0.15416208  0.31089375  -0.00192646  1
  H+  H116  1  0.52008732  0.36386898  0.76856958  1
  H+  H117  1  0.43496251  0.88399780  0.59509844  1
  H+  H118  1  0.15993473  0.51825107  0.72516850  1
  H+  H119  1  0.89236621  0.74998560  0.34138140  1
  H+  H120  1  0.77683677  0.52562247  0.15549011  1
  H+  H121  1  0.56152744  0.44957946  0.90918268  1
  H+  H122  1  0.62650469  0.81209914  0.50020188  1
  H+  H123  1  0.10939377  0.54784795  0.14825361  1
  H+  H124  1  0.89059057  0.78147085  0.84438678  1
  H+  H125  1  0.89240533  0.43703642  0.35147290  1
  H+  H126  1  0.18279646  0.81269422  0.76862153  1
  H+  H127  1  0.44216240  0.55144335  0.60624535  1
  H+  H128  1  0.88293270  0.11789459  0.85526390  1
  H+  H129  1  0.83383109  0.65540485  0.49053418  1
  H+  H130  1  0.76888495  0.55145430  0.65267258  1
  H+  H131  1  0.22373989  0.11487887  0.84113807  1
  H+  H132  1  0.23022238  0.46040620  0.39628475  1
  H+  H133  1  0.03776321  0.84532561  0.75008309  1
  H+  H134  1  0.47132573  0.96961775  0.73856410  1
  H+  H135  1  0.22469672  0.77151792  0.90370313  1
  H+  H136  1  0.17288931  1.01969239  0.46211386  1
  H+  H137  1  0.09328045  0.89549953  0.13754296  1
  H+  H138  1  0.55267965  0.77814190  0.90840219  1
  H+  H139  1  0.54119580  0.10753358  0.40475033  1
  H+  H140  1  0.42052801  0.20325468  0.60529845  1
  H+  H141  1  0.30107008  0.48918502  0.98874977  1
  H+  H142  1  0.44525950  0.56016195  0.09839574  1
  H+  H143  1  0.95066921  0.61977100  0.86604479  1
  O2-  O144  1  0.13534433  0.23517855  0.20276622  1
  O2-  O145  1  0.10894399  0.22694810  0.72079362  1
  O2-  O146  1  0.11725086  0.55262606  0.21647592  1
  O2-  O147  1  0.12598532  0.56378586  0.70082406  1
  O2-  O148  1  0.07769200  0.89666110  0.20335343  1
  O2-  O149  1  0.12072697  0.88002123  0.73798590  1
  O2-  O150  1  0.45067974  0.22041969  0.20721898  1
  O2-  O151  1  0.42522186  0.23557387  0.71203462  1
  O2-  O152  1  0.45305427  0.56727740  0.21380312  1
  O2-  O153  1  0.44934348  0.55738154  0.72565207  1
  O2-  O154  1  0.47615398  0.90840705  0.21563651  1
  O2-  O155  1  0.43717430  0.89003566  0.71527276  1
  O2-  O156  1  0.81587731  0.21909766  0.23039034  1
  O2-  O157  1  0.75807836  0.21146355  0.71413607  1
  O2-  O158  1  0.77654316  0.52975597  0.22558079  1
  O2-  O159  1  0.77231219  0.55227494  0.72065362  1
  O2-  O160  1  0.78825450  0.88368935  0.23308158  1
  O2-  O161  1  0.76671021  0.89234098  0.73631787  1
  O2-  O162  1  0.23600881  0.11519559  0.26473285  1
  O2-  O163  1  0.21771882  0.10870328  0.77378175  1
  O2-  O164  1  0.23626767  0.45401375  0.27469077  1
  O2-  O165  1  0.22589371  0.44639594  0.77279404  1
  O2-  O166  1  0.24651074  0.77607489  0.27611554  1
  O2-  O167  1  0.22717326  0.77259305  0.78696576  1
  O2-  O168  1  0.58433123  0.16561089  0.29026477  1
  O2-  O169  1  0.53984388  0.12043000  0.77948565  1
  O2-  O170  1  0.54741204  0.43051378  0.25821988  1
  O2-  O171  1  0.55998433  0.44512034  0.79154804  1
  O2-  O172  1  0.56792804  0.78917191  0.28647857  1
  O2-  O173  1  0.54435843  0.77764018  0.78922297  1
  O2-  O174  1  0.92383037  0.10773160  0.29801418  1
  O2-  O175  1  0.87653274  0.11688053  0.78745742  1
  O2-  O176  1  0.89447600  0.43357318  0.28347691  1
  O2-  O177  1  0.89907899  0.44411694  0.70554072  1
  O2-  O178  1  0.88352829  0.75607648  0.27500292  1
  O2-  O179  1  0.88496348  0.77357121  0.77521658  1
  O2-  O180  1  0.21298062  0.10388494  0.44446094  1
  O2-  O181  1  0.23028040  0.11994847  0.96174889  1
  O2-  O182  1  0.22382790  0.46847919  0.46257931  1
  O2-  O183  1  0.22205020  0.44876356  0.96258190  1
  O2-  O184  1  0.23770956  0.78189810  0.45259089  1
  O2-  O185  1  0.22117556  0.77294742  0.97181496  1
  O2-  O186  1  0.53844283  0.10075687  0.47181297  1
  O2-  O187  1  0.56693744  0.12135967  0.96713990  1
  O2-  O188  1  0.55338255  0.42878048  0.49411468  1
  O2-  O189  1  0.55778899  0.44993582  0.97702398  1
  O2-  O190  1  0.54951776  0.77007236  0.47187391  1
  O2-  O191  1  0.55468009  0.77853818  0.97619155  1
  O2-  O192  1  0.83848114  0.09562028  0.48499533  1
  O2-  O193  1  0.89537509  0.11451097  0.97287393  1
  O2-  O194  1  0.88451526  0.44056550  0.46731613  1
  O2-  O195  1  0.89408737  0.42325921  0.99179298  1
  O2-  O196  1  0.87728131  0.73576831  0.46155094  1
  O2-  O197  1  0.90323072  0.79776709  0.95083503  1
  O2-  O198  1  0.11840823  0.23043387  0.02206876  1
  O2-  O199  1  0.07210383  0.18829919  0.43117461  1
  O2-  O200  1  0.10487133  0.54199730  0.03457001  1
  O2-  O201  1  0.10686408  0.56286935  0.51558294  1
  O2-  O202  1  0.11963851  0.89847751  0.02127059  1
  O2-  O203  1  0.11567266  0.88939423  0.49194906  1
  O2-  O204  1  0.44955112  0.22522262  0.02526618  1
  O2-  O205  1  0.41725640  0.20120406  0.53566678  1
  O2-  O206  1  0.44199046  0.55731846  0.03021371  1
  O2-  O207  1  0.44056329  0.54684678  0.53852941  1
  O2-  O208  1  0.45129118  0.89826221  0.02945416  1
  O2-  O209  1  0.44166291  0.88274301  0.52751769  1
  O2-  O210  1  0.78583907  0.21710364  0.03525157  1
  O2-  O211  1  0.75507590  0.22222973  0.53387480  1
  O2-  O212  1  0.77900928  0.52005462  0.05221949  1
  O2-  O213  1  0.76690124  0.53748085  0.53695302  1
  O2-  O214  1  0.78048564  0.89025367  0.04152151  1
  O2-  O215  1  0.76328119  0.89680910  0.55162162  1
