# generated using pymatgen
data_H2O
_symmetry_space_group_name_H-M   'P 1'
_cell_length_a   13.50806653
_cell_length_b   13.49901467
_cell_length_c   14.70807389
_cell_angle_alpha   90.00385598
_cell_angle_beta   90.01553778
_cell_angle_gamma   119.98467891
_symmetry_Int_Tables_number   1
_chemical_formula_structural   H2O
_chemical_formula_sum   'H144 O72'
_cell_volume   2322.99724680
_cell_formula_units_Z   72
loop_
 _symmetry_equiv_pos_site_id
 _symmetry_equiv_pos_as_xyz
  1  'x, y, z'
loop_
 _atom_type_symbol
 _atom_type_oxidation_number
  H+  1.0
  O2-  -2.0
loop_
 _atom_site_type_symbol
 _atom_site_label
 _atom_site_symmetry_multiplicity
 _atom_site_fract_x
 _atom_site_fract_y
 _atom_site_fract_z
 _atom_site_occupancy
  H+  H0  1  0.17284827  0.18712917  0.23771698  1
  H+  H1  1  0.14233539  0.84196978  0.22002203  1
  H+  H2  1  0.88826152  0.19978653  0.75790924  1
  H+  H3  1  0.34165971  0.21471031  0.52642004  1
  H+  H4  1  0.48118802  0.14830594  0.50090381  1
  H+  H5  1  0.29382493  0.81615609  0.98531740  1
  H+  H6  1  0.66387991  0.50331910  0.27011522  1
  H+  H7  1  0.18602458  0.82612815  0.52431965  1
  H+  H8  1  0.71414634  0.85770473  0.24367285  1
  H+  H9  1  0.81387168  0.32237211  0.73879850  1
  H+  H10  1  0.20314697  0.02869720  0.25691280  1
  H+  H11  1  0.14764533  0.62727583  -0.00012932  1
  H+  H12  1  0.54340334  0.01344212  0.47743223  1
  H+  H13  1  0.84635008  0.36378758  0.98265375  1
  H+  H14  1  0.62507354  0.17170249  0.24459558  1
  H+  H15  1  0.19449354  0.01898942  0.99606435  1
  H+  H16  1  0.54224719  0.37972357  0.25614642  1
  H+  H17  1  0.87920363  0.84325908  0.74942411  1
  H+  H18  1  0.04862770  0.86336297  0.74751756  1
  H+  H19  1  0.97685363  0.47378074  0.50472442  1
  H+  H20  1  0.23095138  0.77111113  0.85446796  1
  H+  H21  1  0.16584656  0.85842679  0.74676913  1
  H+  H22  1  0.09947224  0.27898895  0.41693148  1
  H+  H23  1  0.79543369  0.31855866  0.23532059  1
  H+  H24  1  0.29588019  0.46766623  0.97962203  1
  H+  H25  1  0.84210667  0.50172519  0.27397037  1
  H+  H26  1  0.52694985  0.84111046  0.26650210  1
  H+  H27  1  0.40709792  0.14338884  0.27017878  1
  H+  H28  1  0.84069792  0.12543048  0.49928875  1
  H+  H29  1  0.02334657  0.84868343  0.00090425  1
  H+  H30  1  0.36917435  0.84486972  0.53477860  1
  H+  H31  1  0.55134803  0.56584273  0.22162046  1
  H+  H32  1  0.50765640  0.36429520  0.76257436  1
  H+  H33  1  0.34733895  0.17098489  0.74826540  1
  H+  H34  1  0.82848600  0.82990720  0.52228264  1
  H+  H35  1  0.84464921  0.46491467  0.75704350  1
  H+  H36  1  -0.00095604  0.19235580  0.78188285  1
  H+  H37  1  0.83621564  0.03835639  0.98798337  1
  H+  H38  1  0.48881405  0.84205398  0.53043170  1
  H+  H39  1  0.86534247  0.35207157  0.48965891  1
  H+  H40  1  0.52079959  0.69164490  -0.01526147  1
  H+  H41  1  0.20128532  0.52619674  0.51154929  1
  H+  H42  1  0.13830483  0.29874971  0.02192668  1
  H+  H43  1  0.83256515  0.50135838  0.51400071  1
  H+  H44  1  0.21987060  0.42271627  0.49513561  1
  H+  H45  1  0.81029467  0.19224888  0.01125337  1
  H+  H46  1  0.11047640  0.48542891  0.24247633  1
  H+  H47  1  0.62531728  0.15639425  0.74613476  1
  H+  H48  1  0.51436420  0.48564613  0.75827173  1
  H+  H49  1  0.30498562  0.48965691  0.21261986  1
  H+  H50  1  0.71507259  0.50187925  0.51119063  1
  H+  H51  1  0.51820964  0.69887129  0.75298860  1
  H+  H52  1  0.18713456  0.03870364  0.49629153  1
  H+  H53  1  0.36938212  0.85085177  0.22052817  1
  H+  H54  1  0.54099221  0.67886695  0.22905864  1
  H+  H55  1  0.91080318  0.11984564  0.24411804  1
  H+  H56  1  0.83230954  0.52071393  -0.02628226  1
  H+  H57  1  0.63170207  0.82728489  0.75401659  1
  H+  H58  1  0.82094033  0.15922849  0.25333707  1
  H+  H59  1  0.62715908  0.56301452  0.45092682  1
  H+  H60  1  -0.03892590  0.12400494  0.46792884  1
  H+  H61  1  0.90259549  0.77663599  0.41912966  1
  H+  H62  1  0.84347805  0.99350542  0.49996111  1
  H+  H63  1  0.86492950  0.68937124  0.50481624  1
  H+  H64  1  0.34988918  0.82755103  0.75492704  1
  H+  H65  1  0.90516758  0.80409947  0.84388907  1
  H+  H66  1  0.63698511  0.49858562  -0.01898991  1
  H+  H67  1  0.37490326  0.15741529  0.03638526  1
  H+  H68  1  0.19811458  0.16725079  0.78216273  1
  H+  H69  1  0.48320152  0.17386016  0.45506564  1
  H+  H70  1  0.01306966  0.19050029  0.02758665  1
  H+  H71  1  0.85888959  0.81639409  0.27964483  1
  H+  H72  1  0.82368944  0.01461671  0.73444880  1
  H+  H73  1  0.56656293  0.45844786  0.38601261  1
  H+  H74  1  0.69203819  0.19135346  0.00423950  1
  H+  H75  1  0.37893928  0.54557536  0.51840764  1
  H+  H76  1  0.17092709  0.67802327  0.22948774  1
  H+  H77  1  0.16934308  0.80565974  0.98050056  1
  H+  H78  1  0.48467255  0.83477166  0.74944426  1
  H+  H79  1  0.69706786  0.85026916  0.00130779  1
  H+  H80  1  0.16640043  0.30982102  0.85824291  1
  H+  H81  1  0.56129184  0.80106652  0.35902496  1
  H+  H82  1  0.64314422  0.82059580  0.50026546  1
  H+  H83  1  0.12428123  0.30785379  0.28664371  1
  H+  H84  1  0.48452258  0.52180276  0.50963975  1
  H+  H85  1  0.52443148  0.70462849  0.50107258  1
  H+  H86  1  0.84543867  0.83004322  -0.01939149  1
  H+  H87  1  0.18800826  0.04079133  0.76381903  1
  H+  H88  1  0.84863359  0.71142916  -0.02877669  1
  H+  H89  1  0.00728457  0.50770775  0.23680395  1
  H+  H90  1  0.71942548  0.15746496  0.49308883  1
  H+  H91  1  0.31823034  0.44177324  0.21284231  1
  H+  H92  1  0.03194548  0.85005676  0.24642800  1
  H+  H93  1  0.14145739  0.63476562  0.55321652  1
  H+  H94  1  0.46680913  0.32861246  0.52972697  1
  H+  H95  1  0.47850373  0.97598037  0.22787424  1
  H+  H96  1  0.17878511  0.46632894  0.96939558  1
  H+  H97  1  0.70008946  0.49931093  0.74528387  1
  H+  H98  1  0.85698471  0.69863053  0.29141480  1
  H+  H99  1  0.97118378  0.47812609  0.97563092  1
  H+  H100  1  0.51699391  0.14511583  1.00114589  1
  H+  H101  1  0.51083778  0.03205690  0.75702697  1
  H+  H102  1  0.04169094  0.85109739  0.52296858  1
  H+  H103  1  0.20905841  0.68740389  0.76777720  1
  H+  H104  1  0.47075504  0.96677056  -0.00314136  1
  H+  H105  1  0.17261521  0.14654468  0.46968112  1
  H+  H106  1  0.37069080  0.53635988  0.73280326  1
  H+  H107  1  0.57813879  0.08964384  0.38725237  1
  H+  H108  1  0.78610705  0.88543648  0.60328657  1
  H+  H109  1  0.09727718  0.25673935  0.52758272  1
  H+  H110  1  0.43656544  0.88743153  0.08345196  1
  H+  H111  1  0.42562303  0.23307096  0.64916394  1
  H+  H112  1  0.21826554  0.77203074  0.30560151  1
  H+  H113  1  0.78391479  0.20720678  0.59067200  1
  H+  H114  1  0.17111071  0.34001131  0.75719347  1
  H+  H115  1  0.79085730  0.58901383  0.19402668  1
  H+  H116  1  0.11565329  0.53948868  0.62756296  1
  H+  H117  1  0.44030562  0.87612580  0.65580575  1
  H+  H118  1  0.46097376  0.57322278  0.08590826  1
  H+  H119  1  0.10348432  0.54213102  0.08532193  1
  H+  H120  1  0.55255289  0.45166203  0.89901212  1
  H+  H121  1  0.45779848  0.18191974  0.12317095  1
  H+  H122  1  0.47598293  0.16960345  0.73341344  1
  H+  H123  1  0.71379766  0.27859468  0.65864480  1
  H+  H124  1  0.24484777  0.10482283  0.34682207  1
  H+  H125  1  0.56164748  0.77574138  0.89988897  1
  H+  H126  1  0.19334192  0.42511328  0.34799076  1
  H+  H127  1  0.88565459  0.41790159  0.84251189  1
  H+  H128  1  0.09731009  0.87985015  0.09264678  1
  H+  H129  1  0.88893727  0.44571190  0.34894087  1
  H+  H130  1  0.10935130  0.21941710  0.15965218  1
  H+  H131  1  0.45876069  0.56592567  0.65341059  1
  H+  H132  1  0.79753445  0.55641121  0.06305277  1
  H+  H133  1  0.75848169  0.24146417  0.14342656  1
  H+  H134  1  0.70705193  0.75879442  0.18994512  1
  H+  H135  1  0.21619522  0.75849040  0.45135067  1
  H+  H136  1  0.55311227  0.12002662  0.90142028  1
  H+  H137  1  0.12345828  0.90168450  0.61096560  1
  H+  H138  1  0.78026655  0.89354302  0.08853310  1
  H+  H139  1  0.78186989  0.53606213  0.65881138  1
  H+  H140  1  0.88350133  0.12676081  0.90456075  1
  H+  H141  1  0.25241312  0.10957022  0.91740367  1
  H+  H142  1  0.48187604  0.51748924  -0.00035191  1
  H+  H143  1  0.71906046  0.98202135  0.67268535  1
  O2-  O144  1  0.11707903  0.21266040  0.22794220  1
  O2-  O145  1  0.14580896  0.27231509  0.79755237  1
  O2-  O146  1  0.08821726  0.53682723  0.21330701  1
  O2-  O147  1  0.16755826  0.54317432  0.73376836  1
  O2-  O148  1  0.10608230  0.88963380  0.21223827  1
  O2-  O149  1  0.13172973  0.90406834  0.72518942  1
  O2-  O150  1  0.48924781  0.19011030  0.25069139  1
  O2-  O151  1  0.43133740  0.21173847  0.71853105  1
  O2-  O152  1  0.55575310  0.63046287  0.18643807  1
  O2-  O153  1  0.45374560  0.56646250  0.72163015  1
  O2-  O154  1  0.45253267  0.89608089  0.20905703  1
  O2-  O155  1  0.43848235  0.87490843  0.72794870  1
  O2-  O156  1  0.74818668  0.23894381  0.21121764  1
  O2-  O157  1  0.74659677  0.24064270  0.69416780  1
  O2-  O158  1  0.78342577  0.57133390  0.25849072  1
  O2-  O159  1  0.78003581  0.52782325  0.72568968  1
  O2-  O160  1  0.76427394  0.83829021  0.20744220  1
  O2-  O161  1  0.76011759  0.94787154  0.70143072  1
  O2-  O162  1  0.25958778  0.10588417  0.28074990  1
  O2-  O163  1  0.23741742  0.12164900  0.78611773  1
  O2-  O164  1  0.11743626  0.36061209  0.33471017  1
  O2-  O165  1  0.22222591  0.48656487  0.71361887  1
  O2-  O166  1  0.21576239  0.76361221  0.23996576  1
  O2-  O167  1  0.23989846  0.76958331  0.78425420  1
  O2-  O168  1  0.54288401  0.12065811  0.27182025  1
  O2-  O169  1  0.54377045  0.11426519  0.77049960  1
  O2-  O170  1  0.57214887  0.45641248  0.28161484  1
  O2-  O171  1  0.55492755  0.44509587  0.77934567  1
  O2-  O172  1  0.56952969  0.80490235  0.29216730  1
  O2-  O173  1  0.55136356  0.78138992  0.77405271  1
  O2-  O174  1  0.84955821  0.11318941  0.28319653  1
  O2-  O175  1  0.91304954  0.14726131  0.77973642  1
  O2-  O176  1  0.88145093  0.45263386  0.28259337  1
  O2-  O177  1  0.87988662  0.41518115  0.77380089  1
  O2-  O178  1  0.90375160  0.78431105  0.30858057  1
  O2-  O179  1  0.92019369  0.80872244  0.77634653  1
  O2-  O180  1  0.22654885  0.11695313  0.46889244  1
  O2-  O181  1  0.24957887  0.10081481  0.98350834  1
  O2-  O182  1  0.25307424  0.50312195  0.47931446  1
  O2-  O183  1  0.21632356  0.42118727  0.95545442  1
  O2-  O184  1  0.22452884  0.77790283  0.51563621  1
  O2-  O185  1  0.21316321  0.76855914  0.95828291  1
  O2-  O186  1  0.60819889  0.06900168  0.44077977  1
  O2-  O187  1  0.56017512  0.11091414  0.96695166  1
  O2-  O188  1  0.57751947  0.48009448  0.45471686  1
  O2-  O189  1  0.55521979  0.46030680  0.96589448  1
  O2-  O190  1  0.56153745  0.78734637  0.48297466  1
  O2-  O191  1  0.57248533  0.77280661  0.96555305  1
  O2-  O192  1  0.87513027  0.07538192  0.47526626  1
  O2-  O193  1  0.87432119  0.12160179  0.97124186  1
  O2-  O194  1  0.90067949  0.43434843  0.47413900  1
  O2-  O195  1  0.89088177  0.44054509  0.95126260  1
  O2-  O196  1  0.90162548  0.77223216  0.48829870  1
  O2-  O197  1  0.88921833  0.79394901  0.95489955  1
  O2-  O198  1  0.09035018  0.22548032  0.05434249  1
  O2-  O199  1  0.09187508  0.22222946  0.46817237  1
  O2-  O200  1  0.10606358  0.54480011  0.01805528  1
  O2-  O201  1  0.10687685  0.55090251  0.56096191  1
  O2-  O202  1  0.10190373  0.87566349  0.02523501  1
  O2-  O203  1  0.12369901  0.89848296  0.54251865  1
  O2-  O204  1  0.45632543  0.19274636  0.05726631  1
  O2-  O205  1  0.40304741  0.27344993  0.56719838  1
  O2-  O206  1  0.43654989  0.55442219  0.02159801  1
  O2-  O207  1  0.45906020  0.57059368  0.54051824  1
  O2-  O208  1  0.41955194  0.88714642  0.01818755  1
  O2-  O209  1  0.44981682  0.88295253  0.55728240  1
  O2-  O210  1  0.77216128  0.23681812  0.02949547  1
  O2-  O211  1  0.79748805  0.20095127  0.52428306  1
  O2-  O212  1  0.79629651  0.56572862  -0.00236338  1
  O2-  O213  1  0.79337163  0.54373050  0.53596964  1
  O2-  O214  1  0.78047819  0.90037955  0.02133688  1
  O2-  O215  1  0.78642318  0.87314305  0.53687208  1
