# generated using pymatgen
data_H2O
_symmetry_space_group_name_H-M   'P 1'
_cell_length_a   13.49862620
_cell_length_b   13.50049245
_cell_length_c   14.66856598
_cell_angle_alpha   89.98406804
_cell_angle_beta   89.99871149
_cell_angle_gamma   120.08283004
_symmetry_Int_Tables_number   1
_chemical_formula_structural   H2O
_chemical_formula_sum   'H144 O72'
_cell_volume   2313.09973039
_cell_formula_units_Z   72
loop_
 _symmetry_equiv_pos_site_id
 _symmetry_equiv_pos_as_xyz
  1  'x, y, z'
loop_
 _atom_type_symbol
 _atom_type_oxidation_number
  H+  1.0
  O2-  -2.0
loop_
 _atom_site_type_symbol
 _atom_site_label
 _atom_site_symmetry_multiplicity
 _atom_site_fract_x
 _atom_site_fract_y
 _atom_site_fract_z
 _atom_site_occupancy
  H+  H0  1  0.21395876  0.45276717  0.84183651  1
  H+  H1  1  0.27646635  0.12693669  0.25784008  1
  H+  H2  1  0.22250817  0.11345024  0.40160329  1
  H+  H3  1  0.18291076  0.14954235  0.99713056  1
  H+  H4  1  0.18289998  0.15329256  0.48958512  1
  H+  H5  1  0.45598917  0.65188800  0.22797477  1
  H+  H6  1  0.82289261  -0.03115967  1.01326159  1
  H+  H7  1  0.36350256  0.18178012  0.51674080  1
  H+  H8  1  0.80956632  0.17146758  0.24207729  1
  H+  H9  1  0.82113867  0.85037618  0.50263067  1
  H+  H10  1  0.33496611  0.47290033  0.51724863  1
  H+  H11  1  0.84770748  0.14894547  0.48835005  1
  H+  H12  1  0.17829403  0.33605066  0.24754562  1
  H+  H13  1  0.95655244  0.14616301  0.76353635  1
  H+  H14  1  0.82287832  0.63983568  -0.00463062  1
  H+  H15  1  0.13177946  0.63659929  0.23164819  1
  H+  H16  1  0.02091250  0.17222334  0.50567181  1
  H+  H17  1  0.15186753  0.81701593  0.76628930  1
  H+  H18  1  0.81234615  0.18755012  0.74070680  1
  H+  H19  1  0.83256529  0.69367786  0.47786771  1
  H+  H20  1  0.11242166  0.22313064  0.14672154  1
  H+  H21  1  0.18425776  0.50696334  0.75635792  1
  H+  H22  1  0.67531460  0.82857799  0.25412764  1
  H+  H23  1  0.44061909  0.59323187  0.53522461  1
  H+  H24  1  0.14798370  0.30238251  0.00919922  1
  H+  H25  1  0.85294021  0.36501461  0.98883655  1
  H+  H26  1  0.22195610  0.42132082  0.34672139  1
  H+  H27  1  0.15891404  0.64300963  0.00100939  1
  H+  H28  1  0.02029559  0.52069992  0.73840600  1
  H+  H29  1  0.36434960  0.18762731  0.75104703  1
  H+  H30  1  0.51113117  1.02536170  -0.01393614  1
  H+  H31  1  0.77109454  0.21459826  0.09918522  1
  H+  H32  1  0.12741794  0.82322431  0.00255852  1
  H+  H33  1  0.03785704  0.06268214  0.68998477  1
  H+  H34  1  0.85215191  0.84813519  0.76473931  1
  H+  H35  1  0.63576056  0.15922704  0.76027481  1
  H+  H36  1  0.82248961  0.30135464  0.50388660  1
  H+  H37  1  0.29303634  0.82482211  0.48864171  1
  H+  H38  1  0.85817787  0.47957472  0.25151280  1
  H+  H39  1  0.69696295  0.85908792  0.73486840  1
  H+  H40  1  0.97723507  0.48297775  0.24527785  1
  H+  H41  1  0.71586960  0.52027340  0.52143290  1
  H+  H42  1  0.85515320  0.48436830  0.98583216  1
  H+  H43  1  0.84706909  0.81191876  0.99197876  1
  H+  H44  1  0.52179621  0.36451020  1.00070665  1
  H+  H45  1  0.19717522  0.58106189  0.54436898  1
  H+  H46  1  0.52115769  0.70383194  0.76121292  1
  H+  H47  1  0.49952192  0.01611112  0.26013594  1
  H+  H48  1  0.20004590  0.77644994  0.34722060  1
  H+  H49  1  0.51667371  0.15813184  0.76442472  1
  H+  H50  1  0.31787285  0.84228253  0.23659309  1
  H+  H51  1  0.14239750  0.15626791  0.74057669  1
  H+  H52  1  0.69959548  0.18627374  0.50542625  1
  H+  H53  1  0.14811478  0.01544538  0.27133015  1
  H+  H54  1  0.13237498  0.64914749  0.74384329  1
  H+  H55  1  0.48701251  0.47769285  0.77849837  1
  H+  H56  1  1.02815100  0.87891671  0.74234724  1
  H+  H57  1  0.36057211  0.81725808  0.00686559  1
  H+  H58  1  0.83135284  0.52209592  0.49855933  1
  H+  H59  1  0.83501778  0.03731593  0.76183694  1
  H+  H60  1  0.15599975  0.44596399  0.47502521  1
  H+  H61  1  0.69489839  0.17698147  0.00890164  1
  H+  H62  1  0.91771008  0.85530069  0.25588998  1
  H+  H63  1  0.17241852  0.70894986  0.49517976  1
  H+  H64  1  0.64161142  0.48529990  -0.00738041  1
  H+  H65  1  0.48008817  0.28226406  0.24702340  1
  H+  H66  1  0.68830647  0.48517388  0.28104730  1
  H+  H67  1  0.96670206  0.14972886  0.25960565  1
  H+  H68  1  0.81224512  0.29100084  0.24070459  1
  H+  H69  1  0.27053238  0.85205044  0.95845562  1
  H+  H70  1  0.70485013  0.84889488  0.01318157  1
  H+  H71  1  0.48185635  0.43849510  0.25153625  1
  H+  H72  1  0.18014952  0.76419517  0.85568902  1
  H+  H73  1  0.14327676  0.81332739  0.26703231  1
  H+  H74  1  0.52439961  0.82558542  0.75656406  1
  H+  H75  1  0.02972100  0.18196392  0.01230059  1
  H+  H76  1  0.30124170  0.14937584  -0.00235275  1
  H+  H77  1  0.16245052  0.33186109  0.48863166  1
  H+  H78  1  0.29726805  0.47998803  -0.01745607  1
  H+  H79  1  0.83911017  0.96771462  0.24039959  1
  H+  H80  1  0.49581899  0.97375009  0.74161837  1
  H+  H81  1  1.04257942  0.52210639  1.00009906  1
  H+  H82  1  0.62316454  0.13278070  0.25793156  1
  H+  H83  1  0.15040378  0.97626454  0.51303110  1
  H+  H84  1  0.77385808  0.22269047  0.64845634  1
  H+  H85  1  0.14223394  0.85598227  0.51601958  1
  H+  H86  1  0.35304439  0.51898356  0.75407546  1
  H+  H87  1  0.48199350  0.86736890  0.50207354  1
  H+  H88  1  0.80678052  0.66664296  0.73981479  1
  H+  H89  1  0.28776766  0.49011601  0.24654797  1
  H+  H90  1  0.51240777  0.47061271  0.49552744  1
  H+  H91  1  0.58577848  0.86847686  0.24393382  1
  H+  H92  1  0.40814960  0.80389116  0.23220170  1
  H+  H93  1  0.84654702  0.14691298  -0.00412845  1
  H+  H94  1  0.19136110  0.04365113  0.76573159  1
  H+  H95  1  0.96671661  0.81105619  0.98701115  1
  H+  H96  1  0.71668834  0.87334380  0.50813529  1
  H+  H97  1  0.85431479  0.03172294  0.49012148  1
  H+  H98  1  0.13428830  -0.05374449  1.00599943  1
  H+  H99  1  0.86606950  0.68083590  0.24021515  1
  H+  H100  1  0.48489469  0.17980126  1.01045577  1
  H+  H101  1  0.48438458  0.51818697  0.01480169  1
  H+  H102  1  0.14835849  0.17680267  0.23846822  1
  H+  H103  1  0.51345670  0.15644535  0.49470511  1
  H+  H104  1  0.54609109  0.74202312  0.46942382  1
  H+  H105  1  0.47092846  0.16223825  0.24251494  1
  H+  H106  1  0.44464750  0.46409712  0.24239451  1
  H+  H107  1  0.48456614  0.29868159  0.52039965  1
  H+  H108  1  0.97908353  0.48560221  0.48649335  1
  H+  H109  1  0.88928048  0.44726500  0.84186760  1
  H+  H110  1  0.49160906  0.34987084  0.77041813  1
  H+  H111  1  0.09884719  0.20022877  0.59626486  1
  H+  H112  1  0.43632430  0.53572513  0.67083682  1
  H+  H113  1  0.44418368  0.22976534  0.66034547  1
  H+  H114  1  0.42769262  0.87396140  0.09660713  1
  H+  H115  1  0.44466133  0.21636533  0.10115715  1
  H+  H116  1  0.79562022  0.55222010  0.70918761  1
  H+  H117  1  0.54807565  0.11260543  0.40360638  1
  H+  H118  1  0.90443544  0.79268664  0.40500889  1
  H+  H119  1  0.84683633  0.37112672  0.75269313  1
  H+  H120  1  0.47526291  0.97972462  0.51006136  1
  H+  H121  1  0.48938189  0.63781804  -0.00004927  1
  H+  H122  1  0.56956630  0.78420686  0.89725677  1
  H+  H123  1  0.88778701  0.10601431  0.34873709  1
  H+  H124  1  0.10627315  0.56944581  0.61898641  1
  H+  H125  1  0.45356238  0.89600176  0.65253566  1
  H+  H126  1  0.58752872  0.82364123  0.38589971  1
  H+  H127  1  0.57492406  0.43646315  0.41717607  1
  H+  H128  1  0.10714957  0.56039188  0.14174744  1
  H+  H129  1  0.90662439  0.44500801  0.39355176  1
  H+  H130  1  0.88525144  0.10996462  0.90572776  1
  H+  H131  1  0.80215915  0.88838486  0.15088264  1
  H+  H132  1  0.79565851  0.56930362  0.08738896  1
  H+  H133  1  0.10895020  0.91095060  0.65140792  1
  H+  H134  1  0.18182170  0.48478933  0.98596957  1
  H+  H135  1  0.53731149  0.43366447  0.87072471  1
  H+  H136  1  0.52650283  0.81634476  0.98858085  1
  H+  H137  1  0.89124675  0.79938797  0.85068946  1
  H+  H138  1  0.55354408  0.11023871  0.90018012  1
  H+  H139  1  0.78307711  0.90343641  0.64768907  1
  H+  H140  1  0.67059649  0.37562654  0.33229997  1
  H+  H141  1  0.40756305  0.58283007  0.13558909  1
  H+  H142  1  0.23062037  0.11906321  0.85887613  1
  H+  H143  1  0.74544282  0.64030078  0.20021158  1
  O2-  O144  1  0.11481131  0.22540179  0.21630992  1
  O2-  O145  1  0.07454530  0.14472141  0.70303633  1
  O2-  O146  1  0.09811547  0.55650363  0.20955556  1
  O2-  O147  1  0.10244501  0.56784805  0.71650269  1
  O2-  O148  1  0.07490364  0.88013547  0.25066458  1
  O2-  O149  1  0.10982876  0.92152039  0.72000467  1
  O2-  O150  1  0.43284132  0.20549746  0.22093698  1
  O2-  O151  1  0.44664165  0.23346898  0.72881377  1
  O2-  O152  1  0.38460776  0.59977214  0.19608438  1
  O2-  O153  1  0.43826072  0.54888636  0.73705342  1
  O2-  O154  1  0.40056909  0.86978701  0.21555347  1
  O2-  O155  1  0.46744805  0.89508305  0.71858974  1
  O2-  O156  1  0.76624541  0.20933035  0.22090358  1
  O2-  O157  1  0.77030230  0.22518455  0.71623032  1
  O2-  O158  1  0.79617296  0.61068894  0.21553595  1
  O2-  O159  1  0.74937984  0.58746784  0.72267948  1
  O2-  O160  1  0.80796908  0.88665695  0.21946802  1
  O2-  O161  1  0.77896323  0.90853598  0.71563103  1
  O2-  O162  1  0.19967156  0.10185667  0.28375517  1
  O2-  O163  1  0.23556327  0.12521551  0.79034809  1
  O2-  O164  1  0.22028803  0.42109019  0.27813184  1
  O2-  O165  1  0.22547248  0.46604383  0.77500210  1
  O2-  O166  1  0.19350725  0.77747366  0.27939467  1
  O2-  O167  1  0.17869458  0.76478441  0.78641635  1
  O2-  O168  1  0.54308520  0.09633437  0.28230289  1
  O2-  O169  1  0.55635190  0.11734910  0.78655717  1
  O2-  O170  1  0.62985201  0.41409683  0.31159678  1
  O2-  O171  1  0.52134809  0.42900210  0.80184922  1
  O2-  O172  1  0.59440814  0.80815852  0.27287528  1
  O2-  O173  1  0.56547385  0.78480027  0.78118275  1
  O2-  O174  1  0.88591499  0.10424429  0.28008065  1
  O2-  O175  1  0.87834777  0.11720870  0.78803014  1
  O2-  O176  1  0.89476787  0.43724710  0.27295210  1
  O2-  O177  1  0.88925029  0.45156748  0.77427191  1
  O2-  O178  1  0.95559902  0.81500123  0.28342861  1
  O2-  O179  1  0.89810781  0.81226943  0.78304133  1
  O2-  O180  1  0.22993535  0.11937088  0.46939402  1
  O2-  O181  1  0.22184265  0.10899166  0.97295883  1
  O2-  O182  1  0.20481181  0.41344497  0.46046083  1
  O2-  O183  1  0.21571014  0.43751663  0.96324566  1
  O2-  O184  1  0.21253348  0.78532362  0.46555575  1
  O2-  O185  1  0.20551517  0.77508330  0.96572641  1
  O2-  O186  1  0.55530585  0.11751495  0.47116593  1
  O2-  O187  1  0.55184749  0.10737383  0.96905174  1
  O2-  O188  1  0.55879273  0.43409821  0.48334786  1
  O2-  O189  1  0.55811909  0.44434082  0.97548118  1
  O2-  O190  1  0.57880043  0.82249635  0.45416563  1
  O2-  O191  1  0.56917262  0.77877508  0.96580161  1
  O2-  O192  1  0.89129036  0.11229480  0.46420968  1
  O2-  O193  1  0.88879157  0.10800291  0.97390990  1
  O2-  O194  1  0.90082866  0.44128681  0.46142640  1
  O2-  O195  1  0.89592860  0.44423856  0.96450033  1
  O2-  O196  1  0.84054666  0.76454727  0.44832461  1
  O2-  O197  1  0.88256958  0.77040376  0.96344043  1
  O2-  O198  1  0.11009749  0.22316917  0.03627787  1
  O2-  O199  1  0.10288508  0.21273687  0.52855262  1
  O2-  O200  1  0.12259556  0.56129510  0.02370208  1
  O2-  O201  1  0.11984179  0.56921924  0.54644333  1
  O2-  O202  1  0.08601161  0.86569248  0.02407981  1
  O2-  O203  1  0.10758064  0.89960237  0.54156346  1
  O2-  O204  1  0.44792330  0.22348154  0.03336700  1
  O2-  O205  1  0.44246754  0.21772066  0.54352035  1
  O2-  O206  1  0.44212892  0.55952638  0.02711958  1
  O2-  O207  1  0.41391571  0.51239526  0.54407719  1
  O2-  O208  1  0.43902316  0.87000626  0.02978669  1
  O2-  O209  1  0.43460466  0.89705248  0.52844509  1
  O2-  O210  1  0.77562822  0.21698968  0.03135740  1
  O2-  O211  1  0.78032418  0.22098672  0.52735048  1
  O2-  O212  1  0.78408761  0.55827967  0.02108442  1
  O2-  O213  1  0.79971111  0.56890031  0.52222024  1
  O2-  O214  1  0.78462961  0.88890422  0.03819004  1
  O2-  O215  1  0.79511028  0.90330284  0.53200790  1
