# generated using pymatgen
data_H2O
_symmetry_space_group_name_H-M   'P 1'
_cell_length_a   13.51133461
_cell_length_b   13.52901496
_cell_length_c   14.68797867
_cell_angle_alpha   89.97766325
_cell_angle_beta   90.02292578
_cell_angle_gamma   120.01135811
_symmetry_Int_Tables_number   1
_chemical_formula_structural   H2O
_chemical_formula_sum   'H144 O72'
_cell_volume   2324.91633535
_cell_formula_units_Z   72
loop_
 _symmetry_equiv_pos_site_id
 _symmetry_equiv_pos_as_xyz
  1  'x, y, z'
loop_
 _atom_type_symbol
 _atom_type_oxidation_number
  H+  1.0
  O2-  -2.0
loop_
 _atom_site_type_symbol
 _atom_site_label
 _atom_site_symmetry_multiplicity
 _atom_site_fract_x
 _atom_site_fract_y
 _atom_site_fract_z
 _atom_site_occupancy
  H+  H0  1  0.49754608  -0.00815012  0.49131809  1
  H+  H1  1  0.56019945  0.79925540  0.58180331  1
  H+  H2  1  0.79293898  0.36199282  0.73717423  1
  H+  H3  1  -0.02242702  0.82141732  0.26088299  1
  H+  H4  1  0.12365172  0.50312750  0.73666474  1
  H+  H5  1  0.53498497  0.53178779  0.98353467  1
  H+  H6  1  0.32285987  0.86271669  0.74635961  1
  H+  H7  1  0.58329992  0.82033043  0.33587851  1
  H+  H8  1  0.51836953  0.34846128  0.49189714  1
  H+  H9  1  0.02115621  0.53004949  0.71626238  1
  H+  H10  1  0.36156784  0.52775402  0.24344580  1
  H+  H11  1  0.51721829  0.03271700  0.24870722  1
  H+  H12  1  0.51005773  0.88809099  0.46303637  1
  H+  H13  1  0.14635044  0.17966818  -0.05132329  1
  H+  H14  1  0.86041108  0.68586269  0.76799016  1
  H+  H15  1  0.72210582  0.62783481  0.20442109  1
  H+  H16  1  0.46516211  0.28191202  0.23728085  1
  H+  H17  1  0.86592135  0.70099861  0.27056609  1
  H+  H18  1  0.50966294  0.10443436  0.99205401  1
  H+  H19  1  -0.01676090  0.11603803  0.27322340  1
  H+  H20  1  0.51455138  -0.00563877  0.97004258  1
  H+  H21  1  0.81227101  1.00230273  0.69520759  1
  H+  H22  1  0.64032641  0.15891965  0.48392885  1
  H+  H23  1  0.86591969  0.45195158  0.87467910  1
  H+  H24  1  0.47745105  0.65107875  0.00603113  1
  H+  H25  1  0.32545943  0.42359412  0.17714881  1
  H+  H26  1  0.15498733  0.86677815  0.74179860  1
  H+  H27  1  0.76717945  0.84704175  0.99227418  1
  H+  H28  1  0.14599814  0.86270734  0.22970918  1
  H+  H29  1  0.84945391  1.00125989  0.55197889  1
  H+  H30  1  0.16391840  0.30794461  0.49892549  1
  H+  H31  1  0.53244360  0.41489214  0.98313632  1
  H+  H32  1  0.11832437  0.16931134  0.73318379  1
  H+  H33  1  0.76784207  0.21690546  0.59587004  1
  H+  H34  1  0.17718814  0.00768038  0.97684120  1
  H+  H35  1  0.89160496  0.43223739  0.39270394  1
  H+  H36  1  0.28186614  0.14769570  0.75205983  1
  H+  H37  1  0.00185879  0.82113611  0.51448725  1
  H+  H38  1  0.96206809  0.81151452  0.76242150  1
  H+  H39  1  0.59352108  0.82642034  0.98261277  1
  H+  H40  1  0.34623420  0.16805490  0.51376384  1
  H+  H41  1  0.08834620  0.10076072  0.25821937  1
  H+  H42  1  0.49660892  0.96806429  0.72402654  1
  H+  H43  1  0.06135993  0.54726635  -0.04037395  1
  H+  H44  1  0.83054744  0.49797896  0.50310581  1
  H+  H45  1  0.85455002  0.15550400  0.97737999  1
  H+  H46  1  0.54715625  0.74213394  0.21169718  1
  H+  H47  1  0.69169321  0.18405681  0.73527822  1
  H+  H48  1  0.13831303  0.30795171  0.28592581  1
  H+  H49  1  0.78748251  0.97284580  -0.00964456  1
  H+  H50  1  0.83566051  0.66009667  0.00897278  1
  H+  H51  1  0.75581123  0.87846236  0.58490105  1
  H+  H52  1  0.50674381  0.50334313  0.51862196  1
  H+  H53  1  0.12990123  0.96010977  0.51814259  1
  H+  H54  1  0.30222616  0.85485946  0.25276112  1
  H+  H55  1  0.79647772  -0.00368721  0.26572351  1
  H+  H56  1  0.28913499  0.13051965  0.26651490  1
  H+  H57  1  0.29559823  0.47913132  0.99129949  1
  H+  H58  1  0.86064950  0.50053594  -0.02977567  1
  H+  H59  1  0.04567899  0.54899780  0.25382979  1
  H+  H60  1  0.52418956  0.14962009  0.76110655  1
  H+  H61  1  0.48597690  0.24265060  0.01200875  1
  H+  H62  1  0.52019568  0.62647581  0.53574862  1
  H+  H63  1  0.82235484  0.30976110  0.99120328  1
  H+  H64  1  0.48137478  0.44850597  0.25584055  1
  H+  H65  1  0.15052849  0.35012442  0.75019542  1
  H+  H66  1  0.32714454  0.48774373  0.49205952  1
  H+  H67  1  0.29530354  0.12197986  -0.01482191  1
  H+  H68  1  0.16880067  0.37029093  0.27328272  1
  H+  H69  1  0.55898522  0.70595491  0.24427568  1
  H+  H70  1  0.93175385  0.87584775  0.97353850  1
  H+  H71  1  0.00221565  0.17430181  0.72619523  1
  H+  H72  1  0.48405469  0.50797652  0.75092229  1
  H+  H73  1  0.27877072  0.52344800  0.36622648  1
  H+  H74  1  0.84964353  0.36601431  0.24651401  1
  H+  H75  1  0.17095136  0.14006663  0.49126599  1
  H+  H76  1  0.71715269  0.54681257  0.00078469  1
  H+  H77  1  0.03015374  0.18008089  -0.05707547  1
  H+  H78  1  0.12710270  0.54869693  0.60222254  1
  H+  H79  1  0.71141572  0.18541237  -0.00261449  1
  H+  H80  1  0.44915561  0.83017417  0.20975459  1
  H+  H81  1  0.69627808  0.18812847  0.22555198  1
  H+  H82  1  0.17105430  0.01442768  0.25943240  1
  H+  H83  1  0.85172804  0.35332505  0.48162898  1
  H+  H84  1  0.23250698  0.57081918  0.28489164  1
  H+  H85  1  0.33157956  0.82459821  0.46997351  1
  H+  H86  1  0.41708485  0.80632718  -0.01344905  1
  H+  H87  1  0.49312326  0.79733146  0.75522832  1
  H+  H88  1  0.23170488  0.81417103  0.34674134  1
  H+  H89  1  0.17068767  0.63078881  0.51653494  1
  H+  H90  1  0.53696477  0.33257518  0.73773819  1
  H+  H91  1  0.97493172  0.16032317  0.48247043  1
  H+  H92  1  0.15025663  0.67617256  0.25020816  1
  H+  H93  1  0.16595608  0.52622565  -0.01263069  1
  H+  H94  1  0.81039510  0.16959720  0.51239887  1
  H+  H95  1  0.04799422  0.81328643  -0.01050740  1
  H+  H96  1  0.17626885  0.83984145  0.00113393  1
  H+  H97  1  0.83492329  0.86499465  0.22771471  1
  H+  H98  1  0.21429222  0.69942886  -0.02389229  1
  H+  H99  1  0.60586914  0.46265532  0.25190274  1
  H+  H100  1  0.40280511  0.87010463  0.12804684  1
  H+  H101  1  0.67663327  0.47468707  0.77080665  1
  H+  H102  1  0.51974726  0.15960126  0.48270615  1
  H+  H103  1  0.79468380  0.11574896  0.27229749  1
  H+  H104  1  0.71440346  0.49931989  0.52005835  1
  H+  H105  1  0.12963384  -0.03170505  0.73774533  1
  H+  H106  1  0.84324294  0.47955677  0.25664788  1
  H+  H107  1  0.86255206  0.67389504  0.49932040  1
  H+  H108  1  0.58768872  0.28131444  0.66979527  1
  H+  H109  1  0.21086236  0.49431009  0.49578585  1
  H+  H110  1  0.44234394  0.53237797  0.65877190  1
  H+  H111  1  0.51605535  0.76504266  0.89215906  1
  H+  H112  1  0.47435869  0.16860287  0.23934486  1
  H+  H113  1  0.44376363  0.55685885  0.08869862  1
  H+  H114  1  0.61006023  0.81316204  0.48329008  1
  H+  H115  1  0.17819051  0.36737101  0.96419912  1
  H+  H116  1  0.10575470  0.22424581  0.58516225  1
  H+  H117  1  0.19802064  0.29421944  0.10688303  1
  H+  H118  1  0.78087949  0.89768030  0.14373164  1
  H+  H119  1  0.21411276  0.10342839  0.84495774  1
  H+  H120  1  0.90239029  0.76108773  0.41163507  1
  H+  H121  1  0.87116337  0.11237784  0.88095322  1
  H+  H122  1  0.10024158  0.88336470  0.13506516  1
  H+  H123  1  0.86854571  0.09387851  0.41123072  1
  H+  H124  1  0.20844348  0.08659794  0.40971061  1
  H+  H125  1  0.46008876  0.89677137  0.63145522  1
  H+  H126  1  0.76638544  0.56833726  0.13800405  1
  H+  H127  1  0.56199916  0.43014339  0.40602426  1
  H+  H128  1  0.78518789  0.22613063  0.14305004  1
  H+  H129  1  0.84631229  0.52712531  0.64930501  1
  H+  H130  1  0.87833831  0.78545054  0.89106362  1
  H+  H131  1  0.81963479  0.20549588  0.73803672  1
  H+  H132  1  0.26887397  0.46355413  0.75595828  1
  H+  H133  1  0.27482321  0.71193071  0.41260576  1
  H+  H134  1  0.43621361  0.21782430  0.59765390  1
  H+  H135  1  0.55908760  0.11341630  0.33817638  1
  H+  H136  1  0.17181729  0.24034393  0.13508834  1
  H+  H137  1  0.55627186  0.09319127  0.84424766  1
  H+  H138  1  0.26191637  0.83117793  0.84283722  1
  H+  H139  1  0.48335703  0.67403211  0.76556912  1
  H+  H140  1  0.43185043  0.18190586  0.10550692  1
  H+  H141  1  0.09193759  0.88275545  0.61369909  1
  H+  H142  1  0.59756078  0.48079507  0.84723650  1
  H+  H143  1  0.67415898  0.94837740  0.35975175  1
  O2-  O144  1  0.01830748  0.09017283  0.22849146  1
  O2-  O145  1  0.08199206  0.20680142  0.70079172  1
  O2-  O146  1  0.12810273  0.59550215  0.24077696  1
  O2-  O147  1  0.10202216  0.55586372  0.70601627  1
  O2-  O148  1  0.09542941  0.88998261  0.20196826  1
  O2-  O149  1  0.09615643  0.88701880  0.71824485  1
  O2-  O150  1  0.42765020  0.20130542  0.21433109  1
  O2-  O151  1  0.51731554  0.26057684  0.70311291  1
  O2-  O152  1  0.39405635  0.49082035  0.20018869  1
  O2-  O153  1  0.43319133  0.53352000  0.72624496  1
  O2-  O154  1  0.42767120  0.88673492  0.19307172  1
  O2-  O155  1  0.45416314  0.88907110  0.69842890  1
  O2-  O156  1  0.77921586  0.22441318  0.21085463  1
  O2-  O157  1  0.76993831  0.23984862  0.71246335  1
  O2-  O158  1  0.74516249  0.56995493  0.20403848  1
  O2-  O159  1  0.87912573  0.53460833  0.71217046  1
  O2-  O160  1  0.77684012  0.88506561  0.21029655  1
  O2-  O161  1  0.78451446  1.02472951  0.75108983  1
  O2-  O162  1  0.21270394  0.08663113  0.29541074  1
  O2-  O163  1  0.20489558  0.10599331  0.77692495  1
  O2-  O164  1  0.30303101  0.57519454  0.31133477  1
  O2-  O165  1  0.18780535  0.43008282  0.77202206  1
  O2-  O166  1  0.22622442  0.82903125  0.28039903  1
  O2-  O167  1  0.26042573  0.86193763  0.78247485  1
  O2-  O168  1  0.55653384  0.11277986  0.26986670  1
  O2-  O169  1  0.55566554  0.09935258  0.77655013  1
  O2-  O170  1  0.52981107  0.41765655  0.28070296  1
  O2-  O171  1  0.60004190  0.46522658  0.78123045  1
  O2-  O172  1  0.60465646  0.87797036  0.38354315  1
  O2-  O173  1  0.52095869  0.75318882  0.79009849  1
  O2-  O174  1  0.79354360  0.05344625  0.30912521  1
  O2-  O175  1  0.87502440  0.14105083  0.77206604  1
  O2-  O176  1  0.89007978  0.44563684  0.27153026  1
  O2-  O177  1  0.79236574  0.43420585  0.76204403  1
  O2-  O178  1  0.90272404  0.77906981  0.29480773  1
  O2-  O179  1  0.88304670  0.76338057  0.78748856  1
  O2-  O180  1  0.20605611  0.09110658  0.47806474  1
  O2-  O181  1  0.21876175  0.08883869  0.95695181  1
  O2-  O182  1  0.24929699  0.45360356  0.46546240  1
  O2-  O183  1  0.21240815  0.44071088  0.99898253  1
  O2-  O184  1  0.25695198  0.76596035  0.44230457  1
  O2-  O185  1  0.26265781  0.79300548  0.96407125  1
  O2-  O186  1  0.56108379  0.12324210  0.45553828  1
  O2-  O187  1  0.55737766  0.07759765  0.96102427  1
  O2-  O188  1  0.56983543  0.42945435  0.47304128  1
  O2-  O189  1  0.58063698  0.49293592  0.96216586  1
  O2-  O190  1  0.60404912  0.77611590  0.54341648  1
  O2-  O191  1  0.51304510  0.77416276  0.96232737  1
  O2-  O192  1  0.88976540  0.11301664  0.47626221  1
  O2-  O193  1  0.87663990  0.10278328  0.94903720  1
  O2-  O194  1  0.88586635  0.43299863  0.45980087  1
  O2-  O195  1  0.89069662  0.45632045  0.93876272  1
  O2-  O196  1  0.90231454  0.75629938  0.47954751  1
  O2-  O197  1  0.87688557  0.79608435  0.96048885  1
  O2-  O198  1  0.11265060  0.22521949  -0.07216285  1
  O2-  O199  1  0.11551401  0.22598107  0.51729871  1
  O2-  O200  1  0.13827879  0.58406554  -0.01327815  1
  O2-  O201  1  0.14597598  0.55228490  0.53492091  1
  O2-  O202  1  0.12118905  0.86752350  0.01716566  1
  O2-  O203  1  0.09108278  0.87961469  0.54351423  1
  O2-  O204  1  0.43452110  0.16784736  0.03760582  1
  O2-  O205  1  0.42951330  0.21105958  0.53059898  1
  O2-  O206  1  0.45619077  0.56991420  0.02209488  1
  O2-  O207  1  0.46661454  0.54310496  0.54243247  1
  O2-  O208  1  0.37424750  0.84552465  0.01144833  1
  O2-  O209  1  0.46647385  0.90834996  0.50607423  1
  O2-  O210  1  0.78936020  0.23400451  0.02169284  1
  O2-  O211  1  0.76614788  0.20881903  0.52807867  1
  O2-  O212  1  0.79546997  0.57847664  0.02743266  1
  O2-  O213  1  0.79586167  0.53843819  0.53914187  1
  O2-  O214  1  0.73789686  0.89460320  0.01820984  1
  O2-  O215  1  0.82951047  0.94488597  0.60211389  1
