# generated using pymatgen
data_H2O
_symmetry_space_group_name_H-M   'P 1'
_cell_length_a   13.52272138
_cell_length_b   13.51633575
_cell_length_c   14.71345168
_cell_angle_alpha   89.92275791
_cell_angle_beta   90.00296620
_cell_angle_gamma   120.05290223
_symmetry_Int_Tables_number   1
_chemical_formula_structural   H2O
_chemical_formula_sum   'H144 O72'
_cell_volume   2327.74822157
_cell_formula_units_Z   72
loop_
 _symmetry_equiv_pos_site_id
 _symmetry_equiv_pos_as_xyz
  1  'x, y, z'
loop_
 _atom_type_symbol
 _atom_type_oxidation_number
  H+  1.0
  O2-  -2.0
loop_
 _atom_site_type_symbol
 _atom_site_label
 _atom_site_symmetry_multiplicity
 _atom_site_fract_x
 _atom_site_fract_y
 _atom_site_fract_z
 _atom_site_occupancy
  H+  H0  1  0.52395433  0.01974237  0.25945118  1
  H+  H1  1  0.80770738  0.84347761  0.00803611  1
  H+  H2  1  0.11309097  0.55651822  0.66650143  1
  H+  H3  1  0.77836890  -0.01437885  0.93672444  1
  H+  H4  1  0.70485917  0.85422733  0.48344277  1
  H+  H5  1  0.29258036  0.13026394  0.76905496  1
  H+  H6  1  0.34054436  0.85796103  0.02820884  1
  H+  H7  1  0.15797806  0.30111828  0.25962334  1
  H+  H8  1  0.48973660  0.51196645  0.49769810  1
  H+  H9  1  0.52082731  0.87110144  0.72894395  1
  H+  H10  1  0.68486176  0.83155591  0.02090628  1
  H+  H11  1  0.18701639  0.82141968  0.49957658  1
  H+  H12  1  0.05930373  0.17163773  0.03226191  1
  H+  H13  1  0.80021931  0.62651765  0.01160302  1
  H+  H14  1  0.43159160  0.87893913  0.16154605  1
  H+  H15  1  0.68000148  0.17958941  -0.00162120  1
  H+  H16  1  0.73271385  0.86134166  0.70474698  1
  H+  H17  1  0.16077410  0.30394149  0.50042584  1
  H+  H18  1  1.02842004  0.83494306  0.49991961  1
  H+  H19  1  0.48135534  0.83706932  0.24441380  1
  H+  H20  1  0.49168055  0.96740099  0.51161288  1
  H+  H21  1  0.69418891  0.17474658  0.22084384  1
  H+  H22  1  0.13911455  0.22842609  0.64142029  1
  H+  H23  1  0.15735558  0.46928258  0.76939535  1
  H+  H24  1  0.27610646  0.47465305  0.76403110  1
  H+  H25  1  0.48520552  0.17325487  0.25458838  1
  H+  H26  1  0.50334359  0.35874266  0.49672615  1
  H+  H27  1  0.46863748  0.28180978  1.02707366  1
  H+  H28  1  0.85504890  1.03482035  0.47867079  1
  H+  H29  1  0.19279822  0.48722775  0.49827348  1
  H+  H30  1  0.82015560  0.84604630  0.24050027  1
  H+  H31  1  0.49019002  0.12885093  0.75452657  1
  H+  H32  1  0.19337830  0.84690723  0.26876632  1
  H+  H33  1  0.05490635  0.52381171  0.53423496  1
  H+  H34  1  0.64168689  0.82185947  0.25593901  1
  H+  H35  1  0.30740004  0.48239862  0.48205318  1
  H+  H36  1  0.96099594  0.79449265  0.99015513  1
  H+  H37  1  0.81398271  0.51580565  0.75209135  1
  H+  H38  1  0.13719968  0.62914895  0.75870478  1
  H+  H39  1  0.34744868  0.16130117  0.51156890  1
  H+  H40  1  0.55542603  0.43047910  0.40463719  1
  H+  H41  1  0.85530520  0.80675899  0.74833789  1
  H+  H42  1  0.80090140  0.30693967  0.00207828  1
  H+  H43  1  0.18548108  0.77399433  0.85796041  1
  H+  H44  1  0.14879185  0.52423593  0.24522964  1
  H+  H45  1  0.82552678  0.68877118  0.25653038  1
  H+  H46  1  0.17751455  0.48173332  0.99925782  1
  H+  H47  1  0.88468549  0.11566780  0.69725951  1
  H+  H48  1  0.83863127  1.05021132  0.84458305  1
  H+  H49  1  0.14264539  0.95935507  0.73325820  1
  H+  H50  1  0.65313063  0.14927165  0.49403781  1
  H+  H51  1  0.18167602  0.98047001  0.27836521  1
  H+  H52  1  0.18025446  0.69971912  0.26597825  1
  H+  H53  1  0.39555013  0.64114965  0.69033799  1
  H+  H54  1  0.48427153  0.62732358  0.24001255  1
  H+  H55  1  0.50530868  0.01831797  0.99599327  1
  H+  H56  1  -0.03213728  0.49493630  0.76901128  1
  H+  H57  1  0.81488473  0.51500095  0.53331145  1
  H+  H58  1  0.68215852  0.49691013  0.24606010  1
  H+  H59  1  0.13266866  0.00274257  0.44974037  1
  H+  H60  1  0.15635455  0.30103102  0.02956207  1
  H+  H61  1  0.53711023  0.14995991  0.48257898  1
  H+  H62  1  0.80381246  0.51052419  0.01666968  1
  H+  H63  1  1.13614860  0.17365049  0.48314344  1
  H+  H64  1  0.24490369  0.91752233  0.95518406  1
  H+  H65  1  0.83237779  0.48129537  0.23510985  1
  H+  H66  1  0.86272179  1.01408788  0.25324324  1
  H+  H67  1  0.61940915  0.46826264  1.00529707  1
  H+  H68  1  0.00677853  0.14077646  0.73142948  1
  H+  H69  1  0.48093230  0.27825266  0.75211170  1
  H+  H70  1  0.47905100  0.96548191  0.73166561  1
  H+  H71  1  0.47032028  0.49663548  0.02094425  1
  H+  H72  1  0.64027713  0.46078164  0.77166446  1
  H+  H73  1  0.29861199  0.48824057  0.26366316  1
  H+  H74  1  0.47368942  0.60030020  0.73393798  1
  H+  H75  1  0.43258043  0.53851287  0.15815726  1
  H+  H76  1  0.51686808  0.81258980  0.48781612  1
  H+  H77  1  0.80780796  0.30156959  0.20997387  1
  H+  H78  1  0.16201661  0.80458061  0.75951298  1
  H+  H79  1  0.35054435  0.49630963  1.01968159  1
  H+  H80  1  0.84654035  0.68737055  0.76536986  1
  H+  H81  1  0.88717802  0.77131610  0.90036005  1
  H+  H82  1  0.84779926  0.37938319  0.77361049  1
  H+  H83  1  0.61051317  0.13517820  0.75461599  1
  H+  H84  1  -0.00366414  0.14557524  0.26159342  1
  H+  H85  1  0.48721137  0.67515652  1.01797542  1
  H+  H86  1  0.47847645  0.16959788  1.02401178  1
  H+  H87  1  0.50893554  0.34495193  0.26831830  1
  H+  H88  1  0.86556096  0.36760760  0.51808465  1
  H+  H89  1  0.36548492  0.85130959  0.51514568  1
  H+  H90  1  0.91100576  0.27670096  0.73466787  1
  H+  H91  1  0.18475346  0.14238977  0.30114203  1
  H+  H92  1  0.15895869  0.30090042  0.73561206  1
  H+  H93  1  0.52028296  0.69579375  0.48173034  1
  H+  H94  1  0.18232651  0.14168276  0.76559717  1
  H+  H95  1  0.30587292  0.11002908  0.99160012  1
  H+  H96  1  0.60228645  0.78649642  0.80383052  1
  H+  H97  1  0.51775906  0.44750414  0.77830363  1
  H+  H98  1  0.85160647  0.81309949  0.47657925  1
  H+  H99  1  0.84445920  0.69239480  0.49282746  1
  H+  H100  1  0.87433549  0.76783656  0.34349586  1
  H+  H101  1  0.80258284  0.19192501  0.78774506  1
  H+  H102  1  0.95930700  0.48163364  1.00304872  1
  H+  H103  1  1.03010474  0.52529249  0.23588870  1
  H+  H104  1  1.02624927  0.84035533  0.73062356  1
  H+  H105  1  0.17105272  0.64371921  0.52694588  1
  H+  H106  1  0.83095654  0.18388604  0.50778540  1
  H+  H107  1  0.44438277  0.83027824  0.02602878  1
  H+  H108  1  0.97370678  0.15560326  0.48564142  1
  H+  H109  1  0.31075386  0.81310007  0.26812460  1
  H+  H110  1  0.69320381  0.50714173  0.52093173  1
  H+  H111  1  0.79199014  0.88697602  0.56641254  1
  H+  H112  1  0.23064739  0.77787351  0.41639237  1
  H+  H113  1  0.20921928  0.43375925  0.91160864  1
  H+  H114  1  0.75448748  0.54403709  0.15243093  1
  H+  H115  1  0.43288223  0.20386249  0.17089944  1
  H+  H116  1  0.54288047  0.41599161  0.91802245  1
  H+  H117  1  0.21822640  0.45094444  0.35126017  1
  H+  H118  1  0.91786409  0.46719132  0.44564150  1
  H+  H119  1  0.41999588  0.20671845  0.66147842  1
  H+  H120  1  0.79081251  0.21409515  0.60162001  1
  H+  H121  1  0.90208082  0.10364261  0.34787396  1
  H+  H122  1  0.50240443  0.74938331  0.93251482  1
  H+  H123  1  0.13202302  0.22166827  0.17261837  1
  H+  H124  1  0.11137558  0.56282587  0.10482958  1
  H+  H125  1  0.56132836  0.77698637  0.34340640  1
  H+  H126  1  0.76496366  0.54904499  0.66359775  1
  H+  H127  1  0.86126339  0.95605536  0.69914164  1
  H+  H128  1  0.78806630  0.89787628  0.15130246  1
  H+  H129  1  0.22398499  0.06876549  0.90205586  1
  H+  H130  1  0.57923719  0.10272715  0.34416148  1
  H+  H131  1  0.50730928  0.46433978  0.26639545  1
  H+  H132  1  0.45412148  0.88692631  0.63257147  1
  H+  H133  1  0.13875455  0.63300817  0.01334310  1
  H+  H134  1  0.88630346  0.45421750  0.91169235  1
  H+  H135  1  0.16669867  0.91645906  0.17806891  1
  H+  H136  1  0.14617718  0.92537319  0.02475868  1
  H+  H137  1  0.67689989  0.92233974  0.82036334  1
  H+  H138  1  0.76083568  0.22092548  0.10330176  1
  H+  H139  1  0.86315224  0.41974059  0.31195516  1
  H+  H140  1  0.10843643  0.88938390  0.58677838  1
  H+  H141  1  0.31632259  0.24451991  0.55756418  1
  H+  H142  1  0.53492690  0.08881392  0.90241490  1
  H+  H143  1  0.44049594  0.55328558  0.58013678  1
  O2-  O144  1  0.12481147  0.21917302  0.24113227  1
  O2-  O145  1  0.13488142  0.22346966  0.70939437  1
  O2-  O146  1  0.11349239  0.56973140  0.22195586  1
  O2-  O147  1  0.09958161  0.54787485  0.73375327  1
  O2-  O148  1  0.15886031  0.90612288  0.24443821  1
  O2-  O149  1  0.10502180  0.88202013  0.70439409  1
  O2-  O150  1  0.44235659  0.21199821  0.23791150  1
  O2-  O151  1  0.43210611  0.19888745  0.72720318  1
  O2-  O152  1  0.43783439  0.54435590  0.22618009  1
  O2-  O153  1  0.40605389  0.57491827  0.69593412  1
  O2-  O154  1  0.43632963  0.87622684  0.22958311  1
  O2-  O155  1  0.45923513  0.88696982  0.70571681  1
  O2-  O156  1  0.76910410  0.22077507  0.18745015  1
  O2-  O157  1  0.82738925  0.23927879  0.73250983  1
  O2-  O158  1  0.76184345  0.54081353  0.21999911  1
  O2-  O159  1  0.76391355  0.54712863  0.73198905  1
  O2-  O160  1  0.79046183  0.89988816  0.21906660  1
  O2-  O161  1  0.80641840  0.87608270  0.67858983  1
  O2-  O162  1  0.20684797  0.09407481  0.33855638  1
  O2-  O163  1  0.21107237  0.09129111  0.78810079  1
  O2-  O164  1  0.21633033  0.45016430  0.28328923  1
  O2-  O165  1  0.19821804  0.42720365  0.78841950  1
  O2-  O166  1  0.22843267  0.77978589  0.29209869  1
  O2-  O167  1  0.19118297  0.76015392  0.79310804  1
  O2-  O168  1  0.57175898  0.10187740  0.27726832  1
  O2-  O169  1  0.53192682  0.08693673  0.77545673  1
  O2-  O170  1  0.55010910  0.42766527  0.29050188  1
  O2-  O171  1  0.55932365  0.40905382  0.79634951  1
  O2-  O172  1  0.56027362  0.77779044  0.27551095  1
  O2-  O173  1  0.62364461  0.85934569  0.77454672  1
  O2-  O174  1  0.91030011  0.09929617  0.27964703  1
  O2-  O175  1  0.92051082  0.08823668  0.74047676  1
  O2-  O176  1  0.87799975  0.43973986  0.24788285  1
  O2-  O177  1  0.88740355  0.45928436  0.79467716  1
  O2-  O178  1  0.86495245  0.76956144  0.27661725  1
  O2-  O179  1  0.89133400  0.76973743  0.78326747  1
  O2-  O180  1  0.12633570  0.06422714  0.41597112  1
  O2-  O181  1  0.23944713  0.04393557  0.96147606  1
  O2-  O182  1  0.22364901  0.44196395  0.46818332  1
  O2-  O183  1  0.21482469  0.43803952  0.97903705  1
  O2-  O184  1  0.23304952  0.78299541  0.48366534  1
  O2-  O185  1  0.21146908  0.83780760  0.98090476  1
  O2-  O186  1  0.57312514  0.10440666  0.46950856  1
  O2-  O187  1  0.54612011  0.09692175  0.96898692  1
  O2-  O188  1  0.55608898  0.43622330  0.47331080  1
  O2-  O189  1  0.53785058  0.42291519  0.98467302  1
  O2-  O190  1  0.55986585  0.77774586  0.46191382  1
  O2-  O191  1  0.52023597  0.75740977  0.99718518  1
  O2-  O192  1  0.89490773  0.11846792  0.45996561  1
  O2-  O193  1  0.76719236  0.02009696  0.88044434  1
  O2-  O194  1  0.90750646  0.45314267  0.51085892  1
  O2-  O195  1  0.87938691  0.44450301  0.97926168  1
  O2-  O196  1  0.89026694  0.76824782  0.46325778  1
  O2-  O197  1  0.88259898  0.76755463  0.96854287  1
  O2-  O198  1  0.13178668  0.22632333  0.05985661  1
  O2-  O199  1  0.12286981  0.22376723  0.52553036  1
  O2-  O200  1  0.10458933  0.55503093  0.03687110  1
  O2-  O201  1  0.13713549  0.56390279  0.55113883  1
  O2-  O202  1  0.12604003  0.84588340  0.04328535  1
  O2-  O203  1  0.11049813  0.88438081  0.51874811  1
  O2-  O204  1  0.43107182  0.20071025  0.04808693  1
  O2-  O205  1  0.37871066  0.22774456  0.55176277  1
  O2-  O206  1  0.43079249  0.53781602  0.04354957  1
  O2-  O207  1  0.44805585  0.55395260  0.51332695  1
  O2-  O208  1  0.42100093  0.88539636  0.04747678  1
  O2-  O209  1  0.44821236  0.88780709  0.53679955  1
  O2-  O210  1  0.76050484  0.22437287  0.02305233  1
  O2-  O211  1  0.78998402  0.22246169  0.53520128  1
  O2-  O212  1  0.75914019  0.54715909  0.03676311  1
  O2-  O213  1  0.77075860  0.55309270  0.54871666  1
  O2-  O214  1  0.76772362  0.88456656  0.02861254  1
  O2-  O215  1  0.78810452  0.89616164  0.49908035  1
