# generated using pymatgen
data_H2O
_symmetry_space_group_name_H-M   'P 1'
_cell_length_a   13.51586641
_cell_length_b   13.51275676
_cell_length_c   14.68058444
_cell_angle_alpha   90.02040792
_cell_angle_beta   90.01018998
_cell_angle_gamma   119.97209628
_symmetry_Int_Tables_number   1
_chemical_formula_structural   H2O
_chemical_formula_sum   'H144 O72'
_cell_volume   2322.65019569
_cell_formula_units_Z   72
loop_
 _symmetry_equiv_pos_site_id
 _symmetry_equiv_pos_as_xyz
  1  'x, y, z'
loop_
 _atom_type_symbol
 _atom_type_oxidation_number
  H+  1.0
  O2-  -2.0
loop_
 _atom_site_type_symbol
 _atom_site_label
 _atom_site_symmetry_multiplicity
 _atom_site_fract_x
 _atom_site_fract_y
 _atom_site_fract_z
 _atom_site_occupancy
  H+  H0  1  0.63596288  0.49554314  0.47565357  1
  H+  H1  1  0.64613219  0.14748318  0.76363466  1
  H+  H2  1  0.37403030  0.51301661  0.19041668  1
  H+  H3  1  0.47191663  0.16735428  1.01770107  1
  H+  H4  1  0.45040116  0.56586373  0.64656291  1
  H+  H5  1  0.48749719  0.51793974  0.49581011  1
  H+  H6  1  0.86415327  0.15218605  0.48914856  1
  H+  H7  1  0.80622104  0.29565954  0.24375853  1
  H+  H8  1  0.30370219  0.48563556  0.48945011  1
  H+  H9  1  0.79191168  0.22381549  0.40705174  1
  H+  H10  1  0.47749908  0.96151286  0.24055466  1
  H+  H11  1  0.63244484  0.80135026  -0.00063596  1
  H+  H12  1  0.17438501  0.04194904  0.26053871  1
  H+  H13  1  0.19615103  0.16413741  0.50196675  1
  H+  H14  1  0.49054817  0.84906193  0.75390334  1
  H+  H15  1  0.73973722  0.94593177  0.00841734  1
  H+  H16  1  0.17556637  0.80492697  -0.00063996  1
  H+  H17  1  0.51732284  0.02225458  0.99056208  1
  H+  H18  1  0.44390830  0.88623314  0.14801133  1
  H+  H19  1  0.17955387  0.68861995  0.25446919  1
  H+  H20  1  0.14029838  0.95624337  0.00965413  1
  H+  H21  1  0.82887273  0.30932099  0.74511826  1
  H+  H22  1  0.77375714  0.55090778  0.59316794  1
  H+  H23  1  0.82244912  0.53027146  0.50175718  1
  H+  H24  1  0.81532291  0.62918921  0.25454422  1
  H+  H25  1  0.65935932  0.51653949  0.02572536  1
  H+  H26  1  0.63352916  0.14280093  0.99460644  1
  H+  H27  1  0.15548384  0.30975970  0.51492417  1
  H+  H28  1  0.68889893  0.86809309  0.74531552  1
  H+  H29  1  0.16985417  0.78737142  0.76868487  1
  H+  H30  1  0.52502144  0.99304342  0.52466486  1
  H+  H31  1  0.81065554  -0.01847757  0.74474876  1
  H+  H32  1  0.31807004  0.48261870  0.77665305  1
  H+  H33  1  0.34897156  0.16635685  0.78952831  1
  H+  H34  1  0.48529000  0.90755836  0.64908723  1
  H+  H35  1  0.17252575  0.86370755  0.23164848  1
  H+  H36  1  0.04082045  0.19311101  0.74583926  1
  H+  H37  1  0.29079013  0.13113910  1.00211684  1
  H+  H38  1  0.64752624  0.46513611  1.05351872  1
  H+  H39  1  0.97125731  0.47849397  0.75715358  1
  H+  H40  1  0.13464720  0.61260729  0.74856455  1
  H+  H41  1  0.54034941  0.47534793  0.24680815  1
  H+  H42  1  0.04101083  0.18777070  0.51600167  1
  H+  H43  1  0.50971714  0.81302542  0.24454724  1
  H+  H44  1  1.01795301  0.84623857  0.99825554  1
  H+  H45  1  0.48886605  0.53258908  0.73965739  1
  H+  H46  1  0.87783270  0.49608977  0.00546168  1
  H+  H47  1  0.20679144  0.11528885  0.35312929  1
  H+  H48  1  0.37907085  0.20114204  0.51008439  1
  H+  H49  1  0.86148575  1.03211896  0.49832022  1
  H+  H50  1  0.13111403  0.11545696  0.77370910  1
  H+  H51  1  0.82264972  0.18495238  0.01753787  1
  H+  H52  1  0.11626959  0.88882843  0.59466712  1
  H+  H53  1  0.51236751  0.31163080  0.25399396  1
  H+  H54  1  0.68005075  0.42174135  0.69747710  1
  H+  H55  1  0.19645998  0.04588317  0.49904702  1
  H+  H56  1  0.12315825  0.22678876  0.65866406  1
  H+  H57  1  0.45597761  0.44988661  1.01467186  1
  H+  H58  1  0.16081827  0.51013291  1.01931528  1
  H+  H59  1  0.83602315  0.66778652  0.75929318  1
  H+  H60  1  0.14873736  0.50317934  0.24477865  1
  H+  H61  1  0.24862229  0.44717619  0.92410425  1
  H+  H62  1  0.99109666  0.16745862  0.99852705  1
  H+  H63  1  0.84528005  0.48384214  0.26190290  1
  H+  H64  1  0.80573659  0.48025215  0.73691331  1
  H+  H65  1  1.02203117  0.81217213  0.73174572  1
  H+  H66  1  0.83973964  0.80756625  0.25680181  1
  H+  H67  1  0.15173389  0.52536072  0.50659401  1
  H+  H68  1  0.31174237  0.48884728  0.02305125  1
  H+  H69  1  0.82537773  0.86398829  0.51331279  1
  H+  H70  1  0.18216149  0.71028211  0.48645345  1
  H+  H71  1  0.49894024  -0.02171079  0.74856074  1
  H+  H72  1  0.54244410  0.22599219  0.72321029  1
  H+  H73  1  0.62212341  0.13590289  0.26377135  1
  H+  H74  1  0.82213153  1.01901041  0.26110710  1
  H+  H75  1  0.50686667  0.70274567  0.76474198  1
  H+  H76  1  0.46723613  0.62617899  0.49604427  1
  H+  H77  1  0.51366195  0.69767922  0.23169380  1
  H+  H78  1  0.77350411  0.21782649  0.10478157  1
  H+  H79  1  0.85140012  0.38125611  0.48054576  1
  H+  H80  1  0.84776335  0.71976591  0.99542170  1
  H+  H81  1  0.36506197  0.84017305  0.01187439  1
  H+  H82  1  0.44547107  0.27178584  0.01944347  1
  H+  H83  1  0.94861230  0.66395733  0.08145195  1
  H+  H84  1  0.20417655  0.35203649  0.25068358  1
  H+  H85  1  0.33269073  0.13280124  0.74580873  1
  H+  H86  1  0.29943841  0.80594323  0.25239474  1
  H+  H87  1  0.39014979  0.72762862  0.42999412  1
  H+  H88  1  0.56298454  0.11076363  0.85112306  1
  H+  H89  1  0.83223317  0.82873577  0.98019487  1
  H+  H90  1  0.20980779  0.35763657  0.78401546  1
  H+  H91  1  0.85626202  0.71272364  0.49559075  1
  H+  H92  1  0.54220458  0.10296940  0.39856945  1
  H+  H93  1  0.15839368  0.18547966  1.01958729  1
  H+  H94  1  0.51724198  0.15995052  0.48667272  1
  H+  H95  1  0.85137605  0.36543506  0.99938531  1
  H+  H96  1  0.14035532  0.18942244  0.24893175  1
  H+  H97  1  0.03796126  0.50378761  0.01451714  1
  H+  H98  1  1.03411272  0.52672059  0.50472747  1
  H+  H99  1  0.86387401  0.16445185  0.76793193  1
  H+  H100  1  0.62714384  0.50140091  0.79202864  1
  H+  H101  1  0.21729286  0.78119903  0.39434685  1
  H+  H102  1  0.87947290  0.04388539  0.99593999  1
  H+  H103  1  0.97583040  0.83043875  0.49114190  1
  H+  H104  1  0.15876647  0.86152656  0.50168553  1
  H+  H105  1  0.77225262  0.89076550  0.13834282  1
  H+  H106  1  0.16754855  0.31062592  0.01799778  1
  H+  H107  1  0.48286465  0.83657819  1.01193899  1
  H+  H108  1  0.50327434  0.75600543  0.37761939  1
  H+  H109  1  0.56523047  0.45148258  0.37898424  1
  H+  H110  1  0.77802687  0.90394882  0.59759334  1
  H+  H111  1  0.49664855  0.31977799  0.49270291  1
  H+  H112  1  0.12725293  0.93420120  0.74433852  1
  H+  H113  1  0.12031532  0.23985324  0.15520259  1
  H+  H114  1  0.53976150  0.76917145  0.86163879  1
  H+  H115  1  0.69084376  0.18610416  0.47543022  1
  H+  H116  1  0.44785817  0.21878018  0.17331861  1
  H+  H117  1  0.50960996  0.27048379  0.63195976  1
  H+  H118  1  0.20538922  0.75082831  0.86085411  1
  H+  H119  1  0.89401191  0.46090594  0.39539341  1
  H+  H120  1  0.96145337  0.47537500  0.25981418  1
  H+  H121  1  0.90539342  0.12629932  0.85738979  1
  H+  H122  1  0.12622460  0.89852000  0.14538318  1
  H+  H123  1  0.22722308  0.44777692  0.40006292  1
  H+  H124  1  0.88001753  0.77804928  0.34989656  1
  H+  H125  1  0.11048780  0.53851727  0.15354249  1
  H+  H126  1  0.79859439  0.17117761  0.24715073  1
  H+  H127  1  0.79501092  0.22910205  0.65591818  1
  H+  H128  1  0.09601774  0.54734354  0.65299531  1
  H+  H129  1  0.48821820  0.41838197  0.91774792  1
  H+  H130  1  0.69600962  0.50296493  0.24831988  1
  H+  H131  1  0.50737961  0.86557605  0.51653127  1
  H+  H132  1  0.04509324  0.00605545  0.82846203  1
  H+  H133  1  0.87029187  0.09480439  0.35273348  1
  H+  H134  1  0.82928780  0.58199870  0.12720620  1
  H+  H135  1  0.50908026  0.14607961  0.26616819  1
  H+  H136  1  0.89233452  0.43972609  0.85036600  1
  H+  H137  1  0.87761516  0.75662520  0.84098098  1
  H+  H138  1  0.18165656  0.68903590  0.00665282  1
  H+  H139  1  0.52460609  0.38679744  0.76393537  1
  H+  H140  1  0.69721677  0.84573507  0.22908734  1
  H+  H141  1  0.19891516  0.09256356  0.91742349  1
  H+  H142  1  0.32434983  0.41731829  0.30805804  1
  H+  H143  1  0.50983369  0.68505166  1.01259651  1
  O2-  O144  1  0.12193688  0.24869784  0.22265198  1
  O2-  O145  1  0.12180334  0.22146974  0.72681720  1
  O2-  O146  1  0.10685509  0.53988707  0.22248176  1
  O2-  O147  1  0.08817282  0.53480850  0.71977568  1
  O2-  O148  1  0.16097050  0.92471771  0.20590580  1
  O2-  O149  1  0.10412783  0.86099900  0.71283660  1
  O2-  O150  1  0.46663879  0.22614031  0.23868821  1
  O2-  O151  1  0.54689563  0.29385453  0.69382136  1
  O2-  O152  1  0.45399582  0.56032465  0.16735192  1
  O2-  O153  1  0.45064696  0.57327082  0.71414092  1
  O2-  O154  1  0.44082735  0.88116429  0.21619256  1
  O2-  O155  1  0.46233355  0.89845028  0.72059453  1
  O2-  O156  1  0.76304541  0.21581681  0.22010315  1
  O2-  O157  1  0.78740212  0.22604566  0.72211854  1
  O2-  O158  1  0.78358089  0.54931187  0.22845017  1
  O2-  O159  1  0.74845371  0.49838980  0.70885801  1
  O2-  O160  1  0.77731092  0.88909096  0.20786085  1
  O2-  O161  1  0.76316083  0.90745363  0.71391967  1
  O2-  O162  1  0.18054524  0.11130259  0.28993787  1
  O2-  O163  1  0.12509266  0.04906600  0.81037077  1
  O2-  O164  1  0.27151164  0.43623078  0.27795471  1
  O2-  O165  1  0.25494488  0.43061550  0.81700070  1
  O2-  O166  1  0.21923703  0.76922988  0.27534331  1
  O2-  O167  1  0.20165020  0.74108972  0.79384132  1
  O2-  O168  1  0.54196002  0.09444276  0.28667353  1
  O2-  O169  1  0.56429293  0.11005222  0.78249633  1
  O2-  O170  1  0.57811351  0.44157525  0.28086617  1
  O2-  O171  1  0.54362180  0.45771683  0.79857577  1
  O2-  O172  1  0.54602239  0.76858577  0.26842650  1
  O2-  O173  1  0.54028437  0.78017874  0.79394378  1
  O2-  O174  1  0.83777550  0.09151424  0.29167133  1
  O2-  O175  1  0.90542627  0.12528868  0.78918471  1
  O2-  O176  1  0.88255251  0.43812424  0.28463790  1
  O2-  O177  1  0.88739222  0.43400376  0.78278190  1
  O2-  O178  1  0.87163921  0.76202527  0.28351250  1
  O2-  O179  1  0.88950494  0.74686076  0.77551127  1
  O2-  O180  1  0.23968639  0.12759777  0.47885486  1
  O2-  O181  1  0.20775025  0.09697375  0.98463967  1
  O2-  O182  1  0.22261539  0.45061560  0.46726248  1
  O2-  O183  1  0.23477206  0.44847272  0.99202195  1
  O2-  O184  1  0.22420832  0.78922547  0.46180187  1
  O2-  O185  1  0.22199609  0.76883644  0.98260649  1
  O2-  O186  1  0.55375573  0.11441158  0.46689102  1
  O2-  O187  1  0.55513618  0.10298534  0.96785724  1
  O2-  O188  1  0.55683761  0.45431441  0.45121132  1
  O2-  O189  1  0.45036400  0.38601268  0.97628417  1
  O2-  O190  1  0.46912897  0.74675191  0.44054532  1
  O2-  O191  1  0.54794295  0.76011744  0.97896945  1
  O2-  O192  1  0.90853212  0.11489155  0.47370965  1
  O2-  O193  1  0.90941164  0.12356322  0.97504218  1
  O2-  O194  1  0.89491346  0.46357235  0.46434013  1
  O2-  O195  1  0.89952530  0.44405660  0.97408408  1
  O2-  O196  1  0.89411030  0.79225200  0.47165651  1
  O2-  O197  1  0.87569520  0.79004977  0.95890585  1
  O2-  O198  1  0.11948572  0.22884607  0.03831847  1
  O2-  O199  1  0.12115855  0.23150893  0.54107268  1
  O2-  O200  1  0.11597548  0.54675013  0.04217856  1
  O2-  O201  1  0.11325305  0.56652341  0.53013893  1
  O2-  O202  1  0.09592316  0.87206451  0.02289649  1
  O2-  O203  1  0.11939586  0.90186189  0.52754049  1
  O2-  O204  1  0.42199668  0.19373558  0.04472234  1
  O2-  O205  1  0.46333210  0.24314120  0.52402502  1
  O2-  O206  1  0.44404438  0.55642403  0.06678364  1
  O2-  O207  1  0.44265182  0.55106911  0.52517200  1
  O2-  O208  1  0.44702586  0.88292783  0.03149569  1
  O2-  O209  1  0.52207211  0.92805761  0.55947556  1
  O2-  O210  1  0.77716306  0.22096975  0.03618812  1
  O2-  O211  1  0.77794193  0.22841306  0.47184552  1
  O2-  O212  1  0.87032055  0.60771454  0.06543138  1
  O2-  O213  1  0.77950907  0.56681095  0.52674805  1
  O2-  O214  1  0.76052725  0.88976379  0.02778814  1
  O2-  O215  1  0.78776905  0.90869620  0.53015306  1
