# generated using pymatgen
data_H2O
_symmetry_space_group_name_H-M   'P 1'
_cell_length_a   13.52916864
_cell_length_b   13.51409142
_cell_length_c   14.68544842
_cell_angle_alpha   90.07931953
_cell_angle_beta   89.97128114
_cell_angle_gamma   119.89530191
_symmetry_Int_Tables_number   1
_chemical_formula_structural   H2O
_chemical_formula_sum   'H144 O72'
_cell_volume   2327.72996921
_cell_formula_units_Z   72
loop_
 _symmetry_equiv_pos_site_id
 _symmetry_equiv_pos_as_xyz
  1  'x, y, z'
loop_
 _atom_type_symbol
 _atom_type_oxidation_number
  H+  1.0
  O2-  -2.0
loop_
 _atom_site_type_symbol
 _atom_site_label
 _atom_site_symmetry_multiplicity
 _atom_site_fract_x
 _atom_site_fract_y
 _atom_site_fract_z
 _atom_site_occupancy
  H+  H0  1  0.14151275  0.46219359  0.53172909  1
  H+  H1  1  0.83402559  0.61147111  0.20879745  1
  H+  H2  1  0.78056788  0.86003436  0.27375938  1
  H+  H3  1  0.51404986  0.81505844  0.75555824  1
  H+  H4  1  0.15214727  0.83344415  0.75240946  1
  H+  H5  1  0.10711415  0.44435802  0.48852058  1
  H+  H6  1  0.86704846  0.48341199  0.23843306  1
  H+  H7  1  0.07338829  0.86194729  0.23458779  1
  H+  H8  1  0.64924849  0.49557837  0.50357359  1
  H+  H9  1  0.69736701  0.51825609  -0.01139150  1
  H+  H10  1  0.84378699  0.84653934  0.73449448  1
  H+  H11  1  0.84983374  0.69911403  0.99504739  1
  H+  H12  1  0.20338153  0.01791023  0.75886151  1
  H+  H13  1  0.48730299  0.51404310  0.73812318  1
  H+  H14  1  0.83240009  0.47156478  0.79857029  1
  H+  H15  1  0.69959082  0.18943910  0.76011984  1
  H+  H16  1  0.86549354  0.05799715  0.26223467  1
  H+  H17  1  0.74511597  0.37149249  0.43380409  1
  H+  H18  1  0.19586133  0.36905012  0.77673666  1
  H+  H19  1  0.16025608  0.68473918  0.97522218  1
  H+  H20  1  0.49484053  0.74190249  0.39739187  1
  H+  H21  1  0.54055108  0.16932936  0.52888396  1
  H+  H22  1  0.47700585  0.79956858  0.48868311  1
  H+  H23  1  0.34182377  0.45502440  0.48106320  1
  H+  H24  1  0.47100245  0.18480887  0.13609343  1
  H+  H25  1  0.96831839  0.79374879  0.77507544  1
  H+  H26  1  0.86247365  0.82943000  0.60008816  1
  H+  H27  1  0.24513875  0.15874168  0.98805990  1
  H+  H28  1  0.43329297  0.87098446  0.07580712  1
  H+  H29  1  0.51123533  0.94566022  0.19723332  1
  H+  H30  1  0.76449399  0.93191614  0.51263458  1
  H+  H31  1  0.85588848  0.13906276  0.74942815  1
  H+  H32  1  0.44802877  0.01231251  0.34234108  1
  H+  H33  1  0.72608041  0.18996232  0.54282851  1
  H+  H34  1  0.64855713  0.82285073  0.47706506  1
  H+  H35  1  0.50493230  0.31832282  0.51093388  1
  H+  H36  1  0.48983354  0.16523890  0.23936322  1
  H+  H37  1  0.20382695  0.02546315  0.99030601  1
  H+  H38  1  0.22577775  0.67692868  0.48881178  1
  H+  H39  1  0.50057688  0.97944650  0.52841014  1
  H+  H40  1  0.80956933  0.50946373  -0.02691462  1
  H+  H41  1  0.49020728  0.66758515  0.24725705  1
  H+  H42  1  0.17947785  0.20702700  0.21872814  1
  H+  H43  1  0.84544486  1.02983318  -0.03010826  1
  H+  H44  1  0.78525215  0.54239136  0.67721159  1
  H+  H45  1  0.32707277  0.16762740  0.23588454  1
  H+  H46  1  0.51912845  0.35142530  0.75565946  1
  H+  H47  1  0.50993001  0.69504709  0.75555880  1
  H+  H48  1  0.32425547  0.82697389  0.24980294  1
  H+  H49  1  0.88286848  0.17842035  0.23311007  1
  H+  H50  1  0.05741444  0.20003302  0.22142875  1
  H+  H51  1  0.23987048  0.43416442  0.87382792  1
  H+  H52  1  0.47453021  0.84565094  -0.01709579  1
  H+  H53  1  0.86255276  0.96809486  0.70787115  1
  H+  H54  1  0.65123197  0.47922691  0.76297280  1
  H+  H55  1  0.05027989  0.52934477  0.24671850  1
  H+  H56  1  0.16597131  0.16209100  0.50319837  1
  H+  H57  1  0.36787662  0.50390537  0.22457437  1
  H+  H58  1  0.49538608  0.63969826  0.99057397  1
  H+  H59  1  0.74214563  0.21531395  0.20302108  1
  H+  H60  1  0.09927451  0.54487210  -0.10803698  1
  H+  H61  1  0.74924297  0.90073236  0.36354070  1
  H+  H62  1  0.17966065  0.64195761  0.77702811  1
  H+  H63  1  0.19188181  0.36629205  0.25129000  1
  H+  H64  1  0.19491626  0.87626168  0.23003906  1
  H+  H65  1  0.18171722  0.68217131  0.51646907  1
  H+  H66  1  0.52184965  0.15941733  0.75849174  1
  H+  H67  1  1.04042242  0.20195074  0.73532937  1
  H+  H68  1  0.80903448  0.30253720  -0.02817022  1
  H+  H69  1  0.59740576  0.79195122  0.27759100  1
  H+  H70  1  0.62421191  0.81989033  -0.02307102  1
  H+  H71  1  0.28498970  0.80052152  -0.01054412  1
  H+  H72  1  0.26389265  0.03985179  0.44256768  1
  H+  H73  1  0.43421433  0.54062542  0.60422894  1
  H+  H74  1  0.20362786  0.71670304  0.26760518  1
  H+  H75  1  0.31681106  0.82933340  0.76664850  1
  H+  H76  1  0.14351577  0.46008889  -0.00853981  1
  H+  H77  1  0.57499033  0.05556318  0.31522501  1
  H+  H78  1  0.89958256  0.10029660  0.83281507  1
  H+  H79  1  0.86446455  0.43226540  0.38732933  1
  H+  H80  1  0.64789910  0.49175834  0.25071631  1
  H+  H81  1  0.49191255  1.02578817  -0.00840256  1
  H+  H82  1  0.19722767  0.87474793  0.48017223  1
  H+  H83  1  0.89680503  0.79616672  0.22747572  1
  H+  H84  1  0.52949148  0.49023745  0.49483749  1
  H+  H85  1  0.37255519  0.88958915  0.50781157  1
  H+  H86  1  0.88545314  0.37757854  0.23890043  1
  H+  H87  1  0.36720504  0.50693662  0.75271384  1
  H+  H88  1  0.51540324  0.49775067  0.97500271  1
  H+  H89  1  0.81049523  0.24496647  0.11092906  1
  H+  H90  1  0.37451403  0.18033513  0.74073808  1
  H+  H91  1  0.00250851  0.52707719  0.59760040  1
  H+  H92  1  0.49383415  0.51888451  0.22814915  1
  H+  H93  1  0.14450460  0.84537122  1.00448428  1
  H+  H94  1  0.82913500  0.34226695  0.79690050  1
  H+  H95  1  0.12339323  0.96950464  0.54482283  1
  H+  H96  1  0.40480119  0.13502644  -0.01107615  1
  H+  H97  1  0.85424148  0.15013686  0.96262670  1
  H+  H98  1  0.47544851  0.81650852  0.22218752  1
  H+  H99  1  0.81975969  0.52763275  0.52383526  1
  H+  H100  1  0.21739251  0.32033158  0.47337325  1
  H+  H101  1  0.38960871  0.19670142  0.50203639  1
  H+  H102  1  0.81833318  0.64368768  0.54927132  1
  H+  H103  1  0.46342491  0.62074744  0.51424177  1
  H+  H104  1  0.49116312  0.97649427  0.74297885  1
  H+  H105  1  0.83576717  0.30911156  0.53442601  1
  H+  H106  1  0.88774230  0.17364217  0.49410521  1
  H+  H107  1  0.01040195  0.85071045  0.53614713  1
  H+  H108  1  0.13959346  0.56960015  0.16583281  1
  H+  H109  1  0.05661733  0.18147884  0.49851005  1
  H+  H110  1  0.25137692  0.85702878  0.38766172  1
  H+  H111  1  0.25943474  0.41678372  0.38004385  1
  H+  H112  1  0.76735467  0.89813875  0.08576636  1
  H+  H113  1  0.23277315  0.78810295  0.85536865  1
  H+  H114  1  0.69554365  0.18532638  -0.00358617  1
  H+  H115  1  0.81638500  0.62317622  0.76634090  1
  H+  H116  1  0.82492093  0.80783508  0.49949904  1
  H+  H117  1  0.54758158  0.11551745  0.85141986  1
  H+  H118  1  0.44348949  0.89460193  0.65537289  1
  H+  H119  1  0.25358480  0.09882466  0.84472256  1
  H+  H120  1  0.45552547  0.23438840  0.65061476  1
  H+  H121  1  0.57471448  0.12445328  0.44413550  1
  H+  H122  1  0.51501688  0.37348654  0.97702668  1
  H+  H123  1  0.19733192  0.48734176  0.27415824  1
  H+  H124  1  0.45650133  0.55439208  0.07705539  1
  H+  H125  1  0.58232404  0.47228271  0.34570075  1
  H+  H126  1  0.18025516  0.52149812  0.78317512  1
  H+  H127  1  0.10100825  0.86731865  0.66735681  1
  H+  H128  1  0.14204030  0.30144649  0.08202137  1
  H+  H129  1  0.55615487  0.43900096  0.85338830  1
  H+  H130  1  0.96669470  0.82168726  0.99967353  1
  H+  H131  1  0.88655496  0.76769269  0.86176450  1
  H+  H132  1  0.78036699  0.53131618  0.12302599  1
  H+  H133  1  0.02310825  0.51696332  0.70007350  1
  H+  H134  1  0.12994496  0.24577140  0.65397211  1
  H+  H135  1  0.81097369  0.84644331  0.00843176  1
  H+  H136  1  0.54710685  0.77547612  0.88611296  1
  H+  H137  1  0.12539748  0.90025846  0.09407634  1
  H+  H138  1  0.79580626  0.24599617  0.68090634  1
  H+  H139  1  0.90878316  0.75152954  0.32271674  1
  H+  H140  1  0.25790113  0.12907055  0.37760474  1
  H+  H141  1  0.92459570  0.15088463  0.39625679  1
  H+  H142  1  -0.00515644  0.49750007  -0.04301954  1
  H+  H143  1  0.20673643  0.05649276  0.24244786  1
  O2-  O144  1  0.13770248  0.24758433  0.20019308  1
  O2-  O145  1  0.12083720  0.25788841  0.71842001  1
  O2-  O146  1  0.13486220  0.57207369  0.23215960  1
  O2-  O147  1  0.13085691  0.55728503  0.78336852  1
  O2-  O148  1  0.14997385  0.91283033  0.20920906  1
  O2-  O149  1  0.10466682  0.86895724  0.73477240  1
  O2-  O150  1  0.45631318  0.19866013  0.19931431  1
  O2-  O151  1  0.45755354  0.23358208  0.71896064  1
  O2-  O152  1  0.44657301  0.54994746  0.19997281  1
  O2-  O153  1  0.44101577  0.54684530  0.71665681  1
  O2-  O154  1  0.44821765  0.86749647  0.19227409  1
  O2-  O155  1  0.44816706  0.89520284  0.72299877  1
  O2-  O156  1  0.82007596  0.24878827  0.18055143  1
  O2-  O157  1  0.78401017  0.23757382  0.74848172  1
  O2-  O158  1  0.78624867  0.53081755  0.19134461  1
  O2-  O159  1  0.77435676  0.53935228  0.74508690  1
  O2-  O160  1  0.74575482  0.90406633  0.29449113  1
  O2-  O161  1  0.83509139  0.88981313  0.68387602  1
  O2-  O162  1  0.24839411  0.13788566  0.26238087  1
  O2-  O163  1  0.25543871  0.09830779  0.77744598  1
  O2-  O164  1  0.23626578  0.44247568  0.28493823  1
  O2-  O165  1  0.24706850  0.44587192  0.80704447  1
  O2-  O166  1  0.24896790  0.80056340  0.27977566  1
  O2-  O167  1  0.23529489  0.78464127  0.78734933  1
  O2-  O168  1  0.52084541  0.08114165  0.32931130  1
  O2-  O169  1  0.55941628  0.11781108  0.78428443  1
  O2-  O170  1  0.57839191  0.48347443  0.27965647  1
  O2-  O171  1  0.56369731  0.43622591  0.78040623  1
  O2-  O172  1  0.51313620  0.74427335  0.27900125  1
  O2-  O173  1  0.55120515  0.77346580  0.78042862  1
  O2-  O174  1  0.91976256  0.14070298  0.26601098  1
  O2-  O175  1  0.90185869  0.10320635  0.76362543  1
  O2-  O176  1  0.91193050  0.45233507  0.27021411  1
  O2-  O177  1  0.86897532  0.42813424  0.82585751  1
  O2-  O178  1  0.92930454  0.75518561  0.25854424  1
  O2-  O179  1  0.88622500  0.75359033  0.79497104  1
  O2-  O180  1  0.26077712  0.11164813  0.44409672  1
  O2-  O181  1  0.26535752  0.10248837  0.96733532  1
  O2-  O182  1  0.28252575  0.39092717  0.43890273  1
  O2-  O183  1  0.19852074  0.43081075  0.99934743  1
  O2-  O184  1  0.26899855  0.90378798  0.44429062  1
  O2-  O185  1  0.20462913  0.77010934  0.96883543  1
  O2-  O186  1  0.58173846  0.12739519  0.51117792  1
  O2-  O187  1  0.53668326  0.10848268  0.97025080  1
  O2-  O188  1  0.57338755  0.45391358  0.47249277  1
  O2-  O189  1  0.55410389  0.44882794  0.94860421  1
  O2-  O190  1  0.50709760  0.75004972  0.46473992  1
  O2-  O191  1  0.54372411  0.77740193  0.95607941  1
  O2-  O192  1  0.92586759  0.13700404  0.46229528  1
  O2-  O193  1  0.89064730  0.10622620  0.94269457  1
  O2-  O194  1  0.82612139  0.41677257  0.44804769  1
  O2-  O195  1  0.85565319  0.42710873  0.92669458  1
  O2-  O196  1  0.87039053  0.79083116  0.54284847  1
  O2-  O197  1  0.88519052  0.78205125  0.97958580  1
  O2-  O198  1  0.12241348  0.30882644  0.01820177  1
  O2-  O199  1  0.13800690  0.21428923  0.52116935  1
  O2-  O200  1  0.08116754  0.53896510  -0.04052241  1
  O2-  O201  1  -0.03827401  0.49771455  0.65453812  1
  O2-  O202  1  0.11279433  0.89451737  0.02672667  1
  O2-  O203  1  0.09526383  0.88752317  0.54679231  1
  O2-  O204  1  0.48508272  0.17066914  0.01306728  1
  O2-  O205  1  0.46363762  0.23800199  0.53544648  1
  O2-  O206  1  0.46667037  0.55865401  0.00994615  1
  O2-  O207  1  0.44027933  0.54171043  0.53541334  1
  O2-  O208  1  0.43120228  0.88262514  0.00921936  1
  O2-  O209  1  0.44339792  0.89653723  0.53497565  1
  O2-  O210  1  0.77887121  0.22739832  0.00624943  1
  O2-  O211  1  0.80776287  0.23292903  0.56163492  1
  O2-  O212  1  0.77805321  0.55206043  0.00864213  1
  O2-  O213  1  0.77978360  0.55936441  0.55946898  1
  O2-  O214  1  0.76627552  0.88653200  0.02034896  1
  O2-  O215  1  0.73423248  0.86834370  0.46943845  1
