# generated using pymatgen
data_H2O
_symmetry_space_group_name_H-M   'P 1'
_cell_length_a   13.53584043
_cell_length_b   13.52449139
_cell_length_c   14.68773027
_cell_angle_alpha   90.02095106
_cell_angle_beta   89.98388684
_cell_angle_gamma   120.04328291
_symmetry_Int_Tables_number   1
_chemical_formula_structural   H2O
_chemical_formula_sum   'H144 O72'
_cell_volume   2327.56530218
_cell_formula_units_Z   72
loop_
 _symmetry_equiv_pos_site_id
 _symmetry_equiv_pos_as_xyz
  1  'x, y, z'
loop_
 _atom_type_symbol
 _atom_type_oxidation_number
  H+  1.0
  O2-  -2.0
loop_
 _atom_site_type_symbol
 _atom_site_label
 _atom_site_symmetry_multiplicity
 _atom_site_fract_x
 _atom_site_fract_y
 _atom_site_fract_z
 _atom_site_occupancy
  H+  H0  1  0.48206936  0.51383291  0.24241592  1
  H+  H1  1  0.84881693  0.78795962  0.99022063  1
  H+  H2  1  0.56765199  0.82870341  0.27677951  1
  H+  H3  1  0.85609233  0.82360131  0.26530864  1
  H+  H4  1  0.32309793  0.44485802  0.77733412  1
  H+  H5  1  0.53399485  0.80077266  0.97211115  1
  H+  H6  1  0.16205471  0.51897119  0.25076329  1
  H+  H7  1  0.47304116  -0.03168474  0.73758587  1
  H+  H8  1  0.29841761  0.48726430  0.50354822  1
  H+  H9  1  0.44961087  0.53893292  0.66049954  1
  H+  H10  1  0.49834001  0.50664748  0.74953985  1
  H+  H11  1  0.43218764  0.82161011  0.35334957  1
  H+  H12  1  0.55358090  0.08341072  1.01717842  1
  H+  H13  1  0.78719476  0.94359240  0.51375977  1
  H+  H14  1  0.52115424  0.33141998  -0.03288638  1
  H+  H15  1  0.36529356  0.50895156  0.01198564  1
  H+  H16  1  0.83301569  -0.02324445  0.23252977  1
  H+  H17  1  0.78896734  0.22636973  0.15285438  1
  H+  H18  1  0.16736174  0.12374864  0.99687492  1
  H+  H19  1  0.27730555  0.81340792  0.28285696  1
  H+  H20  1  0.47425805  0.16035666  0.74801376  1
  H+  H21  1  0.70948274  0.82791766  1.01139840  1
  H+  H22  1  0.47142331  0.62294459  0.51564309  1
  H+  H23  1  0.81707691  0.62842765  0.74494990  1
  H+  H24  1  0.13697089  0.84201780  0.24052796  1
  H+  H25  1  1.06375418  0.21003961  0.44307007  1
  H+  H26  1  0.22778734  0.10726079  0.33457483  1
  H+  H27  1  -0.04325656  0.81409674  0.50024704  1
  H+  H28  1  0.83557675  0.61269028  0.00858814  1
  H+  H29  1  0.69204301  0.18033703  0.51061985  1
  H+  H30  1  0.63390783  0.13308805  0.75826914  1
  H+  H31  1  0.15626509  0.31729984  0.49548577  1
  H+  H32  1  0.85097674  0.15281488  0.26275327  1
  H+  H33  1  1.02358131  0.81745006  1.00475213  1
  H+  H34  1  0.13957607  0.96947199  0.51017072  1
  H+  H35  1  0.46360788  -0.02335412  0.51109358  1
  H+  H36  1  0.13692213  0.85014506  0.51546661  1
  H+  H37  1  0.67426378  0.81651397  0.25329422  1
  H+  H38  1  0.20586471  0.32438694  0.77123966  1
  H+  H39  1  0.00548040  0.53187784  0.73557187  1
  H+  H40  1  0.85098705  0.14497466  0.76344015  1
  H+  H41  1  0.16598861  0.78800709  0.97886686  1
  H+  H42  1  0.36761765  0.19027695  0.21812764  1
  H+  H43  1  0.64058049  0.16004115  0.25746170  1
  H+  H44  1  0.78531544  0.55604682  0.16100359  1
  H+  H45  1  0.16779382  0.51782805  0.70326738  1
  H+  H46  1  0.48713026  0.19661170  0.22298677  1
  H+  H47  1  0.96960855  0.13165199  0.99631610  1
  H+  H48  1  0.52400645  0.67966506  0.99304492  1
  H+  H49  1  0.56250927  0.74354478  0.40099146  1
  H+  H50  1  0.03578686  0.18536404  0.25113443  1
  H+  H51  1  0.59235281  0.30911381  0.58116980  1
  H+  H52  1  0.80909271  0.46040806  0.79174289  1
  H+  H53  1  0.18507898  0.15982119  0.47674592  1
  H+  H54  1  0.63153422  0.48556074  0.26181695  1
  H+  H55  1  0.14768626  0.28415064  1.01552400  1
  H+  H56  1  0.47011346  0.50518416  0.51397967  1
  H+  H57  1  0.04131138  0.51429809  0.24479708  1
  H+  H58  1  0.07965707  0.56016522  0.59029986  1
  H+  H59  1  0.82484756  0.14047223  0.49707658  1
  H+  H60  1  0.85450388  0.48491496  0.25953111  1
  H+  H61  1  0.52178448  0.04432907  0.26552780  1
  H+  H62  1  0.16432500  0.69649138  0.49759775  1
  H+  H63  1  0.79665815  0.28443559  0.75344579  1
  H+  H64  1  0.47082064  0.23124729  0.62351183  1
  H+  H65  1  0.84393336  0.80616496  0.75853115  1
  H+  H66  1  0.61353963  0.79136890  0.49671808  1
  H+  H67  1  0.81165656  0.29881287  0.50827823  1
  H+  H68  1  0.69188438  0.51373025  0.51038615  1
  H+  H69  1  0.18199916  0.45807213  0.99456597  1
  H+  H70  1  0.41225557  0.79628190  0.24882248  1
  H+  H71  1  0.89150197  0.10204960  0.85035320  1
  H+  H72  1  0.69881626  0.83467999  0.74371675  1
  H+  H73  1  0.15297733  0.18212582  0.24398647  1
  H+  H74  1  0.44082049  0.89298887  0.02427680  1
  H+  H75  1  0.96354472  0.80892834  0.75937787  1
  H+  H76  1  0.35507860  0.15927667  0.74662986  1
  H+  H77  1  0.33952977  0.85816985  0.51432507  1
  H+  H78  1  0.85088248  1.12862618  -0.00536461  1
  H+  H79  1  0.29692851  0.15091171  0.48573308  1
  H+  H80  1  0.82251809  0.30452684  0.24157375  1
  H+  H81  1  0.64763096  0.47954143  0.78364838  1
  H+  H82  1  0.47406240  0.93597027  -0.07575471  1
  H+  H83  1  0.52739277  0.16293370  0.49790413  1
  H+  H84  1  0.51926153  0.37220427  0.49468421  1
  H+  H85  1  0.17557408  0.82811291  0.75042955  1
  H+  H86  1  0.13952672  0.60134342  0.00143586  1
  H+  H87  1  0.92940895  0.12165530  0.51225772  1
  H+  H88  1  0.87039083  0.47660004  0.93864827  1
  H+  H89  1  1.02407595  0.84894287  0.24087785  1
  H+  H90  1  0.14645057  0.96799913  0.75063215  1
  H+  H91  1  0.95804182  0.47749905  0.48600437  1
  H+  H92  1  0.14052491  0.51838891  0.51428142  1
  H+  H93  1  0.83350796  0.80417276  0.49916090  1
  H+  H94  1  0.82757981  0.94698311  0.00655527  1
  H+  H95  1  0.02468254  0.16070524  0.73750793  1
  H+  H96  1  0.20597177  0.76791915  0.83267863  1
  H+  H97  1  0.81710154  0.63727928  0.24863541  1
  H+  H98  1  0.19525350  0.48501128  0.72114601  1
  H+  H99  1  0.18200568  1.13444469  0.76949485  1
  H+  H100  1  0.10698388  0.65689645  0.71906338  1
  H+  H101  1  0.53269832  0.68673909  0.76013767  1
  H+  H102  1  0.19105867  0.36897480  0.26878358  1
  H+  H103  1  0.83861231  0.47517711  0.48840162  1
  H+  H104  1  0.72582194  0.20254305  0.00113083  1
  H+  H105  1  0.18135377  0.02752812  0.24653221  1
  H+  H106  1  0.16798070  1.00579409  -0.00832916  1
  H+  H107  1  0.28035224  0.78448770  -0.04323719  1
  H+  H108  1  0.16894441  0.68828727  0.26666096  1
  H+  H109  1  0.42210096  0.89910339  0.63091419  1
  H+  H110  1  0.72761892  0.49155904  0.00964954  1
  H+  H111  1  0.37312516  0.88252646  0.13383972  1
  H+  H112  1  0.77666115  0.22139383  0.65563642  1
  H+  H113  1  0.88705649  0.77910713  0.35722841  1
  H+  H114  1  0.87860112  0.10381408  0.35235337  1
  H+  H115  1  0.88320268  0.75041229  0.89765873  1
  H+  H116  1  0.12167904  0.54345764  0.09782036  1
  H+  H117  1  0.10441949  0.20982333  0.10590022  1
  H+  H118  1  0.88864304  0.44040650  0.34739301  1
  H+  H119  1  0.10284068  0.19572700  0.64829467  1
  H+  H120  1  0.10375534  0.89576085  0.65611061  1
  H+  H121  1  0.54739299  0.19231261  0.98070802  1
  H+  H122  1  0.85418438  0.30135272  -0.00309377  1
  H+  H123  1  0.19530968  0.77375388  0.40917582  1
  H+  H124  1  0.55342718  0.12096786  0.40195070  1
  H+  H125  1  0.51248260  0.36847433  0.25262949  1
  H+  H126  1  0.47731649  0.26403627  0.06419498  1
  H+  H127  1  0.10141081  0.86239203  0.09436367  1
  H+  H128  1  0.23051498  0.41008885  0.91421637  1
  H+  H129  1  0.22676271  0.45643399  0.40974722  1
  H+  H130  1  0.21662566  0.09365727  0.86245715  1
  H+  H131  1  0.81246150  0.62690993  0.51546836  1
  H+  H132  1  0.30953951  0.48876704  0.26738210  1
  H+  H133  1  0.58017910  0.75962163  0.84997487  1
  H+  H134  1  0.34124990  0.85056513  0.73247243  1
  H+  H135  1  0.76235065  0.87082591  0.60529859  1
  H+  H136  1  0.56424897  0.10561780  0.85140185  1
  H+  H137  1  0.54680820  0.44266854  0.39994603  1
  H+  H138  1  0.81673857  0.95737531  0.74020649  1
  H+  H139  1  0.44226565  0.55721700  0.10050254  1
  H+  H140  1  0.79900209  0.89021727  0.14453274  1
  H+  H141  1  0.42624955  0.94123927  0.13688239  1
  H+  H142  1  0.77248551  0.54214164  0.65974184  1
  H+  H143  1  0.49531516  0.63681147  0.24143009  1
  O2-  O144  1  0.11594240  0.22817041  0.22879694  1
  O2-  O145  1  0.10464951  0.19092392  0.71444112  1
  O2-  O146  1  0.12323768  0.56039505  0.22688841  1
  O2-  O147  1  0.04109231  0.59047340  0.68892868  1
  O2-  O148  1  0.10268110  0.88574430  0.21377879  1
  O2-  O149  1  0.10331314  0.88794654  0.72365977  1
  O2-  O150  1  0.44882812  0.23712476  0.19888382  1
  O2-  O151  1  0.43304174  0.19508376  0.71911592  1
  O2-  O152  1  0.44257249  0.55633367  0.22305654  1
  O2-  O153  1  0.45464114  0.54276757  0.72823902  1
  O2-  O154  1  0.43654950  0.85717048  0.29418829  1
  O2-  O155  1  0.42305646  0.89228479  0.70619765  1
  O2-  O156  1  0.78090604  0.22268434  0.22038459  1
  O2-  O157  1  0.77160820  0.20965803  0.72289197  1
  O2-  O158  1  0.77642988  0.55566057  0.22801778  1
  O2-  O159  1  0.77463516  0.54511389  0.72746746  1
  O2-  O160  1  0.79896142  0.89539560  0.21330232  1
  O2-  O161  1  0.78013433  0.87795381  0.71655300  1
  O2-  O162  1  0.22536303  0.10930028  0.26722837  1
  O2-  O163  1  0.22130508  0.09418481  0.79257391  1
  O2-  O164  1  0.22967020  0.44910303  0.29261935  1
  O2-  O165  1  0.24963323  0.39361342  0.80816559  1
  O2-  O166  1  0.19443172  0.76760937  0.29223597  1
  O2-  O167  1  0.21588625  0.78356139  0.76522391  1
  O2-  O168  1  0.56024247  0.12557601  0.28116796  1
  O2-  O169  1  0.55460127  0.09140364  0.78456987  1
  O2-  O170  1  0.55036512  0.44536105  0.28279234  1
  O2-  O171  1  0.56947249  0.43888459  0.81231640  1
  O2-  O172  1  0.59419317  0.77347002  0.27969656  1
  O2-  O173  1  0.57729429  0.76677900  0.78273125  1
  O2-  O174  1  0.89034551  0.11155322  0.28537918  1
  O2-  O175  1  0.89149403  0.10389045  0.78224871  1
  O2-  O176  1  0.89409650  0.44297958  0.27924316  1
  O2-  O177  1  0.80609741  0.39340702  0.82455357  1
  O2-  O178  1  0.89092651  0.77862602  0.28909667  1
  O2-  O179  1  0.88263359  0.76366412  0.78075148  1
  O2-  O180  1  0.22024086  0.11221868  0.45992835  1
  O2-  O181  1  0.20645499  0.08554657  0.96927818  1
  O2-  O182  1  0.21820591  0.45087907  0.47773311  1
  O2-  O183  1  0.22419335  0.41624152  0.98226088  1
  O2-  O184  1  0.20267178  0.77854072  0.47694254  1
  O2-  O185  1  0.19753656  0.74476782  0.94531342  1
  O2-  O186  1  0.55239463  0.11165973  0.46939504  1
  O2-  O187  1  0.58413310  0.13912413  0.96804012  1
  O2-  O188  1  0.55003879  0.44968820  0.46804362  1
  O2-  O189  1  0.58772759  0.45303767  0.90549433  1
  O2-  O190  1  0.53933094  0.74777040  0.46395245  1
  O2-  O191  1  0.57764929  0.76078507  0.96860017  1
  O2-  O192  1  0.86059371  0.09421454  0.47525286  1
  O2-  O193  1  0.88968504  0.08858950  0.97017335  1
  O2-  O194  1  0.87670247  0.43326093  0.46428718  1
  O2-  O195  1  0.89838076  0.44147543  0.89322070  1
  O2-  O196  1  0.87761402  0.76800605  0.47558136  1
  O2-  O197  1  0.88697767  0.74652964  0.96565982  1
  O2-  O198  1  0.10108292  0.20249000  0.03857340  1
  O2-  O199  1  0.11105056  0.22943183  0.49768990  1
  O2-  O200  1  0.11210559  0.52703820  0.03197464  1
  O2-  O201  1  0.09432170  0.55633770  0.52342338  1
  O2-  O202  1  0.10467908  0.85751575  0.02680459  1
  O2-  O203  1  0.09784144  0.89215437  0.53750951  1
  O2-  O204  1  0.49199486  0.25647408  -0.00025873  1
  O2-  O205  1  0.51337740  0.26107521  0.56126477  1
  O2-  O206  1  0.44532805  0.55972484  0.03325991  1
  O2-  O207  1  0.43014205  0.54289117  0.54192048  1
  O2-  O208  1  0.43877461  0.86693409  -0.03832665  1
  O2-  O209  1  0.41900197  0.89942996  0.53957676  1
  O2-  O210  1  0.80256994  0.23063449  0.02963142  1
  O2-  O211  1  0.77195643  0.21933837  0.53466931  1
  O2-  O212  1  0.80566069  0.53348379  0.03340312  1
  O2-  O213  1  0.77063963  0.54500173  0.53528365  1
  O2-  O214  1  0.79101858  0.86852592  0.03351835  1
  O2-  O215  1  0.75468909  0.86458401  0.53661898  1
