# generated using pymatgen
data_H2O
_symmetry_space_group_name_H-M   'P 1'
_cell_length_a   13.53546118
_cell_length_b   13.52905233
_cell_length_c   14.71116926
_cell_angle_alpha   90.06830022
_cell_angle_beta   89.98816451
_cell_angle_gamma   120.01455852
_symmetry_Int_Tables_number   1
_chemical_formula_structural   H2O
_chemical_formula_sum   'H144 O72'
_cell_volume   2332.67468159
_cell_formula_units_Z   72
loop_
 _symmetry_equiv_pos_site_id
 _symmetry_equiv_pos_as_xyz
  1  'x, y, z'
loop_
 _atom_type_symbol
 _atom_type_oxidation_number
  H+  1.0
  O2-  -2.0
loop_
 _atom_site_type_symbol
 _atom_site_label
 _atom_site_symmetry_multiplicity
 _atom_site_fract_x
 _atom_site_fract_y
 _atom_site_fract_z
 _atom_site_occupancy
  H+  H0  1  0.16949864  0.13625722  0.75028594  1
  H+  H1  1  0.53105643  1.02128656  0.50120154  1
  H+  H2  1  0.20619761  0.42415165  0.83149466  1
  H+  H3  1  0.32568886  0.15561748  0.26990793  1
  H+  H4  1  0.51418416  0.36934180  0.76457259  1
  H+  H5  1  0.30271736  0.48334622  0.49774244  1
  H+  H6  1  0.14878340  0.61296274  0.00420103  1
  H+  H7  1  0.13112713  0.84370601  0.72203261  1
  H+  H8  1  0.84387464  0.82708351  0.49448480  1
  H+  H9  1  0.17157769  0.02399784  0.47929170  1
  H+  H10  1  0.55305577  0.76776402  0.40180538  1
  H+  H11  1  0.49221626  0.95704135  0.25171008  1
  H+  H12  1  0.21377239  0.79586966  1.00475606  1
  H+  H13  1  0.33604169  0.83350538  0.76347993  1
  H+  H14  1  0.53960303  0.40008462  0.54554488  1
  H+  H15  1  0.14087363  0.50623359  0.51089041  1
  H+  H16  1  0.75100631  0.52392273  0.16542928  1
  H+  H17  1  0.79026754  0.82194276  0.23958923  1
  H+  H18  1  0.69893218  0.19488866  0.02969918  1
  H+  H19  1  0.49299458  0.30294314  0.26541248  1
  H+  H20  1  0.70217785  0.84654998  -0.01011499  1
  H+  H21  1  0.14415641  0.97008250  0.73745441  1
  H+  H22  1  0.17655865  0.14804599  0.47736488  1
  H+  H23  1  0.02522684  0.85628332  0.50056488  1
  H+  H24  1  0.51609189  0.81217537  0.49047139  1
  H+  H25  1  0.63887371  0.82339882  0.75586114  1
  H+  H26  1  0.83286602  0.80045517  0.99687629  1
  H+  H27  1  0.49365631  0.64041259  0.73549950  1
  H+  H28  1  0.18697758  0.05654916  0.98527533  1
  H+  H29  1  0.31615896  0.16775284  -0.01994993  1
  H+  H30  1  0.47633778  0.27022392  0.47095573  1
  H+  H31  1  0.46435216  0.88543176  0.15791128  1
  H+  H32  1  0.70778134  0.53243990  0.51797095  1
  H+  H33  1  0.10585660  0.20375663  0.58592887  1
  H+  H34  1  0.18693844  0.36364256  0.49052551  1
  H+  H35  1  0.51519008  0.47494514  0.27095877  1
  H+  H36  1  0.49716860  0.84866037  0.74129648  1
  H+  H37  1  0.80503516  0.91407999  -0.07555860  1
  H+  H38  1  0.84473522  0.36670864  0.98696783  1
  H+  H39  1  0.86490964  0.05780473  1.00207338  1
  H+  H40  1  0.80941905  0.85416715  0.72164000  1
  H+  H41  1  0.51080123  0.12854352  0.28146013  1
  H+  H42  1  0.81705676  0.19449544  1.01148592  1
  H+  H43  1  0.50315454  0.35692394  -0.01177547  1
  H+  H44  1  0.82660752  0.30376173  0.50878135  1
  H+  H45  1  0.83852110  0.47985284  0.99134943  1
  H+  H46  1  0.05268979  0.20810465  0.01071725  1
  H+  H47  1  0.83824321  1.02933296  0.76055906  1
  H+  H48  1  0.02264926  0.16163928  0.73061709  1
  H+  H49  1  0.52592396  0.13696869  0.49598698  1
  H+  H50  1  0.16155306  0.32626426  0.24948857  1
  H+  H51  1  0.88754963  0.44729541  0.84582066  1
  H+  H52  1  0.85106442  0.15275412  0.76303241  1
  H+  H53  1  0.16373658  0.46000247  0.74392076  1
  H+  H54  1  0.16812714  0.20389397  0.00199660  1
  H+  H55  1  0.55717570  0.08694835  0.36321721  1
  H+  H56  1  0.15604613  0.64149704  0.74225456  1
  H+  H57  1  0.32226802  0.82084559  0.26467382  1
  H+  H58  1  0.81422401  0.97396634  0.49837867  1
  H+  H59  1  0.20204494  0.83899089  0.48990120  1
  H+  H60  1  0.79073219  0.60673478  0.03929293  1
  H+  H61  1  1.01005736  0.84159116  1.00900739  1
  H+  H62  1  0.07826247  0.85843306  0.21967072  1
  H+  H63  1  0.48394997  0.52096619  0.00320244  1
  H+  H64  1  0.20169022  0.03741746  0.25510264  1
  H+  H65  1  0.22409841  0.46383585  0.35051869  1
  H+  H66  1  0.85961661  0.15310943  0.47818174  1
  H+  H67  1  0.62444551  0.79950817  0.26412601  1
  H+  H68  1  0.80955212  0.65621598  0.27100507  1
  H+  H69  1  0.67427637  0.49026243  1.02010591  1
  H+  H70  1  0.65381057  0.16062475  0.72485904  1
  H+  H71  1  0.18127553  0.49676980  0.26044812  1
  H+  H72  1  0.02202072  0.50529557  -0.00389588  1
  H+  H73  1  0.83847603  0.46907242  0.27096314  1
  H+  H74  1  0.36117949  0.16304461  0.49604240  1
  H+  H75  1  0.12853806  0.88215924  -0.03829397  1
  H+  H76  1  0.48741977  0.63566340  0.50837470  1
  H+  H77  1  0.86861084  0.14541990  0.25554176  1
  H+  H78  1  0.49675739  0.16455296  0.02288983  1
  H+  H79  1  0.82970747  0.30872495  0.73520097  1
  H+  H80  1  0.18428655  0.48291170  -0.02780874  1
  H+  H81  1  0.92675797  0.77087010  0.27427886  1
  H+  H82  1  0.21993171  0.84265522  0.25510184  1
  H+  H83  1  0.03463469  0.52759543  0.74304380  1
  H+  H84  1  0.96497410  0.82765641  0.74723532  1
  H+  H85  1  0.85185383  0.48736725  0.75578656  1
  H+  H86  1  0.67768652  0.48838197  0.25862043  1
  H+  H87  1  0.03227182  0.17332202  0.49411392  1
  H+  H88  1  0.84106202  0.30010019  0.25098166  1
  H+  H89  1  0.26275162  0.88281662  0.80412588  1
  H+  H90  1  0.69337091  0.85257719  0.50206433  1
  H+  H91  1  0.49397059  0.52299264  0.73657311  1
  H+  H92  1  0.37256916  0.85474683  0.50506103  1
  H+  H93  1  0.49595990  0.62309142  0.24611133  1
  H+  H94  1  0.96992728  0.47988532  0.49692004  1
  H+  H95  1  0.50068776  -0.03045331  0.72407250  1
  H+  H96  1  0.51706161  0.49836093  0.50942938  1
  H+  H97  1  0.50659949  0.79811384  0.26661614  1
  H+  H98  1  0.19991922  0.37600031  0.97818848  1
  H+  H99  1  0.63657845  0.48405598  0.76145980  1
  H+  H100  1  0.81373178  0.63520261  0.74317030  1
  H+  H101  1  0.02101125  0.50521045  0.23730962  1
  H+  H102  1  0.53733523  0.82582914  0.99417070  1
  H+  H103  1  0.85312679  0.48526503  0.49733168  1
  H+  H104  1  0.39410223  0.85105803  0.01494562  1
  H+  H105  1  0.35674668  0.18172920  0.74161080  1
  H+  H106  1  0.47198179  0.19102179  0.70565926  1
  H+  H107  1  0.49800914  -0.02048198  1.02553661  1
  H+  H108  1  0.80664233  0.23306840  0.15805610  1
  H+  H109  1  0.71240986  0.18036285  0.51321659  1
  H+  H110  1  0.54665574  0.43635449  0.36857940  1
  H+  H111  1  0.25299527  0.77337519  0.90825191  1
  H+  H112  1  0.85372391  0.71695373  0.93283871  1
  H+  H113  1  0.56506621  0.78271921  0.84920842  1
  H+  H114  1  0.89678079  0.10752111  0.38832280  1
  H+  H115  1  0.44896754  0.87781254  0.59568794  1
  H+  H116  1  0.98720107  0.14961664  0.25938551  1
  H+  H117  1  0.86921423  0.76982384  0.40867841  1
  H+  H118  1  0.22743148  0.10587465  0.36421003  1
  H+  H119  1  0.39881320  0.24378426  0.08076981  1
  H+  H120  1  0.21513128  0.10613387  0.84222386  1
  H+  H121  1  0.55581663  0.44419420  0.90294081  1
  H+  H122  1  0.76846562  0.89919717  0.63732710  1
  H+  H123  1  0.55411247  0.13233130  0.94348938  1
  H+  H124  1  0.45703869  0.54583115  0.15651838  1
  H+  H125  1  0.89648221  0.82989036  0.83244413  1
  H+  H126  1  0.13809383  0.91344788  0.12824231  1
  H+  H127  1  0.82636194  0.65001970  0.51749187  1
  H+  H128  1  0.47310994  0.22330338  0.17729631  1
  H+  H129  1  0.10469951  0.90101291  0.58817603  1
  H+  H130  1  0.10434500  0.55229910  0.59634193  1
  H+  H131  1  0.80747616  0.94577888  0.23637269  1
  H+  H132  1  0.13311521  0.25152280  0.16022660  1
  H+  H133  1  0.78235802  0.56246627  0.65177928  1
  H+  H134  1  0.89374618  0.12387609  0.90819208  1
  H+  H135  1  0.45107749  0.56106530  0.60140266  1
  H+  H136  1  0.13672650  0.28118807  0.72826392  1
  H+  H137  1  0.88887772  0.44053939  0.35890677  1
  H+  H138  1  0.52443137  0.69953030  0.99086989  1
  H+  H139  1  0.09136873  0.53018482  0.14521077  1
  H+  H140  1  0.55588419  0.13325039  0.79503963  1
  H+  H141  1  0.36989609  0.52759872  -0.00333358  1
  H+  H142  1  0.80006760  0.23078618  0.64424648  1
  H+  H143  1  0.24520149  0.80323252  0.40183082  1
  O2-  O144  1  0.12463922  0.24466034  0.22670021  1
  O2-  O145  1  0.10121032  0.19851346  0.70562872  1
  O2-  O146  1  0.09893908  0.54522812  0.21107422  1
  O2-  O147  1  0.11399257  0.56391626  0.71822036  1
  O2-  O148  1  0.14991363  0.91862061  0.19522760  1
  O2-  O149  1  0.09595866  0.88996505  0.70853961  1
  O2-  O150  1  0.45492621  0.22017730  0.24202539  1
  O2-  O151  1  0.43749106  0.23570227  0.72628604  1
  O2-  O152  1  0.48383912  0.54996603  0.21931627  1
  O2-  O153  1  0.45878998  0.56399215  0.70723290  1
  O2-  O154  1  0.45609903  0.87703115  0.22480462  1
  O2-  O155  1  0.45321402  0.88494454  0.71594199  1
  O2-  O156  1  0.81363011  0.22340143  0.22363241  1
  O2-  O157  1  0.79175707  0.22802554  0.71286484  1
  O2-  O158  1  0.75716592  0.53144190  0.23332842  1
  O2-  O159  1  0.77866781  0.55634186  0.72041867  1
  O2-  O160  1  0.75649673  0.86630135  0.21544333  1
  O2-  O161  1  0.76942585  0.89640712  0.70636133  1
  O2-  O162  1  0.24193834  0.11152614  0.28932130  1
  O2-  O163  1  0.20837441  0.09410628  0.77427678  1
  O2-  O164  1  0.22561966  0.46089953  0.28354187  1
  O2-  O165  1  0.18515548  0.40473340  0.76647149  1
  O2-  O166  1  0.24577211  0.79915430  0.29058873  1
  O2-  O167  1  0.25880083  0.80952871  0.79502023  1
  O2-  O168  1  0.54245530  0.07930392  0.29655894  1
  O2-  O169  1  0.56758120  0.11592582  0.73321494  1
  O2-  O170  1  0.54594011  0.42637301  0.30202678  1
  O2-  O171  1  0.55835225  0.45004704  0.78721771  1
  O2-  O172  1  0.54563718  0.75678361  0.29092549  1
  O2-  O173  1  0.55971207  0.78281380  0.78145382  1
  O2-  O174  1  0.90492291  0.10021885  0.27809504  1
  O2-  O175  1  0.88271240  0.10615847  0.78952964  1
  O2-  O176  1  0.88632400  0.43672413  0.29087866  1
  O2-  O177  1  0.89367732  0.44865280  0.77782230  1
  O2-  O178  1  0.84840109  0.73869922  0.29432044  1
  O2-  O179  1  0.88556298  0.79162166  0.77410763  1
  O2-  O180  1  0.21640516  0.10517433  0.45393473  1
  O2-  O181  1  0.23137981  0.12974028  0.95403067  1
  O2-  O182  1  0.22250223  0.44576068  0.47561552  1
  O2-  O183  1  0.23446064  0.45358387  0.94946031  1
  O2-  O184  1  0.25026524  0.80796927  0.47007437  1
  O2-  O185  1  0.25340969  0.76095618  0.97546227  1
  O2-  O186  1  0.57424773  0.10325745  0.48022487  1
  O2-  O187  1  0.54525859  0.12534854  1.00914565  1
  O2-  O188  1  0.56176679  0.45542795  0.49613595  1
  O2-  O189  1  0.55129854  0.44098033  0.97110360  1
  O2-  O190  1  0.55870381  0.77258378  0.47054447  1
  O2-  O191  1  0.57123527  0.78129053  0.96770759  1
  O2-  O192  1  0.89511966  0.10751042  0.45772400  1
  O2-  O193  1  0.89961951  0.13490940  0.97575570  1
  O2-  O194  1  0.88661667  0.43982602  0.47415375  1
  O2-  O195  1  0.88175149  0.44667847  0.96183063  1
  O2-  O196  1  0.88483123  0.78538412  0.47499770  1
  O2-  O197  1  0.87132217  0.75191743  0.99315001  1
  O2-  O198  1  0.13392044  0.24752135  0.02901449  1
  O2-  O199  1  0.11271240  0.20901027  0.51816415  1
  O2-  O200  1  0.10073209  0.53155895  0.01936358  1
  O2-  O201  1  0.09390227  0.54029652  0.53006117  1
  O2-  O202  1  0.09499233  0.89330456  0.01655209  1
  O2-  O203  1  0.10702098  0.90083502  0.52080866  1
  O2-  O204  1  0.42800108  0.22561085  0.02658607  1
  O2-  O205  1  0.44370471  0.20408046  0.51112731  1
  O2-  O206  1  0.44871112  0.56663995  0.02363920  1
  O2-  O207  1  0.44812335  0.55516456  0.53186107  1
  O2-  O208  1  0.47360293  0.89778660  0.03722435  1
  O2-  O209  1  0.45457040  0.88486772  0.52857385  1
  O2-  O210  1  0.78307339  0.23962062  0.03585843  1
  O2-  O211  1  0.79477180  0.22340804  0.53210694  1
  O2-  O212  1  0.75256958  0.52381200  0.05008323  1
  O2-  O213  1  0.78829330  0.56922879  0.53976669  1
  O2-  O214  1  0.78987750  0.89044385  -0.01207424  1
  O2-  O215  1  0.77421493  0.89538786  0.52638131  1
