# generated using pymatgen
data_H2O
_symmetry_space_group_name_H-M   'P 1'
_cell_length_a   13.50724151
_cell_length_b   13.51028463
_cell_length_c   14.69454522
_cell_angle_alpha   89.99129131
_cell_angle_beta   90.01723767
_cell_angle_gamma   119.99212101
_symmetry_Int_Tables_number   1
_chemical_formula_structural   H2O
_chemical_formula_sum   'H144 O72'
_cell_volume   2322.48223305
_cell_formula_units_Z   72
loop_
 _symmetry_equiv_pos_site_id
 _symmetry_equiv_pos_as_xyz
  1  'x, y, z'
loop_
 _atom_type_symbol
 _atom_type_oxidation_number
  H+  1.0
  O2-  -2.0
loop_
 _atom_site_type_symbol
 _atom_site_label
 _atom_site_symmetry_multiplicity
 _atom_site_fract_x
 _atom_site_fract_y
 _atom_site_fract_z
 _atom_site_occupancy
  H+  H0  1  0.03230160  0.84602373  0.74961348  1
  H+  H1  1  0.52523105  0.81821485  1.01057026  1
  H+  H2  1  0.49669113  0.30905226  0.22551584  1
  H+  H3  1  0.85479747  0.33083930  0.72339974  1
  H+  H4  1  0.14161432  0.61585862  0.23009081  1
  H+  H5  1  0.05275306  0.80478344  0.53514615  1
  H+  H6  1  0.83325453  0.51998833  1.00226307  1
  H+  H7  1  0.82423538  0.84092830  0.25331080  1
  H+  H8  1  0.82545536  0.83760629  0.50573254  1
  H+  H9  1  0.51855463  0.03538471  0.98637653  1
  H+  H10  1  0.20621033  0.77564475  0.47017779  1
  H+  H11  1  0.49407948  0.52506461  0.73414184  1
  H+  H12  1  0.63319850  0.14717536  0.25813436  1
  H+  H13  1  0.70776372  0.84853260  0.50884440  1
  H+  H14  1  0.84674783  0.69362262  0.27468138  1
  H+  H15  1  1.02677314  0.49149314  0.22910467  1
  H+  H16  1  0.22503368  0.78549159  0.31804234  1
  H+  H17  1  0.53217563  0.71155776  0.74751056  1
  H+  H18  1  0.18801502  0.39436898  0.77086157  1
  H+  H19  1  0.85207632  0.21061980  0.71319124  1
  H+  H20  1  0.63446878  0.15997221  0.48605943  1
  H+  H21  1  0.85373881  0.82212522  0.76120058  1
  H+  H22  1  -0.00263567  0.16622553  0.05655499  1
  H+  H23  1  0.37669838  0.52252604  0.25099172  1
  H+  H24  1  0.51944279  0.70771513  0.48726714  1
  H+  H25  1  0.82293954  0.19219275  -0.03333249  1
  H+  H26  1  0.82349591  0.17606588  1.01546967  1
  H+  H27  1  0.48357401  0.97186902  0.23924488  1
  H+  H28  1  0.37656121  0.85773478  0.01002163  1
  H+  H29  1  0.83165064  0.63647455  1.00388073  1
  H+  H30  1  0.14644846  0.16187313  0.49028471  1
  H+  H31  1  0.51266836  0.69538860  1.01252677  1
  H+  H32  1  0.78455802  0.35289197  0.01001916  1
  H+  H33  1  0.18749562  0.70883108  -0.00649017  1
  H+  H34  1  0.64944263  0.82824245  0.74240326  1
  H+  H35  1  0.64958260  0.48537562  0.25397517  1
  H+  H36  1  0.30572899  0.81147691  0.75996804  1
  H+  H37  1  0.71709590  0.53434444  0.74071910  1
  H+  H38  1  0.86177781  0.81376137  0.99900878  1
  H+  H39  1  0.29587254  0.13969873  0.49069834  1
  H+  H40  1  0.18468643  0.34566439  0.48549250  1
  H+  H41  1  0.47910154  0.18024255  1.00006227  1
  H+  H42  1  0.31129257  0.14731984  0.99647046  1
  H+  H43  1  0.02617258  0.16644880  0.49617729  1
  H+  H44  1  0.84173336  0.33595084  0.24907765  1
  H+  H45  1  0.29887634  0.80720426  0.23181069  1
  H+  H46  1  0.10732220  0.18582599  0.61670800  1
  H+  H47  1  0.82623981  0.96614309  0.72042629  1
  H+  H48  1  0.83143635  0.13767578  0.28171860  1
  H+  H49  1  0.53007812  0.83178872  0.49132803  1
  H+  H50  1  0.48411010  0.49266830  0.01365449  1
  H+  H51  1  0.31302618  0.14649158  0.76292324  1
  H+  H52  1  0.19838739  0.32801684  0.01888502  1
  H+  H53  1  0.61746869  0.16913537  -0.01551538  1
  H+  H54  1  0.30490522  0.50660430  0.98782390  1
  H+  H55  1  0.02817367  0.84580795  -0.01348631  1
  H+  H56  1  0.84619594  0.02671287  0.27355041  1
  H+  H57  1  0.18808788  0.47908377  0.26002569  1
  H+  H58  1  0.85542252  0.70338317  0.76587393  1
  H+  H59  1  0.18208812  0.69811346  0.76089371  1
  H+  H60  1  0.70952351  0.84944092  0.24324944  1
  H+  H61  1  0.81479014  -0.03235125  0.96073247  1
  H+  H62  1  0.16009642  -0.02241918  0.99425208  1
  H+  H63  1  0.22404746  0.22409348  0.02349528  1
  H+  H64  1  0.36534101  0.51824873  0.50447548  1
  H+  H65  1  0.64683008  0.48224227  0.98417012  1
  H+  H66  1  0.17275797  0.45591811  0.49930560  1
  H+  H67  1  0.15109817  0.84582494  0.75201598  1
  H+  H68  1  0.45015274  0.56303101  0.58960012  1
  H+  H69  1  0.36231850  0.41993391  0.05712274  1
  H+  H70  1  0.37842302  0.53098896  0.73656116  1
  H+  H71  1  0.49076041  0.85627181  0.23807823  1
  H+  H72  1  0.46828123  0.23402727  0.80855139  1
  H+  H73  1  0.18081208  1.01995438  0.50268981  1
  H+  H74  1  0.17300868  0.25322322  0.70499765  1
  H+  H75  1  0.53996432  0.38365311  0.74936624  1
  H+  H76  1  0.81099529  0.17890117  0.49603377  1
  H+  H77  1  0.51397777  0.15871664  0.49076573  1
  H+  H78  1  0.48933239  0.84183826  0.73554511  1
  H+  H79  1  0.18504268  0.12087264  0.75385794  1
  H+  H80  1  0.15043709  0.52848045  0.74368747  1
  H+  H81  1  0.10548118  0.94073534  0.25241466  1
  H+  H82  1  0.85390133  1.02567299  0.50037190  1
  H+  H83  1  0.78910378  0.23784805  0.58060866  1
  H+  H84  1  0.18696373  0.51236643  0.98749917  1
  H+  H85  1  0.24211395  0.89881794  0.45534719  1
  H+  H86  1  0.84485595  0.66621353  0.52083220  1
  H+  H87  1  0.14851547  0.85906095  0.22085789  1
  H+  H88  1  0.50912310  1.01163423  0.75165088  1
  H+  H89  1  1.01189010  0.17151699  1.00668283  1
  H+  H90  1  0.70584694  0.82514749  1.03215966  1
  H+  H91  1  0.91997991  0.38600893  0.96275077  1
  H+  H92  1  0.53398822  0.49298727  0.25543653  1
  H+  H93  1  0.48808415  0.18697513  0.22765693  1
  H+  H94  1  0.55437280  0.09558987  0.83726156  1
  H+  H95  1  -0.03648532  0.84448826  0.47952161  1
  H+  H96  1  0.03500155  0.53097654  -0.00037116  1
  H+  H97  1  0.39122036  0.87439398  0.50007558  1
  H+  H98  1  0.16243379  0.84932100  0.98657079  1
  H+  H99  1  0.83177646  0.53927368  0.51723642  1
  H+  H100  1  0.82391738  0.49863390  0.23219110  1
  H+  H101  1  -0.04686529  0.46770014  0.48782447  1
  H+  H102  1  -0.02395769  0.13803525  0.73382955  1
  H+  H103  1  0.13741343  0.59283517  0.51625177  1
  H+  H104  1  0.17593692  0.30481859  0.25535213  1
  H+  H105  1  0.79620515  0.87806616  0.11369791  1
  H+  H106  1  0.47518923  0.30704534  0.49808809  1
  H+  H107  1  0.50738778  0.47976176  0.47666059  1
  H+  H108  1  0.56323736  0.78960474  0.34823464  1
  H+  H109  1  0.56692758  0.45253992  0.84299764  1
  H+  H110  1  0.23113693  0.11818856  0.90877139  1
  H+  H111  1  0.54846949  0.43549362  0.39137641  1
  H+  H112  1  0.44420387  0.88213114  0.64940469  1
  H+  H113  1  0.80568963  0.57976044  0.65536907  1
  H+  H114  1  0.83308607  0.36069424  0.47346364  1
  H+  H115  1  0.52335467  0.70763339  0.26105820  1
  H+  H116  1  0.79017004  0.55136838  0.14878668  1
  H+  H117  1  0.86307262  0.50108721  0.76352460  1
  H+  H118  1  0.17365666  0.24772960  0.16203962  1
  H+  H119  1  0.52686473  0.36299798  0.98338956  1
  H+  H120  1  0.11945207  0.87926398  0.62194085  1
  H+  H121  1  0.44487905  0.23539305  0.59131582  1
  H+  H122  1  0.72729074  -0.04699632  0.88586405  1
  H+  H123  1  0.78123482  0.18466137  0.17162049  1
  H+  H124  1  0.90615976  0.46074234  0.85440239  1
  H+  H125  1  0.78627272  0.87695844  0.63875903  1
  H+  H126  1  0.88517236  0.10040589  0.40781555  1
  H+  H127  1  0.44941597  0.55176339  0.16015046  1
  H+  H128  1  0.22795181  0.44658394  0.35379762  1
  H+  H129  1  0.09576868  0.53151915  0.61113974  1
  H+  H130  1  0.54739553  0.11140475  0.34416574  1
  H+  H131  1  0.11107232  0.55816888  0.09330926  1
  H+  H132  1  0.45401123  0.89910022  0.09966406  1
  H+  H133  1  0.50439862  0.98981210  0.51354845  1
  H+  H134  1  0.23657465  0.47876519  0.85419389  1
  H+  H135  1  0.88147209  0.08804997  0.81518855  1
  H+  H136  1  0.02598169  0.52209830  0.74522781  1
  H+  H137  1  0.73579344  0.28475608  0.10312525  1
  H+  H138  1  0.87514939  0.77068915  0.36627468  1
  H+  H139  1  0.89520806  0.78178256  0.90010557  1
  H+  H140  1  0.88986880  0.42918779  0.33246179  1
  H+  H141  1  0.23142952  0.78127937  0.90021166  1
  H+  H142  1  0.50503719  0.16839126  0.74312337  1
  H+  H143  1  0.45187437  0.22816050  0.09305847  1
  O2-  O144  1  0.14043022  0.22892826  0.22441364  1
  O2-  O145  1  0.11000313  0.17929104  0.68705442  1
  O2-  O146  1  0.10905485  0.53573998  0.20782080  1
  O2-  O147  1  0.10686930  0.56241508  0.71625940  1
  O2-  O148  1  0.13463415  0.91995640  0.19930922  1
  O2-  O149  1  0.11171733  0.88411137  0.72477032  1
  O2-  O150  1  0.45622517  0.23131196  0.19802753  1
  O2-  O151  1  0.47036082  0.22295190  0.74311736  1
  O2-  O152  1  0.45689004  0.56497489  0.22698899  1
  O2-  O153  1  0.45530921  0.56542688  0.70865975  1
  O2-  O154  1  0.44699410  0.89206203  0.21302471  1
  O2-  O155  1  0.43751105  0.87327417  0.71686789  1
  O2-  O156  1  0.76516971  0.21046600  0.22858046  1
  O2-  O157  1  0.83023363  0.26291328  0.68406770  1
  O2-  O158  1  0.78698879  0.54488678  0.21611417  1
  O2-  O159  1  0.79970357  0.57414076  0.72576849  1
  O2-  O160  1  0.79056472  0.88639808  0.22326366  1
  O2-  O161  1  0.78726289  0.88219028  0.70839371  1
  O2-  O162  1  0.22098385  0.14454956  0.27709023  1
  O2-  O163  1  0.24443353  0.13086615  0.79776221  1
  O2-  O164  1  0.23537813  0.44797493  0.28611947  1
  O2-  O165  1  0.23644616  0.47518780  0.78442616  1
  O2-  O166  1  0.21766412  0.76443296  0.25316826  1
  O2-  O167  1  0.22707882  0.77644157  0.78768538  1
  O2-  O168  1  0.54830419  0.10757988  0.27663274  1
  O2-  O169  1  0.55363647  0.09400778  0.76955002  1
  O2-  O170  1  0.56769345  0.44556108  0.27449032  1
  O2-  O171  1  0.56962092  0.46112089  0.77491497  1
  O2-  O172  1  0.56264549  0.78958722  0.27996612  1
  O2-  O173  1  0.56943247  0.79273090  0.76633571  1
  O2-  O174  1  0.87629957  0.10196646  0.30385992  1
  O2-  O175  1  0.89472708  0.10966263  0.74969607  1
  O2-  O176  1  0.89117100  0.42358367  0.26499247  1
  O2-  O177  1  0.90536303  0.46142004  0.78357247  1
  O2-  O178  1  0.87741050  0.77241008  0.29657357  1
  O2-  O179  1  0.89372325  0.78419164  0.79064172  1
  O2-  O180  1  0.21500053  0.09338589  0.47008507  1
  O2-  O181  1  0.22785161  0.10971317  0.97695586  1
  O2-  O182  1  0.22243752  0.42972172  0.47097103  1
  O2-  O183  1  0.22803843  0.47346133  0.95999199  1
  O2-  O184  1  0.26262389  0.84152720  0.43600201  1
  O2-  O185  1  0.23009796  0.78924511  0.96852540  1
  O2-  O186  1  0.55137449  0.11561757  0.46821308  1
  O2-  O187  1  0.54441767  0.11036958  0.95551515  1
  O2-  O188  1  0.53637839  0.42837556  0.45856643  1
  O2-  O189  1  0.56672293  0.44400993  0.96008476  1
  O2-  O190  1  0.56496937  0.78819428  0.46504360  1
  O2-  O191  1  0.56654383  0.77529805  0.99970877  1
  O2-  O192  1  0.89247491  0.10648829  0.47753142  1
  O2-  O193  1  0.80380699  0.00720475  0.90772995  1
  O2-  O194  1  0.88039220  0.44305064  0.45544644  1
  O2-  O195  1  0.91326350  0.45447280  0.95824382  1
  O2-  O196  1  0.88499378  0.78294655  0.47278626  1
  O2-  O197  1  0.90557914  0.77962122  0.96850632  1
  O2-  O198  1  0.23343557  0.29337828  0.05641787  1
  O2-  O199  1  0.11036931  0.20644188  0.51509448  1
  O2-  O200  1  0.11765366  0.57259218  0.02583839  1
  O2-  O201  1  0.09353820  0.51704314  0.54258886  1
  O2-  O202  1  0.11645768  0.89007158  0.00062047  1
  O2-  O203  1  0.12436208  0.87308325  0.55175993  1
  O2-  O204  1  0.44472296  0.22618287  0.02292661  1
  O2-  O205  1  0.43812904  0.22559185  0.52543462  1
  O2-  O206  1  0.42340536  0.50123579  0.04600495  1
  O2-  O207  1  0.44748431  0.56541223  0.52182240  1
  O2-  O208  1  0.45728500  0.89796266  0.03107120  1
  O2-  O209  1  0.46482362  0.90635942  0.53271877  1
  O2-  O210  1  0.71555149  0.28913081  0.03980080  1
  O2-  O211  1  0.77184786  0.22225312  0.51323133  1
  O2-  O212  1  0.78850018  0.55529963  0.02456580  1
  O2-  O213  1  0.81389451  0.58947060  0.55362339  1
  O2-  O214  1  0.78975808  0.86572089  0.04507958  1
  O2-  O215  1  0.78683126  0.88436940  0.53303767  1
