# generated using pymatgen
data_H2O
_symmetry_space_group_name_H-M   'P 1'
_cell_length_a   13.52061339
_cell_length_b   13.51037287
_cell_length_c   14.69854090
_cell_angle_alpha   89.97398426
_cell_angle_beta   89.96786445
_cell_angle_gamma   120.03363234
_symmetry_Int_Tables_number   1
_chemical_formula_structural   H2O
_chemical_formula_sum   'H144 O72'
_cell_volume   2324.45465613
_cell_formula_units_Z   72
loop_
 _symmetry_equiv_pos_site_id
 _symmetry_equiv_pos_as_xyz
  1  'x, y, z'
loop_
 _atom_type_symbol
 _atom_type_oxidation_number
  H+  1.0
  O2-  -2.0
loop_
 _atom_site_type_symbol
 _atom_site_label
 _atom_site_symmetry_multiplicity
 _atom_site_fract_x
 _atom_site_fract_y
 _atom_site_fract_z
 _atom_site_occupancy
  H+  H0  1  0.15169258  0.30181118  0.51087204  1
  H+  H1  1  0.65019164  0.17789036  0.48334117  1
  H+  H2  1  0.62814139  0.47168166  0.98354826  1
  H+  H3  1  0.81670291  0.52112401  0.74500510  1
  H+  H4  1  0.96884863  0.15195248  0.48621303  1
  H+  H5  1  0.83705966  0.81529335  0.74901762  1
  H+  H6  1  0.51924121  0.48781712  0.98761467  1
  H+  H7  1  0.14659654  0.84961450  0.51929468  1
  H+  H8  1  0.23199584  0.19697199  0.29070603  1
  H+  H9  1  0.14030764  0.72929088  0.99758889  1
  H+  H10  1  0.83508476  0.13780231  0.26053729  1
  H+  H11  1  0.17526771  0.81165286  0.24601132  1
  H+  H12  1  0.43571271  0.12470672  -0.00286869  1
  H+  H13  1  0.12916463  0.17599279  -0.00451587  1
  H+  H14  1  0.14752309  0.30469000  0.99486419  1
  H+  H15  1  0.32747332  0.16583745  0.27775856  1
  H+  H16  1  0.19343307  0.83336843  0.76598672  1
  H+  H17  1  0.55940513  0.10754825  0.34944940  1
  H+  H18  1  0.63260413  0.06914161  0.91368426  1
  H+  H19  1  0.16787561  0.70808595  0.75525932  1
  H+  H20  1  0.96651914  0.80586426  0.98732005  1
  H+  H21  1  0.43101879  0.31357163  0.02682117  1
  H+  H22  1  0.49924011  0.17349058  0.25081568  1
  H+  H23  1  0.30701330  0.16369293  0.50567606  1
  H+  H24  1  0.41449699  0.90001915  0.55666028  1
  H+  H25  1  0.21388553  0.46230575  0.76152496  1
  H+  H26  1  0.36081263  0.51546391  0.24197301  1
  H+  H27  1  0.12881128  -0.03405220  0.74473849  1
  H+  H28  1  0.38306740  0.47288832  0.50596088  1
  H+  H29  1  0.52649280  0.72248434  0.50225433  1
  H+  H30  1  0.14327246  0.28187542  0.74688804  1
  H+  H31  1  0.81399882  0.52375255  0.50373327  1
  H+  H32  1  0.83855822  0.35703466  0.76033577  1
  H+  H33  1  0.04789625  0.86853479  0.24034845  1
  H+  H34  1  0.50644441  0.36354795  0.29146419  1
  H+  H35  1  0.16683462  -0.01890333  0.25150082  1
  H+  H36  1  0.82474263  0.85285040  0.50772288  1
  H+  H37  1  0.48107926  0.18152908  0.97758154  1
  H+  H38  1  0.80984759  0.97336139  0.24033841  1
  H+  H39  1  0.15668296  0.63350917  0.23609659  1
  H+  H40  1  0.33589372  0.79822210  0.02119042  1
  H+  H41  1  0.31744583  0.48663112  -0.00711730  1
  H+  H42  1  0.53002219  0.27919790  0.18850121  1
  H+  H43  1  0.25837735  0.14530747  1.00234490  1
  H+  H44  1  0.85943458  0.82531448  0.26099873  1
  H+  H45  1  0.52126573  0.69379897  0.26785311  1
  H+  H46  1  0.15534634  0.68296047  0.49295499  1
  H+  H47  1  0.48603895  0.31057447  0.73555231  1
  H+  H48  1  0.82313699  0.18764609  0.49951341  1
  H+  H49  1  0.50969316  0.79724457  0.99154110  1
  H+  H50  1  0.27257866  0.78886310  0.46314695  1
  H+  H51  1  0.18134104  0.47869100  0.25337351  1
  H+  H52  1  1.04427219  0.51081965  0.23203844  1
  H+  H53  1  0.26470458  0.51994217  0.46523459  1
  H+  H54  1  0.82055600  -0.02997042  1.01598492  1
  H+  H55  1  0.69785522  0.17660812  0.24924425  1
  H+  H56  1  0.78503639  0.55517542  0.08475628  1
  H+  H57  1  0.82388000  -0.02793962  0.50972075  1
  H+  H58  1  -0.02814072  0.82495061  0.49297177  1
  H+  H59  1  0.17457160  0.35631197  0.24661019  1
  H+  H60  1  0.82283170  1.01387381  0.75715407  1
  H+  H61  1  0.53409231  1.06581832  0.49873433  1
  H+  H62  1  0.10904075  0.14956166  0.19967588  1
  H+  H63  1  0.98193406  0.83259992  0.74583447  1
  H+  H64  1  0.68076020  0.81188739  0.72571387  1
  H+  H65  1  0.06122993  0.53715697  0.00431024  1
  H+  H66  1  0.79838934  0.16793092  0.72939553  1
  H+  H67  1  0.95843281  0.15215587  0.98036461  1
  H+  H68  1  0.54065905  0.10386784  0.94029515  1
  H+  H69  1  0.63328723  0.81082534  0.99628473  1
  H+  H70  1  0.82306731  0.30829858  0.50053663  1
  H+  H71  1  0.14962242  0.18363566  0.51602421  1
  H+  H72  1  0.14313471  0.92767902  0.01769192  1
  H+  H73  1  0.69962538  0.52262594  0.74347506  1
  H+  H74  1  0.85303924  0.70524113  0.48910450  1
  H+  H75  1  0.49473122  0.63591610  0.01057358  1
  H+  H76  1  0.43801995  0.91539594  -0.00913981  1
  H+  H77  1  0.50261352  0.85242016  0.24049497  1
  H+  H78  1  -0.04720590  0.48461771  0.48858348  1
  H+  H79  1  0.52043471  0.88805170  0.52723928  1
  H+  H80  1  0.72189051  0.20804205  0.03140554  1
  H+  H81  1  0.87686012  0.37888715  0.99691317  1
  H+  H82  1  0.78869667  0.54932969  0.33236280  1
  H+  H83  1  0.82118541  0.63534534  -0.00135705  1
  H+  H84  1  0.82532645  0.85215087  0.01824901  1
  H+  H85  1  0.45114164  0.24372148  0.64090687  1
  H+  H86  1  0.13091300  0.54015375  0.74715063  1
  H+  H87  1  0.15640979  0.97346604  0.52322057  1
  H+  H88  1  0.95178777  0.13546557  0.24561501  1
  H+  H89  1  0.51466732  0.16893844  0.72498364  1
  H+  H90  1  0.82529893  0.18422411  0.01487056  1
  H+  H91  1  0.48187570  0.73269606  0.73624284  1
  H+  H92  1  0.86117405  0.48038878  0.25320879  1
  H+  H93  1  0.11421812  0.49571405  0.52545204  1
  H+  H94  1  0.64335025  0.16294388  0.71836258  1
  H+  H95  1  0.28542733  0.13931022  0.75551177  1
  H+  H96  1  0.82007228  0.64305276  0.26089145  1
  H+  H97  1  0.47675263  0.51546984  0.25725607  1
  H+  H98  1  0.65048710  0.83109581  0.49595160  1
  H+  H99  1  0.51076481  0.22208640  0.49806490  1
  H+  H100  1  0.45353756  0.55558129  0.10025254  1
  H+  H101  1  0.62244688  0.48179850  0.29349215  1
  H+  H102  1  0.39334071  0.53817215  0.74231742  1
  H+  H103  1  1.00211715  0.51232750  0.74549369  1
  H+  H104  1  0.85567522  0.35935293  0.25924828  1
  H+  H105  1  0.52507472  1.02462229  0.25857186  1
  H+  H106  1  0.84452165  0.69567104  0.75397986  1
  H+  H107  1  0.36442606  0.81571121  0.75090670  1
  H+  H108  1  0.88850779  0.10486762  0.39773859  1
  H+  H109  1  0.76973742  0.87851185  0.64595222  1
  H+  H110  1  0.09299561  0.88503973  0.65305799  1
  H+  H111  1  0.54309030  0.08676805  0.79642289  1
  H+  H112  1  0.24013696  0.43411818  0.38571186  1
  H+  H113  1  0.25246819  0.43846136  0.85591084  1
  H+  H114  1  0.56907042  0.78060347  0.35484724  1
  H+  H115  1  0.78654179  0.22058658  0.16424337  1
  H+  H116  1  0.88465262  0.78313338  0.90222242  1
  H+  H117  1  0.50064444  0.43561178  0.52359722  1
  H+  H118  1  0.68579001  0.83975056  0.24305795  1
  H+  H119  1  0.38890654  0.22885122  0.11071175  1
  H+  H120  1  0.86713675  0.10104084  0.89897473  1
  H+  H121  1  0.77887105  0.22177898  0.63609712  1
  H+  H122  1  0.09666820  0.21404002  0.65385928  1
  H+  H123  1  0.52632053  0.49525807  0.75659984  1
  H+  H124  1  0.20597429  0.49873929  0.98356546  1
  H+  H125  1  0.19739309  0.09021857  0.90781846  1
  H+  H126  1  0.77328346  0.88821729  0.14326609  1
  H+  H127  1  0.46057392  0.53143508  0.59693236  1
  H+  H128  1  0.47177477  0.88176940  0.68604526  1
  H+  H129  1  0.18368016  0.75734164  0.33811387  1
  H+  H130  1  0.08256193  0.55148853  0.60724176  1
  H+  H131  1  0.77991523  0.56748006  0.59175854  1
  H+  H132  1  0.86954460  0.49245795  0.98678754  1
  H+  H133  1  0.90109973  0.79100951  0.35104803  1
  H+  H134  1  0.45189179  0.88361738  0.15427070  1
  H+  H135  1  0.94136799  0.13202963  0.75706696  1
  H+  H136  1  0.16664049  0.13886487  0.75574787  1
  H+  H137  1  0.88667276  0.44396529  0.39394206  1
  H+  H138  1  0.23106668  0.11565185  0.41907891  1
  H+  H139  1  0.13714664  0.57419339  0.09333909  1
  H+  H140  1  0.55234863  0.44443454  0.84632536  1
  H+  H141  1  0.88508963  0.43445281  0.85240340  1
  H+  H142  1  0.55016671  0.39517392  0.43273065  1
  H+  H143  1  0.08750297  0.21863788  0.12544307  1
  O2-  O144  1  0.08532200  0.20677266  0.19417148  1
  O2-  O145  1  0.09224202  0.20478077  0.72153502  1
  O2-  O146  1  0.12560121  0.55173975  0.21255739  1
  O2-  O147  1  0.08107633  0.56283151  0.71739526  1
  O2-  O148  1  0.12817326  0.90762755  0.21969193  1
  O2-  O149  1  0.08301180  0.88377527  0.72195009  1
  O2-  O150  1  0.47113185  0.22867265  0.23155437  1
  O2-  O151  1  0.44810929  0.23155486  0.70789865  1
  O2-  O152  1  0.44447110  0.55874973  0.22767521  1
  O2-  O153  1  0.46579791  0.57684812  0.70567414  1
  O2-  O154  1  0.47372952  0.90222181  0.21864242  1
  O2-  O155  1  0.44459697  0.83312039  0.74034203  1
  O2-  O156  1  0.78168661  0.21684393  0.23199627  1
  O2-  O157  1  0.76575796  0.21491747  0.70446539  1
  O2-  O158  1  0.77571068  0.55705359  0.26792028  1
  O2-  O159  1  0.78128558  0.56571533  0.72237264  1
  O2-  O160  1  0.76886277  0.88872477  0.21570856  1
  O2-  O161  1  0.76235001  0.86929493  0.71418201  1
  O2-  O162  1  0.24961906  0.13636428  0.30265160  1
  O2-  O163  1  0.20583182  0.09696237  0.77793197  1
  O2-  O164  1  0.21818080  0.43269842  0.27502143  1
  O2-  O165  1  0.25781685  0.43015502  0.78740898  1
  O2-  O166  1  0.19803235  0.75790251  0.27266605  1
  O2-  O167  1  0.22824809  0.78539193  0.77250700  1
  O2-  O168  1  0.56178733  0.10747354  0.28152686  1
  O2-  O169  1  0.55425784  0.12008475  0.73291486  1
  O2-  O170  1  0.54495152  0.43927156  0.32166347  1
  O2-  O171  1  0.55777876  0.44672776  0.77779671  1
  O2-  O172  1  0.57142570  0.77599608  0.28697918  1
  O2-  O173  1  0.53239506  0.69617899  0.73986871  1
  O2-  O174  1  0.87477227  0.09256537  0.27544083  1
  O2-  O175  1  0.86052156  0.09498071  0.77822175  1
  O2-  O176  1  0.90177109  0.44195245  0.27679248  1
  O2-  O177  1  0.87738308  0.43638838  0.78423227  1
  O2-  O178  1  0.89920652  0.78566686  0.28253696  1
  O2-  O179  1  0.88479220  0.78064484  0.77258210  1
  O2-  O180  1  0.22644382  0.11630668  0.48688970  1
  O2-  O181  1  0.18388122  0.08805327  0.97404319  1
  O2-  O182  1  0.25435215  0.44408981  0.45398126  1
  O2-  O183  1  0.23845631  0.44962192  0.96533920  1
  O2-  O184  1  0.19131146  0.76246288  0.46838562  1
  O2-  O185  1  0.16201232  0.80452788  0.96966887  1
  O2-  O186  1  0.56720275  0.14046608  0.46610369  1
  O2-  O187  1  0.55444904  0.05207911  0.90206328  1
  O2-  O188  1  0.54416967  0.38356516  0.50174104  1
  O2-  O189  1  0.54833647  0.43787580  0.96216004  1
  O2-  O190  1  0.56852249  0.79818496  0.47429421  1
  O2-  O191  1  0.55589863  0.76292665  0.97172511  1
  O2-  O192  1  0.88772134  0.10986876  0.46521102  1
  O2-  O193  1  0.87394323  0.10646233  0.96683905  1
  O2-  O194  1  0.87502593  0.44240108  0.46136190  1
  O2-  O195  1  0.91180615  0.45370951  0.96517825  1
  O2-  O196  1  0.89373139  0.78732583  0.46623950  1
  O2-  O197  1  0.88437400  0.77760208  0.96922517  1
  O2-  O198  1  0.09481847  0.22404437  0.01490267  1
  O2-  O199  1  0.10652548  0.22297078  0.53438555  1
  O2-  O200  1  0.14121937  0.58426254  0.02565135  1
  O2-  O201  1  0.08598434  0.54794769  0.53856692  1
  O2-  O202  1  0.09733238  0.84355863  0.02599896  1
  O2-  O203  1  0.11009171  0.89240683  0.54411732  1
  O2-  O204  1  0.36225187  0.25752168  0.06092852  1
  O2-  O205  1  0.46591320  0.26123682  0.51858471  1
  O2-  O206  1  0.45271054  0.55308118  0.03293799  1
  O2-  O207  1  0.46028763  0.50293861  0.53383613  1
  O2-  O208  1  0.41767946  0.84973689  0.03060592  1
  O2-  O209  1  0.49769771  0.93908973  0.55890722  1
  O2-  O210  1  0.80154024  0.23555458  0.04714035  1
  O2-  O211  1  0.78363626  0.22766211  0.52469961  1
  O2-  O212  1  0.78595202  0.55320407  0.01838765  1
  O2-  O213  1  0.78299902  0.57274415  0.52467367  1
  O2-  O214  1  0.78592412  0.89226420  0.04447887  1
  O2-  O215  1  0.78249246  0.89119255  0.53213017  1
