# generated using pymatgen
data_H2O
_symmetry_space_group_name_H-M   'P 1'
_cell_length_a   13.50718917
_cell_length_b   13.51926140
_cell_length_c   14.69103677
_cell_angle_alpha   90.02255129
_cell_angle_beta   90.00871499
_cell_angle_gamma   120.01217558
_symmetry_Int_Tables_number   1
_chemical_formula_structural   H2O
_chemical_formula_sum   'H144 O72'
_cell_volume   2322.99170823
_cell_formula_units_Z   72
loop_
 _symmetry_equiv_pos_site_id
 _symmetry_equiv_pos_as_xyz
  1  'x, y, z'
loop_
 _atom_type_symbol
 _atom_type_oxidation_number
  H+  1.0
  O2-  -2.0
loop_
 _atom_site_type_symbol
 _atom_site_label
 _atom_site_symmetry_multiplicity
 _atom_site_fract_x
 _atom_site_fract_y
 _atom_site_fract_z
 _atom_site_occupancy
  H+  H0  1  0.05295976  0.21029492  0.50246495  1
  H+  H1  1  0.50909288  0.15140820  0.74466702  1
  H+  H2  1  0.50187044  0.36057320  0.75298930  1
  H+  H3  1  0.19479550  0.82722197  0.25934376  1
  H+  H4  1  0.15046405  0.96943827  0.49328817  1
  H+  H5  1  -0.02621350  0.49929643  0.75527895  1
  H+  H6  1  0.49046467  -0.04460548  0.99150648  1
  H+  H7  1  0.81883647  0.31593908  0.00769778  1
  H+  H8  1  0.50773855  0.36101512  0.26602403  1
  H+  H9  1  0.34734273  0.50696353  0.75223422  1
  H+  H10  1  0.47637057  0.52576504  0.53315428  1
  H+  H11  1  0.88670301  0.11708116  1.09722848  1
  H+  H12  1  0.85355155  0.16944578  0.47517350  1
  H+  H13  1  0.02901876  0.85771444  0.01202949  1
  H+  H14  1  0.16059528  0.64413690  0.51891019  1
  H+  H15  1  0.84413384  0.70704009  0.98119611  1
  H+  H16  1  0.63895061  0.14312120  -0.02549701  1
  H+  H17  1  0.35422699  0.18942810  0.01731401  1
  H+  H18  1  0.51033246  0.81187897  0.98911213  1
  H+  H19  1  0.44776519  0.56093550  0.14934587  1
  H+  H20  1  0.19929050  0.15721564  0.75845122  1
  H+  H21  1  0.48685658  0.63714401  1.00959064  1
  H+  H22  1  0.63126061  0.15926776  0.73312355  1
  H+  H23  1  0.85012075  0.49251500  0.97632706  1
  H+  H24  1  0.71820500  0.91415238  0.50935475  1
  H+  H25  1  0.90097409  0.11626711  0.34133578  1
  H+  H26  1  0.57148905  0.28274456  0.19283061  1
  H+  H27  1  -0.01167980  0.14767015  0.24973793  1
  H+  H28  1  0.84386280  0.16779960  0.77970426  1
  H+  H29  1  0.77742283  0.56542164  0.07031481  1
  H+  H30  1  0.85418961  1.01451541  0.25396359  1
  H+  H31  1  0.15076277  0.52500180  0.00750030  1
  H+  H32  1  0.17370142  0.32090750  0.51113586  1
  H+  H33  1  0.47466267  0.30781077  0.01025865  1
  H+  H34  1  0.48163973  0.52099047  0.24135161  1
  H+  H35  1  0.61598673  0.48255779  0.50491964  1
  H+  H36  1  0.49928250  0.85111707  0.25522422  1
  H+  H37  1  0.88903668  0.78097762  0.34889882  1
  H+  H38  1  0.36950036  0.18508345  0.74099465  1
  H+  H39  1  0.81962854  0.19675081  0.01928144  1
  H+  H40  1  0.80675687  0.29909067  0.23529671  1
  H+  H41  1  0.36105917  0.17152587  0.50703795  1
  H+  H42  1  1.04251532  0.14997955  0.73749740  1
  H+  H43  1  0.73981558  0.84883298  0.64194698  1
  H+  H44  1  0.47689340  0.29048432  0.51516506  1
  H+  H45  1  0.80648520  0.32652134  0.71817626  1
  H+  H46  1  0.15234632  0.52289137  0.51049416  1
  H+  H47  1  0.52222683  1.01420388  0.25795456  1
  H+  H48  1  0.61441092  0.44937798  0.32253955  1
  H+  H49  1  0.14333577  0.43294717  0.76922685  1
  H+  H50  1  0.18532668  0.37284442  0.99857283  1
  H+  H51  1  0.49450641  -0.00906157  0.73944871  1
  H+  H52  1  0.69354651  0.52100603  0.98459368  1
  H+  H53  1  0.30383963  0.49231585  0.25774268  1
  H+  H54  1  0.19208044  0.84444045  0.75155361  1
  H+  H55  1  0.36781968  0.84394215  0.00106575  1
  H+  H56  1  0.67604905  0.16805773  0.23601918  1
  H+  H57  1  0.80672027  0.51118857  0.73885780  1
  H+  H58  1  0.61881260  0.47781320  0.75496820  1
  H+  H59  1  0.04241031  0.86196998  0.24536832  1
  H+  H60  1  0.17568338  0.70619808  0.98823716  1
  H+  H61  1  0.55086196  0.70468820  0.50820907  1
  H+  H62  1  0.15596044  0.18547125  0.23803470  1
  H+  H63  1  0.82813890  0.85737454  0.24282574  1
  H+  H64  1  0.14669313  0.85584420  0.01220518  1
  H+  H65  1  0.80220210  0.51331873  0.50602995  1
  H+  H66  1  0.49428252  0.69853098  0.76127691  1
  H+  H67  1  0.86957950  -0.00698484  0.75441602  1
  H+  H68  1  0.36679725  0.52010914  1.01154195  1
  H+  H69  1  0.17256082  0.33448959  0.76258222  1
  H+  H70  1  0.30929582  0.50608450  0.49598815  1
  H+  H71  1  0.46924801  0.51430306  0.74879143  1
  H+  H72  1  -0.03072385  0.49249565  -0.01397653  1
  H+  H73  1  0.84250899  0.82561306  -0.01275171  1
  H+  H74  1  0.18748383  0.72483705  0.75252119  1
  H+  H75  1  0.48463128  0.85545004  0.74805982  1
  H+  H76  1  0.80469155  0.20737460  0.73461093  1
  H+  H77  1  0.70744465  0.85646632  0.24594233  1
  H+  H78  1  0.93449655  0.77419364  0.76849918  1
  H+  H79  1  0.17851356  0.03504019  0.99352012  1
  H+  H80  1  0.70046910  0.53964946  0.20937673  1
  H+  H81  1  0.68684338  0.84642537  0.00505098  1
  H+  H82  1  0.95957713  0.48504023  0.48615878  1
  H+  H83  1  0.03774190  0.18955270  0.01810852  1
  H+  H84  1  0.20730982  1.04440341  0.75584779  1
  H+  H85  1  0.03354446  0.84752201  0.49914721  1
  H+  H86  1  0.83810672  0.69432195  0.48960562  1
  H+  H87  1  0.11615805  0.89820316  0.15383548  1
  H+  H88  1  0.14745812  0.63762886  0.23975238  1
  H+  H89  1  0.30615135  0.15437794  0.25846399  1
  H+  H90  1  0.61699328  0.81180908  0.75346664  1
  H+  H91  1  0.88189259  0.43655461  0.33738254  1
  H+  H92  1  0.51397452  0.48727898  0.98563626  1
  H+  H93  1  0.05564188  0.91047091  0.70892240  1
  H+  H94  1  0.68905065  0.16696697  0.49590272  1
  H+  H95  1  0.88742966  0.07243391  0.48421424  1
  H+  H96  1  0.38088324  0.85200168  0.24294485  1
  H+  H97  1  0.20287615  0.58527747  0.72720156  1
  H+  H98  1  0.45715300  0.23666692  0.13662978  1
  H+  H99  1  0.18609141  0.15434424  0.48757848  1
  H+  H100  1  0.80711957  0.51999199  0.22103788  1
  H+  H101  1  0.53040913  0.70202179  0.25857116  1
  H+  H102  1  0.85848267  0.71348650  0.25368326  1
  H+  H103  1  0.82918150  0.80620288  0.48363617  1
  H+  H104  1  0.18842995  0.03593392  0.25522389  1
  H+  H105  1  0.50527969  0.12645091  0.48756579  1
  H+  H106  1  0.21613991  0.79064690  0.90241812  1
  H+  H107  1  0.78618108  0.81538980  0.73034764  1
  H+  H108  1  0.54714447  0.09035521  0.39903481  1
  H+  H109  1  0.11604772  0.22562267  0.14844587  1
  H+  H110  1  0.88585122  0.11312821  0.78859296  1
  H+  H111  1  0.15614345  0.18871160  0.00841039  1
  H+  H112  1  0.18610184  0.37380704  0.26061496  1
  H+  H113  1  0.56725920  0.10183969  0.88292260  1
  H+  H114  1  0.96306722  0.47258222  0.25008219  1
  H+  H115  1  0.15176131  0.52243979  0.23861018  1
  H+  H116  1  0.77234126  0.22490135  0.58094585  1
  H+  H117  1  0.44132995  0.21688484  0.64658750  1
  H+  H118  1  0.36385782  0.86487995  0.74667308  1
  H+  H119  1  0.21963064  0.44199045  0.90684325  1
  H+  H120  1  0.58113935  0.77445103  0.35037741  1
  H+  H121  1  0.39811578  0.91243891  0.46510927  1
  H+  H122  1  0.43629425  0.57287544  0.61607019  1
  H+  H123  1  0.12743186  0.90664849  0.62655366  1
  H+  H124  1  0.22485036  0.11402509  0.90393570  1
  H+  H125  1  0.22316108  0.11409617  0.39731460  1
  H+  H126  1  0.89392218  0.45232828  0.84312893  1
  H+  H127  1  0.84266537  0.36540901  0.48037101  1
  H+  H128  1  0.76518880  0.55130230  0.59734352  1
  H+  H129  1  0.76726605  0.88202684  0.09431593  1
  H+  H130  1  0.54342961  0.44074012  0.89442476  1
  H+  H131  1  0.86636458  0.77213923  0.85621981  1
  H+  H132  1  0.76259215  0.22680976  0.13611624  1
  H+  H133  1  0.79011621  0.61929485  0.74418989  1
  H+  H134  1  0.12060744  0.21553075  0.64781546  1
  H+  H135  1  0.55387322  0.77353376  0.90186743  1
  H+  H136  1  0.51897834  0.13545229  0.25484350  1
  H+  H137  1  0.20759807  0.83225591  0.51267419  1
  H+  H138  1  0.10947405  0.56379340  0.09541651  1
  H+  H139  1  0.84101550  0.03203899  1.01668760  1
  H+  H140  1  0.25386703  0.79666079  0.34044568  1
  H+  H141  1  0.23233121  0.45995125  0.40483544  1
  H+  H142  1  0.12177375  0.57229285  0.64474082  1
  H+  H143  1  0.51939136  0.44204926  0.42813292  1
  O2-  O144  1  0.10914012  0.22004321  0.21733207  1
  O2-  O145  1  0.12212549  0.20916911  0.71542027  1
  O2-  O146  1  0.10642416  0.55740180  0.21616522  1
  O2-  O147  1  0.13044125  0.58202025  0.71375867  1
  O2-  O148  1  0.12242066  0.90221394  0.22212344  1
  O2-  O149  1  0.12792006  0.91375025  0.69582061  1
  O2-  O150  1  0.48952569  0.24640373  0.20534618  1
  O2-  O151  1  0.44904664  0.22448886  0.71457771  1
  O2-  O152  1  0.44614292  0.56422325  0.21802088  1
  O2-  O153  1  0.42753826  0.55576460  0.73137093  1
  O2-  O154  1  0.46490180  0.89706615  0.23436957  1
  O2-  O155  1  0.44677200  0.90104370  0.72536214  1
  O2-  O156  1  0.76056333  0.21941614  0.20710294  1
  O2-  O157  1  0.76679790  0.24615377  0.69531871  1
  O2-  O158  1  0.78197150  0.57205412  0.19579341  1
  O2-  O159  1  0.75850261  0.54266858  0.71532451  1
  O2-  O160  1  0.78918450  0.90061787  0.22187051  1
  O2-  O161  1  0.75033408  0.85996767  0.70834691  1
  O2-  O162  1  0.22641076  0.11795220  0.27824761  1
  O2-  O163  1  0.24118654  0.12009974  0.78597313  1
  O2-  O164  1  0.22461626  0.45332887  0.28349107  1
  O2-  O165  1  0.20230065  0.41491945  0.78695989  1
  O2-  O166  1  0.23145117  0.78145505  0.27549510  1
  O2-  O167  1  0.23050740  0.80417925  0.77710330  1
  O2-  O168  1  0.56651588  0.10334746  0.27646519  1
  O2-  O169  1  0.55272993  0.11024078  0.75937290  1
  O2-  O170  1  0.54214389  0.43751097  0.29778283  1
  O2-  O171  1  0.53815403  0.44072297  0.77715065  1
  O2-  O172  1  0.57726277  0.78154660  0.28327552  1
  O2-  O173  1  0.53814333  0.78113175  0.77914318  1
  O2-  O174  1  0.90358353  0.10334272  0.27333803  1
  O2-  O175  1  0.92479924  0.06246998  0.78793772  1
  O2-  O176  1  0.88043070  0.43124613  0.26936499  1
  O2-  O177  1  0.89320537  0.45830635  0.77494955  1
  O2-  O178  1  0.89611773  0.79089960  0.28100523  1
  O2-  O179  1  0.85848043  0.75728762  0.78735234  1
  O2-  O180  1  0.22079581  0.10858910  0.46513777  1
  O2-  O181  1  0.21818931  0.11601383  0.97150700  1
  O2-  O182  1  0.22927456  0.45855940  0.47283924  1
  O2-  O183  1  0.22369546  0.45245266  0.97391894  1
  O2-  O184  1  0.25635723  0.79734960  0.52501363  1
  O2-  O185  1  0.21426962  0.78824809  0.96975482  1
  O2-  O186  1  0.54023998  0.08097707  0.46620165  1
  O2-  O187  1  0.56392023  0.08812459  0.94900568  1
  O2-  O188  1  0.53109738  0.44096951  0.49428509  1
  O2-  O189  1  0.55319596  0.44607787  0.96224323  1
  O2-  O190  1  0.60288315  0.77031293  0.46688243  1
  O2-  O191  1  0.55609409  0.77223359  0.96932504  1
  O2-  O192  1  0.90655324  0.14180612  0.45041044  1
  O2-  O193  1  0.88654212  0.11654472  1.03083924  1
  O2-  O194  1  0.88138828  0.44655550  0.45960673  1
  O2-  O195  1  0.88966036  0.44886359  0.96047289  1
  O2-  O196  1  0.87880328  0.77487479  0.46631984  1
  O2-  O197  1  0.88636928  0.78949979  0.96244874  1
  O2-  O198  1  0.11999187  0.23189839  0.03543304  1
  O2-  O199  1  0.12965373  0.23793084  0.52888505  1
  O2-  O200  1  0.10792679  0.56387225  0.02733428  1
  O2-  O201  1  0.11085074  0.56165958  0.53438890  1
  O2-  O202  1  0.10812081  0.89743981  0.03707417  1
  O2-  O203  1  0.11484034  0.88967447  0.51862100  1
  O2-  O204  1  0.43337415  0.23305442  0.04232233  1
  O2-  O205  1  0.44085083  0.20814199  0.53124935  1
  O2-  O206  1  0.44738057  0.55661329  0.03398175  1
  O2-  O207  1  0.44560004  0.57736549  0.54817761  1
  O2-  O208  1  0.44937910  0.87555837  0.01580774  1
  O2-  O209  1  0.33553119  0.83542782  0.44699471  1
  O2-  O210  1  0.77647917  0.23685074  0.03469708  1
  O2-  O211  1  0.77166411  0.21652925  0.51288249  1
  O2-  O212  1  0.77704121  0.56458437  0.00300533  1
  O2-  O213  1  0.76221520  0.55343072  0.52915248  1
  O2-  O214  1  0.76959253  0.88875051  0.02721528  1
  O2-  O215  1  0.71142066  0.83870650  0.51647611  1
