# generated using pymatgen
data_H2O
_symmetry_space_group_name_H-M   'P 1'
_cell_length_a   13.50612327
_cell_length_b   13.52353163
_cell_length_c   14.69532222
_cell_angle_alpha   89.96749908
_cell_angle_beta   89.95628097
_cell_angle_gamma   120.02285981
_symmetry_Int_Tables_number   1
_chemical_formula_structural   H2O
_chemical_formula_sum   'H144 O72'
_cell_volume   2323.96777432
_cell_formula_units_Z   72
loop_
 _symmetry_equiv_pos_site_id
 _symmetry_equiv_pos_as_xyz
  1  'x, y, z'
loop_
 _atom_type_symbol
 _atom_type_oxidation_number
  H+  1.0
  O2-  -2.0
loop_
 _atom_site_type_symbol
 _atom_site_label
 _atom_site_symmetry_multiplicity
 _atom_site_fract_x
 _atom_site_fract_y
 _atom_site_fract_z
 _atom_site_occupancy
  H+  H0  1  0.82965387  0.65168040  0.24882853  1
  H+  H1  1  0.55179155  0.12120166  0.86109112  1
  H+  H2  1  0.76406372  0.43418080  0.98338975  1
  H+  H3  1  0.16709885  0.35758860  0.74977729  1
  H+  H4  1  -0.01020525  0.56005631  0.49403219  1
  H+  H5  1  0.32255881  0.83015370  0.76838687  1
  H+  H6  1  0.42398159  0.22547425  0.12993796  1
  H+  H7  1  0.87803367  0.42648270  0.18093185  1
  H+  H8  1  0.50622102  0.16355460  0.76007306  1
  H+  H9  1  0.81468471  0.26017837  0.75170269  1
  H+  H10  1  0.81822955  0.57385205  0.53541044  1
  H+  H11  1  0.20200040  0.05749720  0.78918838  1
  H+  H12  1  0.16380123  0.30364759  0.50776608  1
  H+  H13  1  -0.02331610  0.15296942  0.47868415  1
  H+  H14  1  0.47935397  0.18903445  0.52322694  1
  H+  H15  1  0.17450904  0.65805203  0.74747503  1
  H+  H16  1  0.05630499  0.46090002  0.54470179  1
  H+  H17  1  0.15239074  0.26399813  0.09454135  1
  H+  H18  1  0.79408719  0.28876343  0.02577032  1
  H+  H19  1  0.83339254  0.11499002  0.73964422  1
  H+  H20  1  0.21695728  0.49850297  0.49814797  1
  H+  H21  1  0.63121514  0.15844277  0.76032207  1
  H+  H22  1  0.36727123  0.85995866  0.00557601  1
  H+  H23  1  0.16467138  0.85256628  0.25065575  1
  H+  H24  1  0.48656343  0.71577505  0.97458893  1
  H+  H25  1  0.51238823  0.35785626  0.48307440  1
  H+  H26  1  0.04454292  0.86792602  -0.00374646  1
  H+  H27  1  0.89822279  0.84630075  0.48105402  1
  H+  H28  1  0.90218176  0.77047038  0.84418643  1
  H+  H29  1  0.02425562  0.51941959  0.25528827  1
  H+  H30  1  0.78850933  0.29219393  0.26987571  1
  H+  H31  1  0.88415694  0.43229909  0.76953403  1
  H+  H32  1  0.53754933  0.82617333  0.25303921  1
  H+  H33  1  0.17743942  0.48105733  0.76846244  1
  H+  H34  1  0.37177760  0.19343280  0.75413764  1
  H+  H35  1  0.03797340  0.85889304  0.24468502  1
  H+  H36  1  0.22382816  0.78364102  0.90226507  1
  H+  H37  1  0.87685131  0.81358135  0.75092820  1
  H+  H38  1  0.52560512  0.37437298  0.24704742  1
  H+  H39  1  0.45664284  0.87159641  0.47895573  1
  H+  H40  1  0.30965613  0.15939708  0.24545424  1
  H+  H41  1  0.84972189  0.81132119  0.98727368  1
  H+  H42  1  0.51622977  0.63165655  0.50063884  1
  H+  H43  1  0.18402011  0.14547194  0.25890379  1
  H+  H44  1  0.71099696  0.19343984  0.51882100  1
  H+  H45  1  0.42578214  0.15220206  -0.01302795  1
  H+  H46  1  0.86945734  0.62678912  1.01803374  1
  H+  H47  1  0.84636179  0.50022485  0.24449466  1
  H+  H48  1  0.14133657  0.34087684  0.28343913  1
  H+  H49  1  0.61983792  0.15915305  -0.01104026  1
  H+  H50  1  0.85779508  0.14776838  0.47253902  1
  H+  H51  1  0.79596986  -0.00015118  0.97600030  1
  H+  H52  1  0.52168743  0.48182208  0.00511963  1
  H+  H53  1  1.05295704  0.86493089  0.76739726  1
  H+  H54  1  0.53307553  0.60041122  0.00373398  1
  H+  H55  1  0.16309483  0.71100592  0.99696458  1
  H+  H56  1  0.69204423  0.53940381  0.96904770  1
  H+  H57  1  0.15700170  0.47536639  0.27437911  1
  H+  H58  1  0.86394030  0.46197223  0.91544683  1
  H+  H59  1  0.49933594  -0.03486209  0.73668649  1
  H+  H60  1  0.05550310  0.17334790  0.33976925  1
  H+  H61  1  0.83641288  0.51271044  0.77337243  1
  H+  H62  1  0.18439366  0.70339431  0.27335260  1
  H+  H63  1  0.67695046  0.81489958  0.48268768  1
  H+  H64  1  0.15025601  0.81377568  0.48507237  1
  H+  H65  1  0.52958404  0.63815771  0.72460135  1
  H+  H66  1  0.78108254  0.89026560  0.09338152  1
  H+  H67  1  0.56166863  0.80329044  0.51408169  1
  H+  H68  1  0.17643526  0.71243206  0.49868827  1
  H+  H69  1  0.16769727  0.85156681  0.98993897  1
  H+  H70  1  0.20658019  0.49847642  0.01184143  1
  H+  H71  1  1.03634293  0.18187136  0.99069151  1
  H+  H72  1  0.61268626  0.14466124  0.26374555  1
  H+  H73  1  0.50244104  0.50549060  0.49669243  1
  H+  H74  1  0.17151604  -0.01920950  0.24263094  1
  H+  H75  1  0.82999104  -0.04911671  0.72464696  1
  H+  H76  1  0.33166237  0.49156452  0.48506145  1
  H+  H77  1  0.48515115  -0.03896439  0.22329585  1
  H+  H78  1  0.68542742  0.52030042  0.51918629  1
  H+  H79  1  0.70921301  0.53292138  0.24890065  1
  H+  H80  1  0.90089226  0.12139402  0.96795496  1
  H+  H81  1  0.52421967  0.84283755  0.97453791  1
  H+  H82  1  0.34908567  0.87585175  0.50936907  1
  H+  H83  1  0.16510623  0.02542716  0.47691717  1
  H+  H84  1  0.19704286  0.17156211  0.77389989  1
  H+  H85  1  0.17650436  0.49131172  0.96663322  1
  H+  H86  1  0.68822582  0.83204216  1.01349035  1
  H+  H87  1  0.88655262  0.85546374  0.25462423  1
  H+  H88  1  0.36862369  0.45997545  0.94405867  1
  H+  H89  1  0.17596462  0.98762988  0.00040731  1
  H+  H90  1  0.72622543  0.87684494  0.24072277  1
  H+  H91  1  0.52974763  0.80431265  0.74262550  1
  H+  H92  1  0.37346177  0.84064257  0.23291244  1
  H+  H93  1  0.26761726  0.14850795  -0.08065707  1
  H+  H94  1  0.02461389  0.12373962  0.00773051  1
  H+  H95  1  0.52321329  0.05366975  0.49676777  1
  H+  H96  1  0.52579810  0.49194989  0.25728013  1
  H+  H97  1  0.45134264  0.89539333  0.09040669  1
  H+  H98  1  0.24810486  0.35113108  0.97206873  1
  H+  H99  1  0.15624543  0.18202384  0.50266639  1
  H+  H100  1  0.47614995  0.18707799  0.21050230  1
  H+  H101  1  0.35572388  0.17789162  0.51687015  1
  H+  H102  1  0.50831020  1.03544383  -0.02037442  1
  H+  H103  1  0.71593124  0.50587624  0.65670589  1
  H+  H104  1  0.55132955  0.52384627  0.71835087  1
  H+  H105  1  -0.01064186  0.54445361  0.03416638  1
  H+  H106  1  0.77666999  0.16373140  0.01776350  1
  H+  H107  1  1.02734006  0.16861913  0.73609879  1
  H+  H108  1  0.25688874  0.41901261  0.86220781  1
  H+  H109  1  0.04753772  0.55692898  0.74961707  1
  H+  H110  1  0.89992272  0.52377884  0.41579715  1
  H+  H111  1  0.10979287  0.21273277  0.64934967  1
  H+  H112  1  0.49312998  0.55800305  0.62510862  1
  H+  H113  1  0.54464049  0.36839341  0.74992858  1
  H+  H114  1  0.61843528  0.45280387  0.89150976  1
  H+  H115  1  0.15051246  0.92886184  0.69187316  1
  H+  H116  1  0.58096900  0.78930485  0.34141892  1
  H+  H117  1  0.92984677  0.81491308  0.34296886  1
  H+  H118  1  0.80759511  0.88968165  0.58422881  1
  H+  H119  1  0.58574129  0.15452299  0.42436071  1
  H+  H120  1  0.45180885  0.89124721  0.64721588  1
  H+  H121  1  0.71692332  0.83075469  0.72081115  1
  H+  H122  1  0.23179452  0.22337707  0.04947480  1
  H+  H123  1  0.03315631  0.85486832  0.56285753  1
  H+  H124  1  0.50648313  0.64149460  0.23109882  1
  H+  H125  1  0.48603947  0.08140258  0.31352629  1
  H+  H126  1  0.45863203  0.55002136  0.15168191  1
  H+  H127  1  0.12433823  0.55950633  0.61407979  1
  H+  H128  1  0.10054430  0.53673632  0.02775893  1
  H+  H129  1  0.44021469  0.21918080  0.65772784  1
  H+  H130  1  0.84095973  -0.02668307  0.49561499  1
  H+  H131  1  0.00457477  0.15117993  0.24407191  1
  H+  H132  1  0.56814781  0.77049608  0.83332652  1
  H+  H133  1  0.83150053  0.30560070  0.51856643  1
  H+  H134  1  0.76117374  0.20285548  0.19299367  1
  H+  H135  1  0.22888661  0.10946964  0.39446918  1
  H+  H136  1  0.21805677  0.44147229  0.36411220  1
  H+  H137  1  0.83704599  0.03828475  0.30664622  1
  H+  H138  1  0.55870236  0.43563000  0.39019165  1
  H+  H139  1  0.20775011  0.84006852  0.77503570  1
  H+  H140  1  0.85815267  0.07762023  0.83390444  1
  H+  H141  1  0.22874761  0.79093240  0.35576292  1
  H+  H142  1  0.77305263  0.21346833  0.65113583  1
  H+  H143  1  0.11207577  0.56854265  0.17619824  1
  O2-  O144  1  0.07828865  0.19914333  0.27686273  1
  O2-  O145  1  0.10877622  0.21567577  0.71698452  1
  O2-  O146  1  0.10991227  0.55841515  0.24316115  1
  O2-  O147  1  0.12415586  0.57772732  0.72590123  1
  O2-  O148  1  0.12717686  0.89608352  0.22470374  1
  O2-  O149  1  0.14125186  0.91556199  0.75736051  1
  O2-  O150  1  0.43667194  0.23082861  0.19698804  1
  O2-  O151  1  0.45028212  0.22231415  0.72610497  1
  O2-  O152  1  0.46090742  0.55872227  0.21816415  1
  O2-  O153  1  0.50442212  0.56024989  0.69625870  1
  O2-  O154  1  0.45106454  0.87901088  0.20540386  1
  O2-  O155  1  0.45869984  0.88597310  0.71401687  1
  O2-  O156  1  0.74692406  0.20893993  0.25791753  1
  O2-  O157  1  0.75721153  0.19414514  0.71806571  1
  O2-  O158  1  0.79139150  0.57082346  0.23066366  1
  O2-  O159  1  0.70552936  0.46280051  0.71819074  1
  O2-  O160  1  0.80822913  0.91846331  0.21655854  1
  O2-  O161  1  0.79684096  0.87215249  0.69838231  1
  O2-  O162  1  0.23127690  0.11071140  0.27429108  1
  O2-  O163  1  0.24430522  0.14150662  0.80194516  1
  O2-  O164  1  0.19068467  0.42598277  0.29675223  1
  O2-  O165  1  0.21474278  0.43472033  0.77769056  1
  O2-  O166  1  0.22890606  0.78665562  0.28796214  1
  O2-  O167  1  0.24328784  0.79283115  0.79339809  1
  O2-  O168  1  0.52535681  0.09821541  0.25510045  1
  O2-  O169  1  0.55062048  0.12148277  0.78607482  1
  O2-  O170  1  0.56541376  0.44916396  0.27851396  1
  O2-  O171  1  0.60148711  0.45089747  0.76376556  1
  O2-  O172  1  0.58682865  0.79525997  0.27433316  1
  O2-  O173  1  0.57010440  0.76485043  0.76590008  1
  O2-  O174  1  0.85153570  0.04075583  0.24033467  1
  O2-  O175  1  0.87812808  0.08334724  0.76770377  1
  O2-  O176  1  0.88386255  0.44841775  0.24491542  1
  O2-  O177  1  0.90020234  0.50329972  0.79906819  1
  O2-  O178  1  0.92569476  0.81264392  0.27421337  1
  O2-  O179  1  0.92466615  0.78510762  0.77942595  1
  O2-  O180  1  0.21964986  0.10632710  0.46208341  1
  O2-  O181  1  0.26736551  0.13035837  0.98629955  1
  O2-  O182  1  0.24888622  0.45576307  0.46639111  1
  O2-  O183  1  0.29541033  0.39720476  0.91640298  1
  O2-  O184  1  0.20900268  0.79053356  0.47485588  1
  O2-  O185  1  0.21476790  0.78915756  0.97076582  1
  O2-  O186  1  0.57297311  0.13864063  0.48955472  1
  O2-  O187  1  0.54438696  0.11610507  0.95553195  1
  O2-  O188  1  0.55676966  0.43695336  0.45914680  1
  O2-  O189  1  0.63124276  0.45924229  0.95812737  1
  O2-  O190  1  0.59169663  0.77258288  0.46862451  1
  O2-  O191  1  0.55109242  0.78880860  0.95518088  1
  O2-  O192  1  0.89981837  0.11069545  0.44925420  1
  O2-  O193  1  0.82041753  0.07709969  0.94842558  1
  O2-  O194  1  0.93359535  0.57657832  0.46668516  1
  O2-  O195  1  0.84273331  0.44635458  0.98120519  1
  O2-  O196  1  0.94250285  0.81085340  0.45404886  1
  O2-  O197  1  0.89532151  0.77367072  0.97013914  1
  O2-  O198  1  0.22765709  0.29202344  0.06761748  1
  O2-  O199  1  0.11548290  0.22223004  0.52482003  1
  O2-  O200  1  0.07110560  0.58490361  0.05260009  1
  O2-  O201  1  0.11693508  0.54098032  0.54655966  1
  O2-  O202  1  0.12749349  0.90278695  0.01222429  1
  O2-  O203  1  0.05680564  0.87259275  0.49866717  1
  O2-  O204  1  0.39034558  0.19523512  0.01264295  1
  O2-  O205  1  0.43339978  0.22331015  0.54440303  1
  O2-  O206  1  0.47665741  0.52099263  0.01724563  1
  O2-  O207  1  0.46939156  0.55230300  0.52570788  1
  O2-  O208  1  0.44940138  0.90299192  0.02218749  1
  O2-  O209  1  0.43323388  0.91144602  0.52178149  1
  O2-  O210  1  0.74586284  0.20914538  0.04703947  1
  O2-  O211  1  0.79236628  0.22625229  0.53931208  1
  O2-  O212  1  0.82021114  0.66116807  0.01565003  1
  O2-  O213  1  0.74759981  0.56564539  0.56313403  1
  O2-  O214  1  0.77112464  0.87733078  0.02650072  1
  O2-  O215  1  0.80965076  0.89223938  0.51569072  1
