# generated using pymatgen
data_H2O
_symmetry_space_group_name_H-M   'P 1'
_cell_length_a   13.51501663
_cell_length_b   13.50967852
_cell_length_c   14.69776262
_cell_angle_alpha   90.01640997
_cell_angle_beta   89.87791637
_cell_angle_gamma   119.99263766
_symmetry_Int_Tables_number   1
_chemical_formula_structural   H2O
_chemical_formula_sum   'H144 O72'
_cell_volume   2324.20543736
_cell_formula_units_Z   72
loop_
 _symmetry_equiv_pos_site_id
 _symmetry_equiv_pos_as_xyz
  1  'x, y, z'
loop_
 _atom_type_symbol
 _atom_type_oxidation_number
  H+  1.0
  O2-  -2.0
loop_
 _atom_site_type_symbol
 _atom_site_label
 _atom_site_symmetry_multiplicity
 _atom_site_fract_x
 _atom_site_fract_y
 _atom_site_fract_z
 _atom_site_occupancy
  H+  H0  1  0.84361429  1.02571495  0.26109990  1
  H+  H1  1  0.81138229  0.38732721  0.98969031  1
  H+  H2  1  0.55912312  0.10171213  0.60943274  1
  H+  H3  1  0.81639721  0.32779103  0.48368440  1
  H+  H4  1  0.21337527  0.76873745  0.33783450  1
  H+  H5  1  0.50745657  0.48193817  0.76605924  1
  H+  H6  1  0.56315020  0.87753854  1.03360330  1
  H+  H7  1  0.12564070  0.82881619  1.00420982  1
  H+  H8  1  0.48642084  0.19030188  0.70554273  1
  H+  H9  1  0.37078309  0.63602455  0.07012775  1
  H+  H10  1  0.69222089  0.17109240  0.24946504  1
  H+  H11  1  0.63740029  0.15075660  0.69681258  1
  H+  H12  1  0.76877513  0.88061911  0.59475310  1
  H+  H13  1  0.65357298  0.48536411  0.49010793  1
  H+  H14  1  0.81339931  0.17505525  0.24794644  1
  H+  H15  1  0.82266709  0.30925280  0.75118094  1
  H+  H16  1  0.69535284  0.51494662  0.73584154  1
  H+  H17  1  0.19692166  0.35865707  0.98886117  1
  H+  H18  1  0.46797433  0.96162731  0.70948576  1
  H+  H19  1  0.83869967  0.96646024  0.71843984  1
  H+  H20  1  0.82441725  0.84103959  0.73389219  1
  H+  H21  1  0.78844613  0.56944402  0.60288628  1
  H+  H22  1  0.81735891  0.15658688  0.48318344  1
  H+  H23  1  0.51000647  0.90313008  0.12535170  1
  H+  H24  1  0.17346222  0.18313681  0.74902920  1
  H+  H25  1  0.87821005  0.15418368  0.71839516  1
  H+  H26  1  1.02917626  0.17851380  0.24334248  1
  H+  H27  1  0.67379569  0.18065987  1.02836409  1
  H+  H28  1  0.10853842  0.37751024  0.81460554  1
  H+  H29  1  0.66771837  0.85085387  0.76062420  1
  H+  H30  1  0.71763902  0.85421335  0.01065336  1
  H+  H31  1  0.83880477  0.22171852  0.02281418  1
  H+  H32  1  0.82135074  0.51836190  0.23192599  1
  H+  H33  1  0.37679593  0.89001851  0.98054015  1
  H+  H34  1  0.81768692  0.63172448  0.73687671  1
  H+  H35  1  0.18694950  0.01749399  0.47821375  1
  H+  H36  1  0.33629766  0.49898316  0.75998674  1
  H+  H37  1  0.85090990  0.70495604  0.26116842  1
  H+  H38  1  0.92684293  0.15075367  0.50278419  1
  H+  H39  1  0.11082376  0.88348264  0.09943102  1
  H+  H40  1  0.76877271  0.19176418  0.80203734  1
  H+  H41  1  0.36026085  0.51019472  0.25158047  1
  H+  H42  1  0.15373097  -0.03680435  0.73595104  1
  H+  H43  1  0.02371542  0.50601098  0.22747978  1
  H+  H44  1  0.10553497  0.20449149  0.52034268  1
  H+  H45  1  0.50825443  0.01469700  0.26286755  1
  H+  H46  1  0.43788767  0.63283022  0.52752595  1
  H+  H47  1  0.62827865  0.81024864  0.26965696  1
  H+  H48  1  0.57333868  1.03644695  0.04073368  1
  H+  H49  1  0.00896805  0.52756348  0.48329069  1
  H+  H50  1  0.47413268  0.83210103  0.25666798  1
  H+  H51  1  0.14920253  0.18049140  0.24157239  1
  H+  H52  1  0.79393119  -0.03551613  0.51002082  1
  H+  H53  1  0.14079962  0.62561356  0.22804747  1
  H+  H54  1  0.47591875  0.85390366  0.74126121  1
  H+  H55  1  0.53065353  0.14299774  1.03136005  1
  H+  H56  1  0.02984416  0.85308374  0.50433670  1
  H+  H57  1  0.84209795  0.54425667  0.51489490  1
  H+  H58  1  0.51383472  0.47675749  0.26081196  1
  H+  H59  1  0.85253475  1.06407040  0.00058531  1
  H+  H60  1  0.35700940  0.83383383  0.23698966  1
  H+  H61  1  0.17676776  0.81408401  0.48142380  1
  H+  H62  1  0.17605799  1.01730968  -0.00738429  1
  H+  H63  1  0.28766971  0.81064067  0.75772489  1
  H+  H64  1  0.36309131  0.14153727  0.48907740  1
  H+  H65  1  0.15337225  0.97106331  0.23752573  1
  H+  H66  1  0.30994485  0.14575756  0.75870934  1
  H+  H67  1  0.61544798  0.82587652  0.50210750  1
  H+  H68  1  0.34393536  0.52661613  0.01378430  1
  H+  H69  1  0.30256541  0.15081289  0.25375925  1
  H+  H70  1  0.17620493  0.81142123  0.25000095  1
  H+  H71  1  0.14862430  0.50325516  -0.00323641  1
  H+  H72  1  0.03252514  0.85445454  0.24028928  1
  H+  H73  1  0.21512738  0.14778151  0.48958738  1
  H+  H74  1  0.49266338  0.27083105  1.01641054  1
  H+  H75  1  0.96137519  0.78427345  1.03319015  1
  H+  H76  1  0.63403248  0.48223090  0.25210991  1
  H+  H77  1  0.83911164  0.35546643  0.25840231  1
  H+  H78  1  0.97319859  0.17426031  0.99745026  1
  H+  H79  1  0.13928326  0.67104920  0.97638402  1
  H+  H80  1  0.10354309  0.53863075  0.08318308  1
  H+  H81  1  0.84601735  0.82805546  0.48579757  1
  H+  H82  1  0.14518880  0.50907601  0.50134880  1
  H+  H83  1  -0.02354120  0.81246486  0.75110170  1
  H+  H84  1  0.30244544  0.83492793  0.47054303  1
  H+  H85  1  0.17873168  0.36225076  0.25343195  1
  H+  H86  1  0.29919631  0.12916591  -0.00067178  1
  H+  H87  1  0.51242490  0.68888576  0.27536708  1
  H+  H88  1  0.48949585  0.29715215  0.24646046  1
  H+  H89  1  0.85380667  0.71378033  0.49226476  1
  H+  H90  1  0.16952282  0.30436756  0.74676577  1
  H+  H91  1  0.14857808  0.50687774  0.74129383  1
  H+  H92  1  0.48287770  0.30551626  0.72444644  1
  H+  H93  1  0.81457077  0.85013047  0.24215796  1
  H+  H94  1  0.17790982  0.48047439  0.24942727  1
  H+  H95  1  -0.03102962  0.48522106  0.75955892  1
  H+  H96  1  0.52006278  0.69983840  0.99428344  1
  H+  H97  1  -0.00353302  0.15204770  0.72322930  1
  H+  H98  1  0.17227795  0.64223949  0.50755405  1
  H+  H99  1  0.20187723  0.39038460  0.48921111  1
  H+  H100  1  0.77685361  0.26408512  0.57581787  1
  H+  H101  1  0.44677790  0.61991172  0.75536264  1
  H+  H102  1  0.35472462  0.90327785  0.02297149  1
  H+  H103  1  0.84942486  0.48530234  0.75074534  1
  H+  H104  1  0.59616241  0.46397810  0.99498905  1
  H+  H105  1  0.47969774  0.08790922  0.49481853  1
  H+  H106  1  0.14749867  0.84142356  0.73124600  1
  H+  H107  1  0.40751482  0.54387673  0.60501375  1
  H+  H108  1  0.17044946  0.23097276  0.61350419  1
  H+  H109  1  0.15093978  0.17430772  1.01279058  1
  H+  H110  1  0.22814234  0.43379529  0.89487978  1
  H+  H111  1  0.43808667  0.56030922  0.16449376  1
  H+  H112  1  0.83878137  0.86584382  0.01913082  1
  H+  H113  1  0.48437456  0.17482077  0.25299551  1
  H+  H114  1  0.89501993  0.75483828  0.83811356  1
  H+  H115  1  0.54752422  0.13265725  0.84985415  1
  H+  H116  1  0.57077284  0.42938735  0.40876166  1
  H+  H117  1  0.57797733  0.78269045  0.90543717  1
  H+  H118  1  0.17987969  0.42244898  0.39128591  1
  H+  H119  1  0.51928463  0.06894745  0.85352932  1
  H+  H120  1  0.66414702  0.40937730  0.95180373  1
  H+  H121  1  0.55669893  0.43173898  0.84122705  1
  H+  H122  1  0.54427471  0.08070497  0.35577501  1
  H+  H123  1  0.88903963  0.78653130  0.34882147  1
  H+  H124  1  0.87826830  0.10501374  0.34978234  1
  H+  H125  1  0.23401615  0.10175928  0.85126993  1
  H+  H126  1  0.11142232  0.88687759  0.59235392  1
  H+  H127  1  0.77766681  0.89390353  0.15465589  1
  H+  H128  1  0.11457324  0.21930972  0.10064409  1
  H+  H129  1  0.79664675  0.25318692  0.11577841  1
  H+  H130  1  0.80344332  0.58583207  0.14992687  1
  H+  H131  1  0.44472349  0.19977404  0.57447623  1
  H+  H132  1  0.54049967  0.78353974  0.41344065  1
  H+  H133  1  0.11432885  0.54975572  0.65012307  1
  H+  H134  1  0.83561857  0.43827929  0.88916031  1
  H+  H135  1  0.44817289  0.20643754  0.11368067  1
  H+  H136  1  0.85257888  0.59472280  -0.04071618  1
  H+  H137  1  0.48704845  0.88280113  0.49404899  1
  H+  H138  1  0.17686565  0.75647575  0.89029428  1
  H+  H139  1  0.89492167  0.44887626  0.33823503  1
  H+  H140  1  0.22297544  0.10658879  0.34128029  1
  H+  H141  1  0.17197979  0.68876990  0.75101984  1
  H+  H142  1  0.62597026  0.92041439  0.81797673  1
  H+  H143  1  0.96024923  0.58702880  0.41963604  1
  O2-  O144  1  0.10876416  0.22092334  0.21903685  1
  O2-  O145  1  0.13972127  0.22500691  0.71746038  1
  O2-  O146  1  0.10463932  0.54481770  0.20640223  1
  O2-  O147  1  0.10806464  0.54771960  0.71784684  1
  O2-  O148  1  0.11250239  0.88924784  0.21691137  1
  O2-  O149  1  0.10905231  0.88495896  0.70911621  1
  O2-  O150  1  0.44712762  0.21522986  0.22506665  1
  O2-  O151  1  0.43739868  0.22554321  0.70185989  1
  O2-  O152  1  0.44241461  0.55130362  0.23114208  1
  O2-  O153  1  0.41787724  0.53949875  0.74173348  1
  O2-  O154  1  0.44137740  0.87540638  0.22556580  1
  O2-  O155  1  0.42211019  0.87914749  0.72383825  1
  O2-  O156  1  0.77324041  0.21713699  0.22828607  1
  O2-  O157  1  0.78168494  0.22334817  0.74063660  1
  O2-  O158  1  0.78529027  0.56483053  0.21408145  1
  O2-  O159  1  0.77658878  0.55055244  0.71496601  1
  O2-  O160  1  0.77161088  0.88914503  0.22246141  1
  O2-  O161  1  0.78525440  0.88154435  0.70959095  1
  O2-  O162  1  0.22058146  0.11060147  0.27288344  1
  O2-  O163  1  0.23019295  0.10144065  0.78347960  1
  O2-  O164  1  0.21841015  0.44261835  0.27679926  1
  O2-  O165  1  0.18751818  0.41782614  0.79321648  1
  O2-  O166  1  0.21312217  0.76649769  0.26974314  1
  O2-  O167  1  0.20390371  0.76910430  0.77301815  1
  O2-  O168  1  0.54963456  0.09388812  0.28897615  1
  O2-  O169  1  0.55708130  0.11072729  0.67574397  1
  O2-  O170  1  0.55541534  0.43519151  0.27573795  1
  O2-  O171  1  0.55479460  0.44504078  0.77515878  1
  O2-  O172  1  0.54958142  0.77048346  0.29563226  1
  O2-  O173  1  0.59909840  0.84287234  0.79615153  1
  O2-  O174  1  0.88504553  0.10753638  0.28244619  1
  O2-  O175  1  0.91098503  0.10401934  0.72254444  1
  O2-  O176  1  0.88234032  0.43980840  0.27152790  1
  O2-  O177  1  0.88646104  0.44418560  0.77889419  1
  O2-  O178  1  0.89016577  0.78645653  0.28047804  1
  O2-  O179  1  0.89424506  0.76964113  0.77247538  1
  O2-  O180  1  0.23370317  0.09639754  0.45248786  1
  O2-  O181  1  0.22246976  0.09893895  0.97204601  1
  O2-  O182  1  0.14832122  0.40465356  0.45439553  1
  O2-  O183  1  0.23761718  0.43853213  0.96482389  1
  O2-  O184  1  0.22119900  0.77887042  0.45628281  1
  O2-  O185  1  0.16213120  0.75046084  0.95687144  1
  O2-  O186  1  0.52391357  0.04243529  0.47882899  1
  O2-  O187  1  0.58928502  0.11834359  1.01558049  1
  O2-  O188  1  0.57652718  0.42342135  0.47481373  1
  O2-  O189  1  0.58525603  0.39970098  0.95753781  1
  O2-  O190  1  0.53590750  0.79609332  0.47976214  1
  O2-  O191  1  0.58111567  0.77669216  0.97269578  1
  O2-  O192  1  0.85456211  0.10945657  0.47049749  1
  O2-  O193  1  0.89133458  0.14530166  0.98277314  1
  O2-  O194  1  0.93614097  0.51308294  0.44805729  1
  O2-  O195  1  0.80107226  0.44011536  0.94893714  1
  O2-  O196  1  0.89162465  0.79258602  0.46463964  1
  O2-  O197  1  0.87544590  0.72496090  1.03516586  1
  O2-  O198  1  0.11628954  0.22077098  0.03264863  1
  O2-  O199  1  0.18167126  0.23269808  0.54463199  1
  O2-  O200  1  0.10191649  0.53735573  0.01579440  1
  O2-  O201  1  0.12223761  0.56319396  0.53097212  1
  O2-  O202  1  0.09503074  0.87793286  0.03268301  1
  O2-  O203  1  0.11101395  0.88465564  0.52406187  1
  O2-  O204  1  0.44980214  0.19419809  0.04570900  1
  O2-  O205  1  0.44070426  0.16523948  0.51440748  1
  O2-  O206  1  0.40779271  0.59318968  0.05103047  1
  O2-  O207  1  0.38559891  0.55241697  0.54326594  1
  O2-  O208  1  0.56648285  0.93801415  0.07451346  1
  O2-  O209  1  0.44249674  0.92428069  0.50529823  1
  O2-  O210  1  0.79670665  0.26097914  0.04786635  1
  O2-  O211  1  0.77545297  0.25147789  0.51051608  1
  O2-  O212  1  0.86035377  0.67044614  -0.05428098  1
  O2-  O213  1  0.80025750  0.58278081  0.53551412  1
  O2-  O214  1  0.79619550  0.90467079  0.03517319  1
  O2-  O215  1  0.76128398  0.88294848  0.52701912  1
