# generated using pymatgen
data_H2O
_symmetry_space_group_name_H-M   'P 1'
_cell_length_a   13.50572594
_cell_length_b   13.50918186
_cell_length_c   14.68796720
_cell_angle_alpha   89.91642544
_cell_angle_beta   90.03593912
_cell_angle_gamma   119.99599018
_symmetry_Int_Tables_number   1
_chemical_formula_structural   H2O
_chemical_formula_sum   'H144 O72'
_cell_volume   2320.89978321
_cell_formula_units_Z   72
loop_
 _symmetry_equiv_pos_site_id
 _symmetry_equiv_pos_as_xyz
  1  'x, y, z'
loop_
 _atom_type_symbol
 _atom_type_oxidation_number
  H+  1.0
  O2-  -2.0
loop_
 _atom_site_type_symbol
 _atom_site_label
 _atom_site_symmetry_multiplicity
 _atom_site_fract_x
 _atom_site_fract_y
 _atom_site_fract_z
 _atom_site_occupancy
  H+  H0  1  0.14304945  0.29966442  0.72809880  1
  H+  H1  1  0.18189058  0.70062074  0.26228248  1
  H+  H2  1  0.43825819  0.87168155  0.83006670  1
  H+  H3  1  0.88346355  0.77040483  0.38904571  1
  H+  H4  1  0.63727512  0.15749264  0.25533887  1
  H+  H5  1  0.85509545  0.49503352  0.78079251  1
  H+  H6  1  0.83675571  0.68495304  1.03549740  1
  H+  H7  1  0.13642073  0.62887848  0.50420663  1
  H+  H8  1  0.28379088  0.80485719  0.76217628  1
  H+  H9  1  0.12830509  -0.05506303  0.73029237  1
  H+  H10  1  0.46426695  0.17735307  0.52609666  1
  H+  H11  1  0.18348759  0.37512943  0.26007725  1
  H+  H12  1  0.44571468  0.56015556  0.14804675  1
  H+  H13  1  0.52288011  0.49752684  0.24162307  1
  H+  H14  1  0.48064694  0.46128170  0.49951137  1
  H+  H15  1  0.22303144  0.43149199  0.83542403  1
  H+  H16  1  0.82146835  0.29134585  0.00952412  1
  H+  H17  1  0.03510824  0.18215044  1.02350366  1
  H+  H18  1  0.36760584  0.52014084  0.23860552  1
  H+  H19  1  0.43921776  0.54052118  0.64949118  1
  H+  H20  1  0.81399581  0.30971836  0.22734082  1
  H+  H21  1  0.84333440  0.12826319  0.46490578  1
  H+  H22  1  0.30526074  0.47218972  0.74825260  1
  H+  H23  1  0.22472682  0.45508582  0.34750691  1
  H+  H24  1  0.51961304  0.80639201  0.48957631  1
  H+  H25  1  0.17291937  0.48572152  0.48106703  1
  H+  H26  1  0.14330419  0.63024680  1.01777444  1
  H+  H27  1  0.29253359  0.13152153  0.50135520  1
  H+  H28  1  0.17894486  0.80554551  0.99401753  1
  H+  H29  1  0.81978075  0.31356844  0.46097910  1
  H+  H30  1  0.68488593  0.52267801  0.77791847  1
  H+  H31  1  0.83131589  0.96819699  0.02362073  1
  H+  H32  1  0.15608293  0.29899664  0.01753101  1
  H+  H33  1  0.52180133  0.70083169  0.25719254  1
  H+  H34  1  0.85038556  0.68915206  0.79332898  1
  H+  H35  1  0.48129990  0.96046981  0.00792101  1
  H+  H36  1  0.95725016  0.49413627  0.23586078  1
  H+  H37  1  0.70289408  0.16875852  1.00800674  1
  H+  H38  1  0.47593407  0.62430576  0.50658449  1
  H+  H39  1  0.52506281  0.37800409  0.25103121  1
  H+  H40  1  0.48345182  -0.03455904  0.23609975  1
  H+  H41  1  0.13864331  0.94844988  0.01679086  1
  H+  H42  1  0.57879777  0.40137127  0.76035031  1
  H+  H43  1  0.12760223  0.17468908  0.72189704  1
  H+  H44  1  0.16961402  -0.00396313  0.49606625  1
  H+  H45  1  0.96934042  0.15976465  0.24773507  1
  H+  H46  1  0.02502275  0.82669438  0.02834430  1
  H+  H47  1  -0.15154114  0.82571912  0.25437834  1
  H+  H48  1  0.48202579  -0.02424804  0.76503301  1
  H+  H49  1  0.20446371  0.76005163  0.84927058  1
  H+  H50  1  0.83042917  0.82631506  0.75696865  1
  H+  H51  1  0.63955659  0.49625402  1.01256942  1
  H+  H52  1  0.14375028  0.83321068  0.50561886  1
  H+  H53  1  0.47994950  0.19007777  0.25537169  1
  H+  H54  1  0.71012323  0.84222095  0.74962098  1
  H+  H55  1  0.03272688  0.85143201  0.24299317  1
  H+  H56  1  0.87823563  0.75698475  0.93893236  1
  H+  H57  1  0.64753367  0.82262836  0.00021740  1
  H+  H58  1  0.42204056  0.27869699  0.74988676  1
  H+  H59  1  0.14493275  0.52082433  0.24905892  1
  H+  H60  1  0.63989868  0.15702501  0.49990893  1
  H+  H61  1  0.69737257  0.83139460  0.51884560  1
  H+  H62  1  0.86092969  0.14563500  0.01028425  1
  H+  H63  1  0.52377688  0.32493092  0.02165690  1
  H+  H64  1  0.18574042  0.82141206  0.26296849  1
  H+  H65  1  0.83943003  0.48312196  0.45942035  1
  H+  H66  1  0.32347464  0.50859808  0.98705171  1
  H+  H67  1  0.11636726  0.88861967  0.15773137  1
  H+  H68  1  0.84313861  0.16510058  0.24080485  1
  H+  H69  1  0.26059404  0.55449935  0.92624168  1
  H+  H70  1  0.29492262  0.80639165  0.48955589  1
  H+  H71  1  0.59348401  0.45432141  0.47876501  1
  H+  H72  1  0.17771448  0.02929288  0.26778986  1
  H+  H73  1  0.80416099  0.51915406  0.19777200  1
  H+  H74  1  0.26689984  0.12441212  0.75239821  1
  H+  H75  1  0.85839122  0.15984632  0.80457585  1
  H+  H76  1  0.88787727  0.42910905  0.91041877  1
  H+  H77  1  0.17277468  0.36641457  0.47988798  1
  H+  H78  1  0.81787063  0.31439391  0.77131956  1
  H+  H79  1  0.84917979  1.01917674  0.49610171  1
  H+  H80  1  0.52648625  0.81923765  0.99402581  1
  H+  H81  1  0.96017150  0.79983894  0.47966633  1
  H+  H82  1  0.84237198  0.70644775  0.23763904  1
  H+  H83  1  0.56644199  0.11403268  0.58724389  1
  H+  H84  1  0.66733941  0.50969339  0.21148321  1
  H+  H85  1  0.49797184  0.64196401  1.00830223  1
  H+  H86  1  0.96110884  0.48766508  0.46597488  1
  H+  H87  1  0.13181789  0.82767799  0.73602251  1
  H+  H88  1  0.51798753  0.81711202  0.25983969  1
  H+  H89  1  0.49155962  0.51568876  0.73913493  1
  H+  H90  1  0.79951740  0.62376784  0.48052369  1
  H+  H91  1  0.28200613  0.12586014  1.00090550  1
  H+  H92  1  0.29763554  0.80565490  -0.01016559  1
  H+  H93  1  -0.02756632  0.16060070  0.77712264  1
  H+  H94  1  0.29404010  0.15118657  0.27372450  1
  H+  H95  1  -0.03625629  0.81367372  0.78557564  1
  H+  H96  1  0.95871300  0.46659179  1.00282314  1
  H+  H97  1  0.81493768  0.83143780  0.51095795  1
  H+  H98  1  -0.03434510  0.47817543  0.76420153  1
  H+  H99  1  0.49104124  0.51949564  0.00805419  1
  H+  H100  1  0.41517715  0.21492189  0.65591134  1
  H+  H101  1  0.50616119  0.15748536  0.76426999  1
  H+  H102  1  0.52952755  0.15136686  0.99887132  1
  H+  H103  1  0.13919166  0.17985492  0.25541375  1
  H+  H104  1  0.48282705  0.95557774  0.51892778  1
  H+  H105  1  0.14604612  0.50304267  0.73034221  1
  H+  H106  1  0.14161123  0.61895778  0.73510490  1
  H+  H107  1  0.35029601  0.51255627  0.50630426  1
  H+  H108  1  0.21274521  0.09021264  0.40370104  1
  H+  H109  1  0.87305049  0.45653774  0.31787032  1
  H+  H110  1  0.81794175  0.24455436  0.54602180  1
  H+  H111  1  0.63076784  0.16390825  0.77073269  1
  H+  H112  1  0.18266259  0.08539418  0.83632504  1
  H+  H113  1  0.79430689  0.21664851  0.69897520  1
  H+  H114  1  0.59521551  0.29372835  0.08519390  1
  H+  H115  1  0.56058242  0.11073996  0.34395420  1
  H+  H116  1  0.36534853  0.84752872  0.24041481  1
  H+  H117  1  0.55015599  0.10787718  0.90366927  1
  H+  H118  1  0.58990030  0.79646542  0.85572641  1
  H+  H119  1  0.77321848  0.22069196  0.14323636  1
  H+  H120  1  0.55370909  0.83611801  0.76507456  1
  H+  H121  1  0.70064087  0.86020442  0.24732356  1
  H+  H122  1  0.58150302  0.46004415  0.91070725  1
  H+  H123  1  0.09106407  0.54322145  0.58949334  1
  H+  H124  1  0.21998560  0.77423020  0.39822233  1
  H+  H125  1  0.11269504  0.22238413  0.16108984  1
  H+  H126  1  0.78760833  0.86100775  0.65271937  1
  H+  H127  1  0.82277442  0.84410123  0.03083850  1
  H+  H128  1  0.17335039  0.14031237  1.00552889  1
  H+  H129  1  0.45496214  0.29363929  0.51863787  1
  H+  H130  1  0.44151639  0.87956305  0.09551300  1
  H+  H131  1  0.77957843  0.89680289  0.15671235  1
  H+  H132  1  0.10879407  0.56225436  0.15993065  1
  H+  H133  1  0.09540432  0.86670036  0.59496450  1
  H+  H134  1  0.10285010  0.23520926  0.58189068  1
  H+  H135  1  0.81864029  0.58978189  0.69610250  1
  H+  H136  1  0.56229037  0.77149148  0.40079973  1
  H+  H137  1  0.43742958  0.86510145  0.59828975  1
  H+  H138  1  0.75114315  0.53326963  0.56039721  1
  H+  H139  1  0.90961580  0.11293638  0.92313053  1
  H+  H140  1  1.03032594  0.18730983  0.49238371  1
  H+  H141  1  0.14605263  0.51449388  0.02686374  1
  H+  H142  1  0.83913899  0.03328268  0.24652997  1
  H+  H143  1  0.44577604  0.23146910  0.16755041  1
  O2-  O144  1  0.10103110  0.22009153  0.22872294  1
  O2-  O145  1  0.09147705  0.22018483  0.70494704  1
  O2-  O146  1  0.10463828  0.56216355  0.22824684  1
  O2-  O147  1  0.10123049  0.53984347  0.71022626  1
  O2-  O148  1  0.11539919  0.89388026  0.22610256  1
  O2-  O149  1  0.08967059  0.86389151  0.70904647  1
  O2-  O150  1  0.43795732  0.22952157  0.23499629  1
  O2-  O151  1  0.41308982  0.20770475  0.72485242  1
  O2-  O152  1  0.44866259  0.55984787  0.21619208  1
  O2-  O153  1  0.43364642  0.53408486  0.71702754  1
  O2-  O154  1  0.44519159  0.88483869  0.21545108  1
  O2-  O155  1  0.44428072  0.88981688  0.76504638  1
  O2-  O156  1  0.77479894  0.22576887  0.21284622  1
  O2-  O157  1  0.77264420  0.22709419  0.75980427  1
  O2-  O158  1  0.75997211  0.55963469  0.18135213  1
  O2-  O159  1  0.80515397  0.57555856  0.76100058  1
  O2-  O160  1  0.78227058  0.90520188  0.22568270  1
  O2-  O161  1  0.79154809  0.86691047  0.72191951  1
  O2-  O162  1  0.21382287  0.10720749  0.29717666  1
  O2-  O163  1  0.18445385  0.08414693  0.76924128  1
  O2-  O164  1  0.22611762  0.45653737  0.27832283  1
  O2-  O165  1  0.22142171  0.43473111  0.76847701  1
  O2-  O166  1  0.22736264  0.78188213  0.28452833  1
  O2-  O167  1  0.20277457  0.75987411  0.78094590  1
  O2-  O168  1  0.55601352  0.11604096  0.27803958  1
  O2-  O169  1  0.54658069  0.11686600  0.78462865  1
  O2-  O170  1  0.57325680  0.46313637  0.25452649  1
  O2-  O171  1  0.59410799  0.47184429  0.79035451  1
  O2-  O172  1  0.56196881  0.78043745  0.28220624  1
  O2-  O173  1  0.59885921  0.80262638  0.78789359  1
  O2-  O174  1  0.88291734  0.12034634  0.26097748  1
  O2-  O175  1  0.90387065  0.12295245  0.81749837  1
  O2-  O176  1  0.87314445  0.45536422  0.24971475  1
  O2-  O177  1  0.88867574  0.44247531  0.79331787  1
  O2-  O178  1  0.88509842  0.77946181  0.27086314  1
  O2-  O179  1  0.88585626  0.77757048  0.81226051  1
  O2-  O180  1  0.21291509  0.08092929  0.47334455  1
  O2-  O181  1  0.20385094  0.09264714  0.97828085  1
  O2-  O182  1  0.21747967  0.45015708  0.45876452  1
  O2-  O183  1  0.24582320  0.48543426  0.95898272  1
  O2-  O184  1  0.21511549  0.77080510  0.46690360  1
  O2-  O185  1  0.21670467  0.76409900  0.96768488  1
  O2-  O186  1  0.55775395  0.11027865  0.52099304  1
  O2-  O187  1  0.55491019  0.10060834  0.97087226  1
  O2-  O188  1  0.50942891  0.40872090  0.47971685  1
  O2-  O189  1  0.56503348  0.45237935  0.97770708  1
  O2-  O190  1  0.56127525  0.76749242  0.46891798  1
  O2-  O191  1  0.56959396  0.78174700  0.97174082  1
  O2-  O192  1  0.89034565  0.09182951  0.46202052  1
  O2-  O193  1  0.90706498  0.10909164  0.99290203  1
  O2-  O194  1  0.88421589  0.44834961  0.43506558  1
  O2-  O195  1  0.88144970  0.41701743  0.97755174  1
  O2-  O196  1  0.87992230  0.76237868  0.45691107  1
  O2-  O197  1  0.88457423  0.76467886  1.00628197  1
  O2-  O198  1  0.11883862  0.22280076  0.04501166  1
  O2-  O199  1  0.10945619  0.23962843  0.51465274  1
  O2-  O200  1  0.10361809  0.55268018  0.04696413  1
  O2-  O201  1  0.09010206  0.54654254  0.52147899  1
  O2-  O202  1  0.10950525  0.87051852  0.04254628  1
  O2-  O203  1  0.10161338  0.87347908  0.52624070  1
  O2-  O204  1  0.51848923  0.25883570  0.05881634  1
  O2-  O205  1  0.41482118  0.20871740  0.54402133  1
  O2-  O206  1  0.45095101  0.56080957  0.02987175  1
  O2-  O207  1  0.43002453  0.54521357  0.53097788  1
  O2-  O208  1  0.44126649  0.87832570  0.02735207  1
  O2-  O209  1  0.43939911  0.87213899  0.53195539  1
  O2-  O210  1  0.78051741  0.20918576  0.03552193  1
  O2-  O211  1  0.78231032  0.23238743  0.48618368  1
  O2-  O212  1  0.75561666  0.56061332  0.08002892  1
  O2-  O213  1  0.75487152  0.53891181  0.49424639  1
  O2-  O214  1  0.78294910  0.88800966  0.04690117  1
  O2-  O215  1  0.77714007  0.86856733  0.54335791  1
