# generated using pymatgen
data_H2O
_symmetry_space_group_name_H-M   'P 1'
_cell_length_a   13.49497914
_cell_length_b   13.48329969
_cell_length_c   14.68367979
_cell_angle_alpha   90.00489247
_cell_angle_beta   89.92465701
_cell_angle_gamma   119.95145797
_symmetry_Int_Tables_number   1
_chemical_formula_structural   H2O
_chemical_formula_sum   'H144 O72'
_cell_volume   2314.97175078
_cell_formula_units_Z   72
loop_
 _symmetry_equiv_pos_site_id
 _symmetry_equiv_pos_as_xyz
  1  'x, y, z'
loop_
 _atom_type_symbol
 _atom_type_oxidation_number
  H+  1.0
  O2-  -2.0
loop_
 _atom_site_type_symbol
 _atom_site_label
 _atom_site_symmetry_multiplicity
 _atom_site_fract_x
 _atom_site_fract_y
 _atom_site_fract_z
 _atom_site_occupancy
  H+  H0  1  0.14876909  0.28936715  0.51882944  1
  H+  H1  1  0.35857960  0.52309400  0.74952216  1
  H+  H2  1  0.15556332  0.52230743  0.74324261  1
  H+  H3  1  0.16127664  0.96931015  0.24896522  1
  H+  H4  1  0.70251545  0.85262668  0.23988882  1
  H+  H5  1  0.48577821  -0.02211598  1.01121510  1
  H+  H6  1  0.97251634  0.81729826  0.25959128  1
  H+  H7  1  0.18475811  0.69274255  0.25209787  1
  H+  H8  1  0.69611166  0.19042335  0.22397590  1
  H+  H9  1  0.52695738  0.16019602  0.49179804  1
  H+  H10  1  0.70023615  0.83891550  0.50305983  1
  H+  H11  1  0.47957073  0.64110451  0.75337094  1
  H+  H12  1  -0.02836196  0.48311567  -0.01505333  1
  H+  H13  1  0.21077902  0.44452554  0.84888003  1
  H+  H14  1  0.46951116  0.18568483  0.01433674  1
  H+  H15  1  1.01426331  0.15378682  0.25537953  1
  H+  H16  1  0.47282853  0.30069039  0.74353132  1
  H+  H17  1  0.30002609  0.47638029  0.51024252  1
  H+  H18  1  0.03833707  0.19944567  0.75594798  1
  H+  H19  1  0.84866889  0.81472570  0.48864353  1
  H+  H20  1  0.18359565  0.70569027  0.98918907  1
  H+  H21  1  0.57674440  0.41509775  0.48769905  1
  H+  H22  1  0.18199491  0.37001716  0.75780590  1
  H+  H23  1  0.51453076  0.82507401  -0.00187418  1
  H+  H24  1  0.73348528  0.53884063  0.53059241  1
  H+  H25  1  0.13147525  0.83525100  0.73991774  1
  H+  H26  1  0.84735516  0.65104509  0.50180159  1
  H+  H27  1  0.86397426  0.48355475  0.48827024  1
  H+  H28  1  0.51730487  0.80848015  0.48268630  1
  H+  H29  1  0.14741989  0.52060485  0.00172402  1
  H+  H30  1  0.63734915  0.14769348  0.99158228  1
  H+  H31  1  0.48842643  0.85643031  0.23626689  1
  H+  H32  1  0.02938094  0.17072206  0.51904584  1
  H+  H33  1  0.84978371  0.47404939  0.98453493  1
  H+  H34  1  0.82566759  0.62920798  0.74345172  1
  H+  H35  1  0.96407569  0.91189275  0.93039065  1
  H+  H36  1  0.51184213  0.15730032  0.76365991  1
  H+  H37  1  0.18477018  0.82504982  -0.00504105  1
  H+  H38  1  0.84827759  1.02059113  0.50062095  1
  H+  H39  1  0.15957243  0.84825685  0.25083003  1
  H+  H40  1  0.51007290  0.68828987  0.49216692  1
  H+  H41  1  0.30798565  0.15865165  0.25118426  1
  H+  H42  1  0.51053274  0.82010513  0.77196371  1
  H+  H43  1  0.03542468  0.51961997  0.74330864  1
  H+  H44  1  0.35526074  0.18091266  0.75124383  1
  H+  H45  1  0.90765918  0.10205268  0.36224145  1
  H+  H46  1  0.82012518  0.63184193  0.99919308  1
  H+  H47  1  0.47033881  0.51073246  -0.02326136  1
  H+  H48  1  0.11075590  0.22093646  0.66256417  1
  H+  H49  1  0.90182759  0.14396214  0.86776821  1
  H+  H50  1  0.42413904  0.20089771  0.61942932  1
  H+  H51  1  0.02033572  0.18545297  0.02340906  1
  H+  H52  1  0.84973135  0.48796410  0.25856468  1
  H+  H53  1  0.62518295  0.46446507  -0.01056820  1
  H+  H54  1  0.82803742  0.28437071  0.99688433  1
  H+  H55  1  0.69922404  0.52197314  0.20797544  1
  H+  H56  1  0.81959341  0.30881449  0.73796001  1
  H+  H57  1  0.15286352  0.62717552  0.51345667  1
  H+  H58  1  0.17173548  0.13795902  0.49205492  1
  H+  H59  1  0.84927205  1.14063923  0.49927240  1
  H+  H60  1  -0.02315937  0.47540835  0.49015833  1
  H+  H61  1  0.48206820  0.99318868  0.51295689  1
  H+  H62  1  0.14379881  -0.04208926  0.50205213  1
  H+  H63  1  0.48480929  0.52184960  0.53823120  1
  H+  H64  1  0.44440794  0.89640786  0.66757036  1
  H+  H65  1  0.49719965  0.34115997  1.00524925  1
  H+  H66  1  0.51791314  0.70399003  0.24459161  1
  H+  H67  1  0.18380894  0.70177224  0.76299640  1
  H+  H68  1  0.14239088  0.18531696  1.02142296  1
  H+  H69  1  0.37545577  0.96100795  0.57228605  1
  H+  H70  1  0.14377035  0.83798386  0.50098386  1
  H+  H71  1  0.19326374  0.16892508  0.77427942  1
  H+  H72  1  0.86322467  0.17404278  0.77279858  1
  H+  H73  1  0.51307066  0.03895165  0.25404907  1
  H+  H74  1  0.69856761  0.19161987  0.74145300  1
  H+  H75  1  0.68320013  0.83598037  0.73344161  1
  H+  H76  1  0.36586668  0.85880966  1.01067969  1
  H+  H77  1  0.86301450  0.48865130  0.75677565  1
  H+  H78  1  0.85669983  0.86007189  0.99399380  1
  H+  H79  1  0.54951895  0.45463845  0.11205299  1
  H+  H80  1  0.64673761  0.16006021  0.49043937  1
  H+  H81  1  0.57584971  0.41062639  0.59686285  1
  H+  H82  1  0.79801539  0.82977633  0.73180331  1
  H+  H83  1  0.35971075  0.85281628  0.75285032  1
  H+  H84  1  0.86094159  0.02444317  0.26974619  1
  H+  H85  1  0.43979441  0.56810086  0.61728103  1
  H+  H86  1  0.30658658  0.16829267  1.00556360  1
  H+  H87  1  0.15016841  0.16662501  0.23927429  1
  H+  H88  1  0.18852285  0.04666913  1.00554758  1
  H+  H89  1  0.02098047  0.51274786  0.23388078  1
  H+  H90  1  0.29659972  0.81657221  0.48785888  1
  H+  H91  1  -0.02881497  0.81941027  0.48471088  1
  H+  H92  1  0.47765475  0.19420800  0.22869963  1
  H+  H93  1  0.26175616  0.56944332  0.32215392  1
  H+  H94  1  0.51465173  1.04008150  0.76769092  1
  H+  H95  1  0.82361942  0.29638292  0.50949211  1
  H+  H96  1  0.43475611  0.26690723  0.52644670  1
  H+  H97  1  0.44374963  0.89562769  0.14999179  1
  H+  H98  1  0.03884028  0.86152121  0.02604808  1
  H+  H99  1  0.49512887  0.47601942  0.76781421  1
  H+  H100  1  0.28403027  0.12664731  0.49669579  1
  H+  H101  1  0.43108657  0.22288156  0.13179767  1
  H+  H102  1  0.81281297  0.98709372  0.01639042  1
  H+  H103  1  0.82043283  0.84900022  0.23968468  1
  H+  H104  1  0.22048983  0.78408618  0.85116525  1
  H+  H105  1  0.18065003  0.47423122  0.50846827  1
  H+  H106  1  0.51115168  0.37408257  0.19759372  1
  H+  H107  1  0.37154294  0.53095772  0.24376566  1
  H+  H108  1  0.47245915  0.63083964  -0.02364528  1
  H+  H109  1  0.30700031  0.81190871  0.25586886  1
  H+  H110  1  0.79172743  0.56224574  0.09155218  1
  H+  H111  1  0.28963794  0.48165465  0.97351110  1
  H+  H112  1  0.77959727  0.90184294  0.10334546  1
  H+  H113  1  0.89260373  0.44586311  0.34604561  1
  H+  H114  1  0.95309020  0.80491387  0.75587588  1
  H+  H115  1  0.22803533  0.45529769  0.36979273  1
  H+  H116  1  0.56867529  0.47033368  0.35823436  1
  H+  H117  1  0.77783945  0.22120577  0.60110643  1
  H+  H118  1  0.58463988  0.42395740  0.35930471  1
  H+  H119  1  0.52815085  0.42672001  0.85323580  1
  H+  H120  1  0.22263930  0.76579762  0.39671415  1
  H+  H121  1  0.78523134  0.21172817  0.08873669  1
  H+  H122  1  0.55865103  0.12234489  0.33942297  1
  H+  H123  1  0.82195513  0.56870780  0.64995624  1
  H+  H124  1  0.55601984  0.11702800  0.90579070  1
  H+  H125  1  0.55503011  0.78269429  0.85897936  1
  H+  H126  1  0.23346351  0.13190917  0.86366800  1
  H+  H127  1  0.55789942  0.77695943  0.33659437  1
  H+  H128  1  0.81799354  0.63725017  0.23434418  1
  H+  H129  1  0.16935857  0.36580231  0.99533171  1
  H+  H130  1  0.81655459  0.30325270  0.22642312  1
  H+  H131  1  0.89729795  0.44138967  0.84616970  1
  H+  H132  1  0.09783727  0.20750504  0.15101566  1
  H+  H133  1  0.88894517  0.77686860  0.34549934  1
  H+  H134  1  0.76797891  0.87111436  0.59890396  1
  H+  H135  1  0.11911808  0.89063600  0.11355918  1
  H+  H136  1  0.87438284  0.77532836  0.84508264  1
  H+  H137  1  0.22874375  0.11509890  0.34385436  1
  H+  H138  1  0.11222220  0.55432551  0.60637230  1
  H+  H139  1  0.08850135  0.86633681  0.64936045  1
  H+  H140  1  0.63353842  0.82576499  0.99895846  1
  H+  H141  1  0.13514029  0.50557791  0.23128635  1
  H+  H142  1  0.48174342  0.53005337  0.20380622  1
  H+  H143  1  0.10574728  0.55922986  0.08985792  1
  O2-  O144  1  0.10037522  0.20055555  0.22151354  1
  O2-  O145  1  0.11870734  0.23452709  0.72925745  1
  O2-  O146  1  0.10139875  0.55083537  0.20798441  1
  O2-  O147  1  0.11671100  0.56450204  0.71969495  1
  O2-  O148  1  0.11740006  0.88719468  0.22933538  1
  O2-  O149  1  0.07957407  0.86137345  0.71621557  1
  O2-  O150  1  0.43237643  0.22878207  0.20617865  1
  O2-  O151  1  0.43506903  0.21847083  0.72027588  1
  O2-  O152  1  0.44350830  0.57660223  0.20990397  1
  O2-  O153  1  0.43914511  0.56248636  0.72534756  1
  O2-  O154  1  0.44251412  0.89317774  0.21874295  1
  O2-  O155  1  0.44336897  0.89475289  0.73467271  1
  O2-  O156  1  0.77488168  0.22612636  0.19930302  1
  O2-  O157  1  0.77678068  0.22810085  0.71434423  1
  O2-  O158  1  0.78477635  0.55884202  0.20751581  1
  O2-  O159  1  0.80415707  0.55356561  0.71551228  1
  O2-  O160  1  0.78471452  0.89498790  0.22004020  1
  O2-  O161  1  0.75829547  0.86675046  0.70240974  1
  O2-  O162  1  0.22606368  0.11251954  0.27606139  1
  O2-  O163  1  0.23797692  0.13318110  0.79600865  1
  O2-  O164  1  0.23867009  0.49030648  0.30747821  1
  O2-  O165  1  0.21984523  0.45159435  0.78099049  1
  O2-  O166  1  0.22667818  0.76984209  0.28128858  1
  O2-  O167  1  0.22300621  0.78388099  0.78287899  1
  O2-  O168  1  0.55239172  0.12122213  0.27223848  1
  O2-  O169  1  0.55729464  0.12209053  0.78619339  1
  O2-  O170  1  0.55557763  0.45749212  0.17963889  1
  O2-  O171  1  0.52680585  0.42634635  0.78594191  1
  O2-  O172  1  0.56139090  0.78570799  0.26955814  1
  O2-  O173  1  0.54957209  0.77722680  0.79070369  1
  O2-  O174  1  0.91322839  0.10306374  0.29427797  1
  O2-  O175  1  0.91439301  0.14954115  0.80016739  1
  O2-  O176  1  0.89300224  0.44945666  0.27804538  1
  O2-  O177  1  0.90171864  0.44416558  0.77801580  1
  O2-  O178  1  0.88984644  0.77656435  0.27707185  1
  O2-  O179  1  0.87054930  0.76507812  0.77855819  1
  O2-  O180  1  0.20950067  0.09621748  0.46480911  1
  O2-  O181  1  0.22138112  0.12670042  0.98459908  1
  O2-  O182  1  0.22059645  0.43298962  0.48543243  1
  O2-  O183  1  0.20326617  0.44233367  0.96598474  1
  O2-  O184  1  0.21786869  0.76591913  0.46502732  1
  O2-  O185  1  0.22571426  0.78733103  0.96798892  1
  O2-  O186  1  0.56596927  0.12109507  0.46549892  1
  O2-  O187  1  0.55523540  0.11201294  0.97355681  1
  O2-  O188  1  0.57367120  0.45303701  0.54359248  1
  O2-  O189  1  0.54167490  0.43121591  0.98611780  1
  O2-  O190  1  0.55254630  0.76510709  0.46084527  1
  O2-  O191  1  0.55407066  0.78433180  0.97444772  1
  O2-  O192  1  0.89229216  0.10204121  0.47893156  1
  O2-  O193  1  0.88801022  0.12321022  0.98428689  1
  O2-  O194  1  0.89724059  0.43660963  0.46510781  1
  O2-  O195  1  0.89117954  0.43503892  0.96242963  1
  O2-  O196  1  0.89035614  0.77720182  0.46106345  1
  O2-  O197  1  0.91386090  0.84125767  0.96320612  1
  O2-  O198  1  0.10196121  0.22426850  0.04844955  1
  O2-  O199  1  0.11099009  0.20814636  0.53988922  1
  O2-  O200  1  0.10901910  0.56473765  0.02207194  1
  O2-  O201  1  0.11315409  0.54750487  0.53776380  1
  O2-  O202  1  0.11943756  0.89389754  0.04531540  1
  O2-  O203  1  0.10299315  0.87702664  0.52484833  1
  O2-  O204  1  0.43167613  0.22737881  0.03655812  1
  O2-  O205  1  0.42117687  0.19280851  0.54810159  1
  O2-  O206  1  0.42476384  0.54805894  -0.03654762  1
  O2-  O207  1  0.44156417  0.56213592  0.54773475  1
  O2-  O208  1  0.44510842  0.89697807  0.03591355  1
  O2-  O209  1  0.41820584  0.92640115  0.54703763  1
  O2-  O210  1  0.78097633  0.20477801  0.01996776  1
  O2-  O211  1  0.77825339  0.21597302  0.53228462  1
  O2-  O212  1  0.78467941  0.55425857  0.02341479  1
  O2-  O213  1  0.81677795  0.57174968  0.52883175  1
  O2-  O214  1  0.77599691  0.90289199  0.03528178  1
  O2-  O215  1  0.77840219  0.87813037  0.52880340  1
