# generated using pymatgen
data_H2O
_symmetry_space_group_name_H-M   'P 1'
_cell_length_a   13.53157064
_cell_length_b   13.52880071
_cell_length_c   14.69957689
_cell_angle_alpha   89.98860930
_cell_angle_beta   90.00555971
_cell_angle_gamma   120.05251732
_symmetry_Int_Tables_number   1
_chemical_formula_structural   H2O
_chemical_formula_sum   'H144 O72'
_cell_volume   2329.23278185
_cell_formula_units_Z   72
loop_
 _symmetry_equiv_pos_site_id
 _symmetry_equiv_pos_as_xyz
  1  'x, y, z'
loop_
 _atom_type_symbol
 _atom_type_oxidation_number
  H+  1.0
  O2-  -2.0
loop_
 _atom_site_type_symbol
 _atom_site_label
 _atom_site_symmetry_multiplicity
 _atom_site_fract_x
 _atom_site_fract_y
 _atom_site_fract_z
 _atom_site_occupancy
  H+  H0  1  0.96116694  0.45840553  0.48854659  1
  H+  H1  1  0.20009194  0.73747521  0.51745774  1
  H+  H2  1  0.47895486  1.01839685  0.75910581  1
  H+  H3  1  0.47805804  0.49309873  0.23929984  1
  H+  H4  1  0.84698665  0.47353133  0.26031796  1
  H+  H5  1  0.76641071  0.82634155  0.70480939  1
  H+  H6  1  0.78338487  0.88566555  0.08422647  1
  H+  H7  1  0.28424237  0.46770350  0.99109941  1
  H+  H8  1  0.46182725  0.22397778  0.09939556  1
  H+  H9  1  0.40089018  0.14949293  0.24791045  1
  H+  H10  1  -0.03404303  0.14037925  0.25348941  1
  H+  H11  1  0.81640760  0.97768917  0.49088689  1
  H+  H12  1  0.09709794  0.70818884  0.80733016  1
  H+  H13  1  0.91968731  0.77409274  0.87357833  1
  H+  H14  1  0.19043940  0.04928007  0.77042767  1
  H+  H15  1  1.05133192  0.84289666  1.02155720  1
  H+  H16  1  0.30898788  0.14851140  1.00371717  1
  H+  H17  1  0.20360403  0.71964050  0.75798307  1
  H+  H18  1  1.03270320  0.86282334  0.52340342  1
  H+  H19  1  0.17460431  0.34684909  0.49237970  1
  H+  H20  1  0.96271345  0.46604367  0.98231926  1
  H+  H21  1  0.81579943  0.85225460  0.21200103  1
  H+  H22  1  0.53808933  0.37978087  0.75788901  1
  H+  H23  1  0.36576078  0.61996315  0.07207067  1
  H+  H24  1  0.46075279  0.85212272  0.72731936  1
  H+  H25  1  0.69767013  0.52709003  0.74957840  1
  H+  H26  1  0.48714058  0.96589464  -0.00134388  1
  H+  H27  1  0.16791644  0.96373293  0.01941025  1
  H+  H28  1  0.36352799  0.87660404  0.48672962  1
  H+  H29  1  0.48484058  0.17919659  1.00704033  1
  H+  H30  1  0.13475068  0.28748412  0.23591488  1
  H+  H31  1  0.05269513  0.86907202  0.74625408  1
  H+  H32  1  0.86525064  0.68330483  0.00199895  1
  H+  H33  1  0.53585766  0.09975511  0.90026562  1
  H+  H34  1  0.86178258  1.00125339  -0.02501801  1
  H+  H35  1  0.81355323  0.85666493  0.49941962  1
  H+  H36  1  0.21936847  0.49398772  0.75209786  1
  H+  H37  1  0.13445642  0.16636401  0.24535258  1
  H+  H38  1  0.83920757  0.70153545  0.51271523  1
  H+  H39  1  0.60420792  0.12806837  0.76066847  1
  H+  H40  1  0.19454439  0.81089871  1.00562549  1
  H+  H41  1  0.47489844  0.19685153  0.51309064  1
  H+  H42  1  0.88732795  0.83454395  0.79832453  1
  H+  H43  1  0.02434015  0.50371881  0.23833991  1
  H+  H44  1  0.27002928  0.17050301  0.26074937  1
  H+  H45  1  0.52334916  0.37206824  0.98548901  1
  H+  H46  1  0.86176461  1.02664359  0.75212675  1
  H+  H47  1  0.69336570  0.53405624  0.51394565  1
  H+  H48  1  0.37261593  0.84132636  -0.00064261  1
  H+  H49  1  0.10038878  0.53656706  0.09472877  1
  H+  H50  1  0.62704195  0.80063508  0.23421200  1
  H+  H51  1  0.81330668  0.96881938  0.22488449  1
  H+  H52  1  0.76754800  0.27082163  0.74470449  1
  H+  H53  1  0.11776650  0.89976556  0.16399933  1
  H+  H54  1  0.35651051  0.19596389  0.50490870  1
  H+  H55  1  0.81114128  0.16784894  0.50938153  1
  H+  H56  1  0.36602821  0.83641446  0.22363795  1
  H+  H57  1  0.70837488  0.83633926  0.99399590  1
  H+  H58  1  0.51103796  0.05093588  0.47866008  1
  H+  H59  1  0.51653598  0.37194739  0.48829885  1
  H+  H60  1  0.16514031  0.45947868  0.98274857  1
  H+  H61  1  0.49857200  0.51077067  0.72150291  1
  H+  H62  1  0.48065357  0.61401736  0.23849378  1
  H+  H63  1  -0.01675799  0.12729793  -0.01726581  1
  H+  H64  1  0.84397713  0.34264193  0.48961990  1
  H+  H65  1  0.48037542  0.87176564  0.49087030  1
  H+  H66  1  0.18738495  0.68484422  0.25391554  1
  H+  H67  1  0.79830507  0.28046440  -0.00149395  1
  H+  H68  1  0.64237823  0.48559440  -0.01283026  1
  H+  H69  1  0.14759129  0.61999547  0.00928783  1
  H+  H70  1  0.46899582  0.62224366  0.50045473  1
  H+  H71  1  0.18569653  0.13950260  0.00625656  1
  H+  H72  1  0.37528066  0.49656936  0.72297701  1
  H+  H73  1  0.14902807  0.17786135  0.50387330  1
  H+  H74  1  0.90913403  0.43645072  0.73479761  1
  H+  H75  1  0.17810079  0.83847362  0.49329163  1
  H+  H76  1  0.16914637  0.87256852  0.74088788  1
  H+  H77  1  0.82134780  0.50296527  1.00798025  1
  H+  H78  1  0.82211511  0.47922720  0.75721695  1
  H+  H79  1  0.51896360  0.99211752  0.23480893  1
  H+  H80  1  0.29320180  0.46882877  0.26047348  1
  H+  H81  1  0.82091921  0.29505785  0.23316906  1
  H+  H82  1  0.22100057  0.76966764  0.91216391  1
  H+  H83  1  0.14191164  0.50208738  0.23756649  1
  H+  H84  1  0.53236882  0.77985565  0.57188913  1
  H+  H85  1  0.52022275  0.69980443  -0.01390840  1
  H+  H86  1  0.62177496  0.14019341  -0.01245012  1
  H+  H87  1  0.09589973  0.53786365  0.71819058  1
  H+  H88  1  0.62557009  0.82383148  0.49702230  1
  H+  H89  1  0.62092787  0.84249675  0.74761506  1
  H+  H90  1  0.70175248  0.51057838  0.23925156  1
  H+  H91  1  0.48980305  0.19507371  0.74196829  1
  H+  H92  1  0.53142603  0.35285833  0.26286029  1
  H+  H93  1  0.52129895  0.16283312  0.23976288  1
  H+  H94  1  0.81908586  0.63056300  0.22900199  1
  H+  H95  1  0.14245425  0.28248646  0.00910017  1
  H+  H96  1  0.96918866  0.14861718  0.48408070  1
  H+  H97  1  0.85097834  0.14571025  0.25242751  1
  H+  H98  1  0.13171319  0.59151684  0.46390812  1
  H+  H99  1  -0.01243283  0.14535335  0.75666487  1
  H+  H100  1  0.97390149  0.83422046  0.23895300  1
  H+  H101  1  0.86368995  0.80207148  0.99882788  1
  H+  H102  1  0.82560294  0.64089229  0.75214251  1
  H+  H103  1  0.13694952  0.98658668  0.24754707  1
  H+  H104  1  0.69628723  0.17641923  0.51075003  1
  H+  H105  1  0.50753938  0.79387009  0.23439758  1
  H+  H106  1  0.15277194  0.18143335  0.74647236  1
  H+  H107  1  0.21133428  0.42891487  0.34732441  1
  H+  H108  1  0.21241288  0.12027261  0.38778193  1
  H+  H109  1  0.44011183  0.53731791  0.58590763  1
  H+  H110  1  0.10792021  0.21208029  0.59675215  1
  H+  H111  1  0.58930449  0.05287468  0.32436226  1
  H+  H112  1  0.70918386  0.16904535  0.22711112  1
  H+  H113  1  0.12530255  0.91183426  0.60292976  1
  H+  H114  1  0.54774041  0.78752129  0.83544224  1
  H+  H115  1  0.44209136  0.87756721  0.12838784  1
  H+  H116  1  0.15162834  0.29823994  0.73489022  1
  H+  H117  1  0.56156295  0.43753336  0.34781071  1
  H+  H118  1  0.86639287  0.78580881  0.30986623  1
  H+  H119  1  0.22740406  0.77353267  0.33593643  1
  H+  H120  1  0.78333200  0.54279899  0.09872390  1
  H+  H121  1  0.45686907  0.24520187  0.65496166  1
  H+  H122  1  0.16530489  0.58050069  0.62916584  1
  H+  H123  1  0.55705103  0.15407085  0.40557157  1
  H+  H124  1  0.87806486  0.42982167  0.89566300  1
  H+  H125  1  0.41957803  0.55094118  0.11063435  1
  H+  H126  1  0.91010915  0.08822951  0.87181476  1
  H+  H127  1  0.29610757  0.46714076  0.48710537  1
  H+  H128  1  0.15706090  0.49518059  0.49815886  1
  H+  H129  1  0.53059123  0.82069215  0.98335225  1
  H+  H130  1  0.22956721  0.43584169  0.84401798  1
  H+  H131  1  0.74989168  0.19646246  0.65715588  1
  H+  H132  1  0.21884707  0.11744556  0.86410897  1
  H+  H133  1  0.18468946  0.04428770  0.48172695  1
  H+  H134  1  0.76964485  0.90431657  0.62525142  1
  H+  H135  1  0.43291176  0.90083593  0.63842071  1
  H+  H136  1  0.51537446  0.48776626  0.47743415  1
  H+  H137  1  0.91214917  0.77737575  0.42775395  1
  H+  H138  1  0.76780845  0.57154016  0.60716567  1
  H+  H139  1  0.88375289  0.42647082  0.34778240  1
  H+  H140  1  0.76666170  0.20579476  0.08719947  1
  H+  H141  1  0.10004570  0.20629443  0.10133010  1
  H+  H142  1  0.89145370  0.11116272  0.39221165  1
  H+  H143  1  0.56829048  0.45849299  0.84878767  1
  O2-  O144  1  0.09440930  0.20760880  0.21295176  1
  O2-  O145  1  0.11057756  0.21694243  0.71437961  1
  O2-  O146  1  0.10365411  0.54319277  0.21257254  1
  O2-  O147  1  0.17358076  0.58775143  0.69683053  1
  O2-  O148  1  0.09549331  0.90338381  0.22761195  1
  O2-  O149  1  0.12947783  0.91231414  0.71759654  1
  O2-  O150  1  0.47784980  0.20288556  0.22631496  1
  O2-  O151  1  0.47566085  0.25660856  0.72033229  1
  O2-  O152  1  0.43398298  0.53067949  0.22057306  1
  O2-  O153  1  0.44880353  0.53518665  0.69000429  1
  O2-  O154  1  0.44575158  0.87649066  0.19736931  1
  O2-  O155  1  0.41484787  0.88603075  0.70353655  1
  O2-  O156  1  0.78966140  0.21639469  0.20703356  1
  O2-  O157  1  0.73481804  0.19160689  0.72353086  1
  O2-  O158  1  0.78168583  0.54729187  0.21531483  1
  O2-  O159  1  0.78061218  0.56449677  0.72443086  1
  O2-  O160  1  0.77270908  0.89171916  0.19478457  1
  O2-  O161  1  0.76771518  0.89802454  0.69428295  1
  O2-  O162  1  0.19697091  0.11549393  0.28712341  1
  O2-  O163  1  0.21081958  0.12387571  0.79757105  1
  O2-  O164  1  0.21140724  0.43233330  0.27950898  1
  O2-  O165  1  0.23656621  0.43625135  0.77623514  1
  O2-  O166  1  0.23967382  0.76579869  0.27133259  1
  O2-  O167  1  0.17852090  0.76105993  0.79898925  1
  O2-  O168  1  0.57166834  0.07228710  0.26509361  1
  O2-  O169  1  0.52461644  0.09630250  0.78650692  1
  O2-  O170  1  0.56198266  0.43391822  0.27916184  1
  O2-  O171  1  0.57528529  0.46260910  0.78023105  1
  O2-  O172  1  0.54742341  0.75352453  0.25601705  1
  O2-  O173  1  0.54181391  0.79901338  0.76958807  1
  O2-  O174  1  0.88468056  0.10010180  0.27768837  1
  O2-  O175  1  0.90918174  0.09832447  0.78645880  1
  O2-  O176  1  0.88576501  0.43050475  0.27905011  1
  O2-  O177  1  0.85080508  0.42603198  0.77840159  1
  O2-  O178  1  0.88320799  0.78032345  0.24646866  1
  O2-  O179  1  0.92021411  0.78518112  0.80440770  1
  O2-  O180  1  0.22185494  0.12402107  0.45922577  1
  O2-  O181  1  0.22751277  0.10114045  0.98342820  1
  O2-  O182  1  0.21377869  0.42732922  0.46693259  1
  O2-  O183  1  0.20795222  0.42101203  0.96183701  1
  O2-  O184  1  0.21865431  0.79646931  0.47171727  1
  O2-  O185  1  0.22920970  0.76617639  0.97906921  1
  O2-  O186  1  0.55770483  0.13723166  0.46986685  1
  O2-  O187  1  0.53800258  0.09873724  0.96881028  1
  O2-  O188  1  0.56102430  0.45043116  0.46081877  1
  O2-  O189  1  0.56426024  0.45108001  0.96166952  1
  O2-  O190  1  0.54059140  0.78328487  0.50574954  1
  O2-  O191  1  0.56788147  0.77729351  0.96055481  1
  O2-  O192  1  0.88858526  0.11001549  0.46077951  1
  O2-  O193  1  0.90670938  0.08231374  0.95031341  1
  O2-  O194  1  0.88513813  0.41951826  0.46045895  1
  O2-  O195  1  0.88110613  0.42864036  0.96318030  1
  O2-  O196  1  0.89184815  0.78713421  0.48922463  1
  O2-  O197  1  0.90980002  0.76597762  0.98102479  1
  O2-  O198  1  0.10414469  0.20245461  0.03256083  1
  O2-  O199  1  0.10492657  0.21460245  0.52870796  1
  O2-  O200  1  0.10325961  0.53745639  0.02643028  1
  O2-  O201  1  0.12213625  0.54486608  0.51745853  1
  O2-  O202  1  0.13202292  0.88322440  0.04302895  1
  O2-  O203  1  0.11672593  0.90483846  0.53501101  1
  O2-  O204  1  0.45024180  0.22402829  0.03325378  1
  O2-  O205  1  0.43557011  0.23884347  0.53136486  1
  O2-  O206  1  0.40089647  0.57617821  0.05138430  1
  O2-  O207  1  0.43346399  0.54045301  0.51597094  1
  O2-  O208  1  0.45434442  0.88356325  0.01944607  1
  O2-  O209  1  0.44572682  0.91991117  0.50479156  1
  O2-  O210  1  0.75210988  0.20110352  0.02082885  1
  O2-  O211  1  0.77361568  0.20793494  0.53745303  1
  O2-  O212  1  0.78782186  0.54973548  0.03080443  1
  O2-  O213  1  0.77064809  0.58444190  0.54034265  1
  O2-  O214  1  0.78928472  0.87501329  0.01664705  1
  O2-  O215  1  0.77049703  0.89656470  0.51495854  1
