# generated using pymatgen
data_H2O
_symmetry_space_group_name_H-M   'P 1'
_cell_length_a   13.53167067
_cell_length_b   13.52895711
_cell_length_c   14.68434613
_cell_angle_alpha   89.99831327
_cell_angle_beta   90.00034908
_cell_angle_gamma   119.97895370
_symmetry_Int_Tables_number   1
_chemical_formula_structural   H2O
_chemical_formula_sum   'H144 O72'
_cell_volume   2328.59010881
_cell_formula_units_Z   72
loop_
 _symmetry_equiv_pos_site_id
 _symmetry_equiv_pos_as_xyz
  1  'x, y, z'
loop_
 _atom_type_symbol
 _atom_type_oxidation_number
  H+  1.0
  O2-  -2.0
loop_
 _atom_site_type_symbol
 _atom_site_label
 _atom_site_symmetry_multiplicity
 _atom_site_fract_x
 _atom_site_fract_y
 _atom_site_fract_z
 _atom_site_occupancy
  H+  H0  1  0.31149242  0.47200507  0.48999619  1
  H+  H1  1  0.46697192  0.85014619  0.75901623  1
  H+  H2  1  0.50759060  0.31743021  0.75214141  1
  H+  H3  1  0.55420209  0.77118579  0.34365442  1
  H+  H4  1  0.21274289  0.49448490  -0.01103671  1
  H+  H5  1  0.97207622  0.14072412  0.30442207  1
  H+  H6  1  0.52853338  0.18076740  0.47289432  1
  H+  H7  1  0.15490966  0.50646153  0.24281147  1
  H+  H8  1  0.48944145  0.62779706  0.25186552  1
  H+  H9  1  0.87048864  0.73910104  0.23768265  1
  H+  H10  1  0.62895812  0.14216961  0.99599079  1
  H+  H11  1  0.76967249  0.83075519  0.51016947  1
  H+  H12  1  0.60925646  0.80875799  0.49062646  1
  H+  H13  1  0.56215212  0.46454224  0.90510553  1
  H+  H14  1  0.48895987  0.84052947  0.24149840  1
  H+  H15  1  0.17931362  0.64719450  -0.00143813  1
  H+  H16  1  1.01498032  0.85191998  0.72483189  1
  H+  H17  1  0.82784509  0.45333542  0.50277761  1
  H+  H18  1  0.51550924  0.93757159  0.54663309  1
  H+  H19  1  0.06824765  0.84744091  0.46417322  1
  H+  H20  1  0.03900029  0.84974401  0.02703478  1
  H+  H21  1  0.32264176  0.80436923  0.25720157  1
  H+  H22  1  0.91136727  0.11992349  0.73639962  1
  H+  H23  1  0.88030602  0.78709810  0.84210239  1
  H+  H24  1  0.45063866  0.55355396  0.66175145  1
  H+  H25  1  0.70440572  0.85314476  0.01959575  1
  H+  H26  1  0.14548658  0.18173936  0.25198037  1
  H+  H27  1  0.77446516  0.24070981  0.63809416  1
  H+  H28  1  0.92322025  0.46899573  1.03145096  1
  H+  H29  1  0.47743127  0.29420454  0.01464871  1
  H+  H30  1  0.78717042  0.50770207  0.03520921  1
  H+  H31  1  0.36699144  0.51006643  0.24934226  1
  H+  H32  1  0.15858963  0.28044312  0.73035467  1
  H+  H33  1  0.35215192  0.86231088  0.75968251  1
  H+  H34  1  0.51024345  0.15880337  0.77820698  1
  H+  H35  1  0.17126472  0.85219429  0.76055352  1
  H+  H36  1  0.18040985  0.40248692  0.83245797  1
  H+  H37  1  0.83895055  0.14726644  0.99016629  1
  H+  H38  1  0.07932232  0.52498493  -0.02892636  1
  H+  H39  1  0.49794261  1.02717577  0.77884220  1
  H+  H40  1  0.33342636  0.16837410  0.78468412  1
  H+  H41  1  0.61064361  0.81185468  0.76906960  1
  H+  H42  1  0.17679590  0.63818155  0.49951969  1
  H+  H43  1  0.63867296  0.49759420  0.00818753  1
  H+  H44  1  0.63949172  0.81876463  0.25808023  1
  H+  H45  1  0.61525587  0.45172711  0.27685531  1
  H+  H46  1  0.20911396  0.14846468  0.76492955  1
  H+  H47  1  0.30020170  0.15936389  0.00206266  1
  H+  H48  1  0.47688184  0.77659031  0.47720875  1
  H+  H49  1  0.52404022  0.35603767  0.50592388  1
  H+  H50  1  0.79132109  0.28029645  1.01512166  1
  H+  H51  1  0.17946898  1.03531808  0.27008596  1
  H+  H52  1  0.43393085  0.91649555  0.62761314  1
  H+  H53  1  0.04018152  0.16433543  0.48617462  1
  H+  H54  1  0.85611340  0.71748505  0.99122659  1
  H+  H55  1  1.04025403  0.86838633  0.26214064  1
  H+  H56  1  0.35157909  0.14997623  0.52194598  1
  H+  H57  1  0.80708769  0.13589224  0.74873188  1
  H+  H58  1  0.49454114  0.50897201  0.52324567  1
  H+  H59  1  0.47714833  0.16799854  0.23137469  1
  H+  H60  1  0.78681820  0.58446920  0.28523342  1
  H+  H61  1  0.16800887  0.51690309  0.48671749  1
  H+  H62  1  0.17231690  0.73820060  0.77566297  1
  H+  H63  1  0.16567181  0.97153698  0.49326836  1
  H+  H64  1  0.16272902  0.58836051  0.70381870  1
  H+  H65  1  0.92517506  0.83854331  0.50346635  1
  H+  H66  1  0.20558261  0.82414255  0.48081567  1
  H+  H67  1  0.68371053  0.18534508  0.71781226  1
  H+  H68  1  0.48813024  0.84362239  0.01690605  1
  H+  H69  1  0.19008619  0.35701942  0.48278319  1
  H+  H70  1  0.83445508  0.70035915  0.75784417  1
  H+  H71  1  0.50744604  0.14432781  0.99702052  1
  H+  H72  1  0.15410499  0.84732219  0.03410395  1
  H+  H73  1  0.32832246  0.83958067  0.49264374  1
  H+  H74  1  0.36303818  0.50404551  0.74434292  1
  H+  H75  1  0.69568088  0.17162743  0.22936575  1
  H+  H76  1  0.81801179  0.97444398  0.01323828  1
  H+  H77  1  0.56972255  0.09391727  0.47411598  1
  H+  H78  1  0.85919969  0.83514814  0.99421745  1
  H+  H79  1  0.81449128  0.62607391  0.51564456  1
  H+  H80  1  0.56491707  0.12363390  0.33061851  1
  H+  H81  1  0.78985068  0.91230099  0.16188904  1
  H+  H82  1  0.19142318  0.14966365  0.49032374  1
  H+  H83  1  0.06347862  0.15076617  0.74074703  1
  H+  H84  1  0.77758478  0.94944985  0.73837129  1
  H+  H85  1  0.72843680  0.25637310  0.48085060  1
  H+  H86  1  0.50263486  0.46269252  0.27589791  1
  H+  H87  1  0.51944882  0.48967654  0.77014152  1
  H+  H88  1  0.85226693  0.01800615  0.45189030  1
  H+  H89  1  0.51788238  1.02551354  0.25335956  1
  H+  H90  1  0.16076960  0.44498615  0.73596234  1
  H+  H91  1  0.51688493  0.69517294  0.00231659  1
  H+  H92  1  0.96412019  0.47156049  0.27047590  1
  H+  H93  1  0.48753511  0.62338439  0.51629856  1
  H+  H94  1  0.17908011  0.36093868  0.25970265  1
  H+  H95  1  0.17288993  0.15589744  -0.00376518  1
  H+  H96  1  0.54486063  0.77043221  0.91087340  1
  H+  H97  1  0.37321056  0.50650819  0.03789022  1
  H+  H98  1  0.47392566  0.28446285  0.24331182  1
  H+  H99  1  0.77076255  0.55304644  0.65439068  1
  H+  H100  1  0.29783529  0.48036658  0.92171793  1
  H+  H101  1  0.78603021  0.83547883  0.73673426  1
  H+  H102  1  0.81205224  0.52188315  0.74722461  1
  H+  H103  1  0.31191713  0.81704532  -0.00373088  1
  H+  H104  1  0.51122298  0.49688023  1.00628326  1
  H+  H105  1  0.69777245  0.50783978  0.51555383  1
  H+  H106  1  0.49434195  0.69466430  0.77293865  1
  H+  H107  1  0.82299706  0.97893829  0.26055070  1
  H+  H108  1  0.80303070  0.48065255  0.25930508  1
  H+  H109  1  0.73735561  0.87761817  0.59756805  1
  H+  H110  1  0.45686641  0.22391647  0.66800279  1
  H+  H111  1  0.19299914  0.67592291  0.26400041  1
  H+  H112  1  0.43746930  0.21406586  0.10355829  1
  H+  H113  1  0.22743912  0.44211697  0.34662268  1
  H+  H114  1  0.54664125  0.42300992  0.41192365  1
  H+  H115  1  0.76177006  0.19912265  0.10269077  1
  H+  H116  1  0.24686193  0.76763226  0.35690456  1
  H+  H117  1  0.48245961  0.96008910  0.01582890  1
  H+  H118  1  0.08668739  0.20795218  0.16841001  1
  H+  H119  1  0.64158316  0.49469170  0.76989050  1
  H+  H120  1  0.10453761  0.20571312  0.58322929  1
  H+  H121  1  0.14057063  0.29012265  0.01382020  1
  H+  H122  1  0.10843634  0.52257509  0.61414028  1
  H+  H123  1  0.87391615  0.10807889  0.89885070  1
  H+  H124  1  0.45905711  0.55002336  0.12381126  1
  H+  H125  1  0.84283421  0.83448127  0.26655429  1
  H+  H126  1  0.11688210  0.89713436  0.17383077  1
  H+  H127  1  0.44352096  0.87703964  0.15301878  1
  H+  H128  1  0.41035254  0.08669492  0.56762406  1
  H+  H129  1  0.87766514  0.44936046  0.92896327  1
  H+  H130  1  0.22787522  0.79745387  0.91129520  1
  H+  H131  1  0.81958586  0.28026367  0.23212840  1
  H+  H132  1  0.23387948  0.12846456  0.89740797  1
  H+  H133  1  0.09620612  0.87860085  0.63802625  1
  H+  H134  1  -0.05838720  0.45248167  0.76118025  1
  H+  H135  1  0.87025561  0.77966903  0.40858163  1
  H+  H136  1  0.88138143  0.41743662  0.35714011  1
  H+  H137  1  0.97622476  0.56715648  0.80682925  1
  H+  H138  1  0.29839111  0.15214434  0.26250626  1
  H+  H139  1  0.54475114  0.10857933  0.88131711  1
  H+  H140  1  0.74463631  0.54183357  0.12460906  1
  H+  H141  1  0.11910940  0.55198320  0.15523925  1
  H+  H142  1  0.23367234  0.11535980  0.40031549  1
  H+  H143  1  1.01998537  0.17463426  1.00743164  1
  O2-  O144  1  0.09841674  0.21760580  0.23492327  1
  O2-  O145  1  0.13204360  0.20121724  0.70631412  1
  O2-  O146  1  0.11750482  0.55200652  0.22234548  1
  O2-  O147  1  0.10416857  0.51230023  0.68462464  1
  O2-  O148  1  0.12005943  0.90659845  0.24183824  1
  O2-  O149  1  0.09576479  0.88860089  0.70448791  1
  O2-  O150  1  0.43561535  0.20880096  0.21176119  1
  O2-  O151  1  0.46766600  0.23427359  0.73531620  1
  O2-  O152  1  0.44974196  0.54595032  0.23146441  1
  O2-  O153  1  0.44521378  0.55186343  0.73035885  1
  O2-  O154  1  0.44265440  0.87663300  0.22168459  1
  O2-  O155  1  0.43416762  0.89958076  0.73967287  1
  O2-  O156  1  0.77416102  0.20417643  0.20395864  1
  O2-  O157  1  0.76461591  0.21847721  0.70322686  1
  O2-  O158  1  0.75714943  0.51948478  0.24358376  1
  O2-  O159  1  0.76823932  0.55670553  0.72308539  1
  O2-  O160  1  0.78153310  0.90254698  0.22939440  1
  O2-  O161  1  0.73809064  0.86902211  0.71619270  1
  O2-  O162  1  0.22143594  0.11911774  0.29072606  1
  O2-  O163  1  0.25281774  0.12565756  0.80586023  1
  O2-  O164  1  0.22473366  0.44351970  0.27808713  1
  O2-  O165  1  0.20449347  0.41214005  0.76868871  1
  O2-  O166  1  0.24215649  0.75835929  0.28728698  1
  O2-  O167  1  0.21630709  0.81854454  0.79245052  1
  O2-  O168  1  0.55559561  0.10925725  0.26371193  1
  O2-  O169  1  0.54176502  0.10879676  0.80387683  1
  O2-  O170  1  0.53479568  0.41483190  0.29891198  1
  O2-  O171  1  0.56214975  0.45346933  0.79767874  1
  O2-  O172  1  0.55694182  0.77193931  0.27569430  1
  O2-  O173  1  0.53115806  0.77489310  0.79541316  1
  O2-  O174  1  0.89541946  0.09325256  0.33384060  1
  O2-  O175  1  0.84313244  0.09136491  0.77392199  1
  O2-  O176  1  0.88321634  0.42570919  0.28909331  1
  O2-  O177  1  0.91376903  0.48805609  0.80513688  1
  O2-  O178  1  0.87870310  0.78825997  0.28911057  1
  O2-  O179  1  0.87183071  0.78279121  0.77456994  1
  O2-  O180  1  0.23266508  0.10914920  0.46958754  1
  O2-  O181  1  0.22310720  0.12523255  0.97130863  1
  O2-  O182  1  0.23518309  0.43751112  0.46072091  1
  O2-  O183  1  0.24776477  0.44550202  0.97430893  1
  O2-  O184  1  0.25362577  0.78995794  0.46259230  1
  O2-  O185  1  0.23002444  0.77688586  0.97592468  1
  O2-  O186  1  0.58464327  0.16389126  0.44307070  1
  O2-  O187  1  0.54679103  0.10456349  0.97007371  1
  O2-  O188  1  0.55854242  0.43273053  0.48012233  1
  O2-  O189  1  0.55721047  0.45986277  0.97576371  1
  O2-  O190  1  0.53270445  0.75448415  0.46015164  1
  O2-  O191  1  0.55365858  0.77429930  0.97901058  1
  O2-  O192  1  0.92665563  0.05844758  0.42007888  1
  O2-  O193  1  0.88343322  0.11169431  0.96592238  1
  O2-  O194  1  0.86231621  0.40971676  0.47577049  1
  O2-  O195  1  0.85414904  0.43451736  0.99400988  1
  O2-  O196  1  0.85966754  0.77255373  0.47603936  1
  O2-  O197  1  0.89653832  0.79465062  0.96566293  1
  O2-  O198  1  0.09904627  0.20998305  0.03406481  1
  O2-  O199  1  0.11489095  0.21476152  0.51652535  1
  O2-  O200  1  0.14137095  0.56188432  0.01507338  1
  O2-  O201  1  0.12866973  0.55600460  0.51246709  1
  O2-  O202  1  0.11214156  0.88267880  0.06001445  1
  O2-  O203  1  0.12803161  0.88728925  0.50952821  1
  O2-  O204  1  0.43610640  0.21357938  0.03355334  1
  O2-  O205  1  0.42402389  0.16390148  0.55501731  1
  O2-  O206  1  0.45591910  0.54873002  0.05386055  1
  O2-  O207  1  0.45256261  0.54710331  0.54610000  1
  O2-  O208  1  0.44406963  0.88085044  0.03938418  1
  O2-  O209  1  0.44486759  0.93728836  0.56080166  1
  O2-  O210  1  0.75448242  0.19860688  0.03148559  1
  O2-  O211  1  0.79855493  0.29559509  0.51861395  1
  O2-  O212  1  0.74650617  0.54790816  0.05665367  1
  O2-  O213  1  0.77720860  0.54748898  0.54044656  1
  O2-  O214  1  0.78448284  0.89698431  0.04143605  1
  O2-  O215  1  0.73487916  0.87691095  0.52931684  1
