# generated using pymatgen
data_H2O
_symmetry_space_group_name_H-M   'P 1'
_cell_length_a   13.47761383
_cell_length_b   13.49126534
_cell_length_c   14.66172700
_cell_angle_alpha   89.95116802
_cell_angle_beta   90.01449540
_cell_angle_gamma   119.88087279
_symmetry_Int_Tables_number   1
_chemical_formula_structural   H2O
_chemical_formula_sum   'H144 O72'
_cell_volume   2311.53974401
_cell_formula_units_Z   72
loop_
 _symmetry_equiv_pos_site_id
 _symmetry_equiv_pos_as_xyz
  1  'x, y, z'
loop_
 _atom_type_symbol
 _atom_type_oxidation_number
  H+  1.0
  O2-  -2.0
loop_
 _atom_site_type_symbol
 _atom_site_label
 _atom_site_symmetry_multiplicity
 _atom_site_fract_x
 _atom_site_fract_y
 _atom_site_fract_z
 _atom_site_occupancy
  H+  H0  1  0.85123794  0.68711805  0.49116108  1
  H+  H1  1  0.29310164  0.47812164  0.25857780  1
  H+  H2  1  0.35115884  0.84469047  0.00872739  1
  H+  H3  1  0.47061095  0.23917832  0.43959417  1
  H+  H4  1  0.26380196  0.80256168  0.48817006  1
  H+  H5  1  0.63417389  0.49173193  0.98390955  1
  H+  H6  1  0.15411348  0.30808887  0.23981900  1
  H+  H7  1  0.43038038  0.53953135  0.14988856  1
  H+  H8  1  0.81822037  0.17331881  0.51379710  1
  H+  H9  1  0.87122197  0.36244059  0.98286399  1
  H+  H10  1  0.50037478  0.80841202  -0.00415003  1
  H+  H11  1  0.50901206  0.38569363  0.50052290  1
  H+  H12  1  0.17763892  0.82088370  0.98843513  1
  H+  H13  1  0.29778460  0.81427488  0.25330433  1
  H+  H14  1  0.51473615  0.12798932  0.49255372  1
  H+  H15  1  0.50360954  0.47477137  0.26359946  1
  H+  H16  1  0.27572605  0.51083663  0.87667342  1
  H+  H17  1  0.48533666  0.29989110  0.25335001  1
  H+  H18  1  0.44239206  0.88916003  0.66280400  1
  H+  H19  1  0.77644370  0.89297703  0.14967882  1
  H+  H20  1  0.18232362  0.15748716  0.49180370  1
  H+  H21  1  0.18602441  1.04150244  0.25646412  1
  H+  H22  1  0.75754027  0.53859720  0.09165945  1
  H+  H23  1  0.36886265  0.53021842  0.74919186  1
  H+  H24  1  0.83549365  0.47116305  0.75726674  1
  H+  H25  1  0.39320058  0.09852322  0.05568404  1
  H+  H26  1  0.69609622  0.16661404  0.51681527  1
  H+  H27  1  0.15969569  0.63471562  0.00748790  1
  H+  H28  1  0.56919082  0.86657605  0.44790520  1
  H+  H29  1  0.46632087  -0.04833899  0.51572911  1
  H+  H30  1  0.95053098  0.13993082  0.77096618  1
  H+  H31  1  0.16786547  0.14059832  0.75643116  1
  H+  H32  1  0.47671094  0.62338612  0.23501114  1
  H+  H33  1  0.80272112  0.50728679  0.00121736  1
  H+  H34  1  0.52351085  0.82425938  0.76483801  1
  H+  H35  1  0.47797113  0.96667009  0.75333025  1
  H+  H36  1  0.63996881  0.81290389  0.48506813  1
  H+  H37  1  0.17602347  0.69849170  0.24684956  1
  H+  H38  1  0.29469657  0.48648254  0.49257952  1
  H+  H39  1  0.16226946  0.86193500  0.23165822  1
  H+  H40  1  0.81067253  0.62481337  0.73682209  1
  H+  H41  1  0.46905179  0.63446175  0.00347385  1
  H+  H42  1  0.81140645  0.50244831  0.50417374  1
  H+  H43  1  0.63274499  0.80531538  0.24926582  1
  H+  H44  1  0.04569416  0.86274870  0.23727338  1
  H+  H45  1  0.51894465  0.02553952  0.26239373  1
  H+  H46  1  0.02350806  0.51227379  0.23394612  1
  H+  H47  1  0.80483077  0.20173600  0.08489170  1
  H+  H48  1  0.87529743  0.43082097  0.33679683  1
  H+  H49  1  0.47898299  0.14433964  0.76219567  1
  H+  H50  1  1.01094231  0.19082417  1.02808299  1
  H+  H51  1  0.77111027  0.86349035  0.59502697  1
  H+  H52  1  0.03177361  0.18508643  0.50522333  1
  H+  H53  1  0.50029502  0.20486053  0.01422926  1
  H+  H54  1  0.17798707  0.70233403  0.75725444  1
  H+  H55  1  0.15077590  0.53280243  0.74726882  1
  H+  H56  1  0.80768060  0.86967607  0.00911198  1
  H+  H57  1  0.28859767  0.16526283  0.99500289  1
  H+  H58  1  0.68501137  0.85845446  1.01608252  1
  H+  H59  1  0.96163396  0.81738346  0.76469519  1
  H+  H60  1  0.21426389  0.11254930  0.40120550  1
  H+  H61  1  0.88052410  0.77339869  0.85546183  1
  H+  H62  1  0.14280254  0.84674263  0.74726902  1
  H+  H63  1  0.14990925  0.30544658  0.51302150  1
  H+  H64  1  0.29229367  0.15405483  0.75513056  1
  H+  H65  1  0.83730933  0.70458497  0.99449218  1
  H+  H66  1  0.50657588  0.49296687  0.98017009  1
  H+  H67  1  0.12542812  0.27429043  0.73071221  1
  H+  H68  1  0.43307098  0.82062463  0.52603483  1
  H+  H69  1  0.48177051  0.84061406  0.23991562  1
  H+  H70  1  0.97181970  0.14948785  0.25855219  1
  H+  H71  1  0.69799381  0.51469100  0.50896865  1
  H+  H72  1  0.95981338  0.70519540  0.29693400  1
  H+  H73  1  0.47686456  0.30821842  0.72901040  1
  H+  H74  1  0.89052644  0.11003693  0.39859248  1
  H+  H75  1  0.84166352  0.35483137  0.48333953  1
  H+  H76  1  0.82380594  0.31280212  0.74210026  1
  H+  H77  1  0.13480340  0.62016917  0.49661524  1
  H+  H78  1  0.13984044  0.97366176  0.00383285  1
  H+  H79  1  0.27116572  0.52672011  0.02405188  1
  H+  H80  1  0.67498118  0.21134834  0.97671365  1
  H+  H81  1  0.47129839  0.64634879  0.51205594  1
  H+  H82  1  0.30528066  0.15859892  0.26405720  1
  H+  H83  1  0.14229689  0.51324986  0.23994328  1
  H+  H84  1  0.30089870  0.81666095  0.76195488  1
  H+  H85  1  0.14176593  0.96463072  0.75193816  1
  H+  H86  1  0.81748125  0.18129334  0.74666001  1
  H+  H87  1  0.79697780  0.49383307  0.23053650  1
  H+  H88  1  0.55331273  0.45480769  0.88504304  1
  H+  H89  1  0.17215157  0.47844094  0.48908962  1
  H+  H90  1  0.13234829  0.18389546  0.01428862  1
  H+  H91  1  0.63080227  0.48416100  0.75362781  1
  H+  H92  1  0.84278102  0.35540260  0.24543985  1
  H+  H93  1  0.82148098  0.17651610  0.23314703  1
  H+  H94  1  0.15931183  0.18814205  0.23801574  1
  H+  H95  1  0.80087056  0.61305509  0.23335083  1
  H+  H96  1  0.85373678  0.02659407  0.48490912  1
  H+  H97  1  -0.01908896  0.48483233  -0.01791522  1
  H+  H98  1  0.95924138  0.47299217  0.48087547  1
  H+  H99  1  0.81936082  0.84661559  0.23216291  1
  H+  H100  1  0.47559414  0.95658709  0.01040099  1
  H+  H101  1  0.51368596  0.49067728  0.75506221  1
  H+  H102  1  0.18478229  0.40851432  0.82411308  1
  H+  H103  1  0.51960135  0.70198797  0.76263561  1
  H+  H104  1  0.70235550  0.17308838  0.22658917  1
  H+  H105  1  0.13254708  0.97086340  0.51642309  1
  H+  H106  1  0.42362636  0.05731623  0.84151081  1
  H+  H107  1  0.82263243  0.83920881  0.76772754  1
  H+  H108  1  0.35413968  0.17581317  0.49281574  1
  H+  H109  1  0.48220284  0.53430146  0.51381572  1
  H+  H110  1  0.44112824  0.88400193  0.15448910  1
  H+  H111  1  0.90063162  0.75642913  0.35662969  1
  H+  H112  1  0.44656472  0.21646131  0.16576394  1
  H+  H113  1  0.85401014  0.02985662  0.25933038  1
  H+  H114  1  0.44085582  0.56701851  0.65508307  1
  H+  H115  1  0.52163948  0.14547014  0.26751869  1
  H+  H116  1  0.88215026  0.43454328  0.84688246  1
  H+  H117  1  0.02644948  0.51784976  0.73936998  1
  H+  H118  1  0.96323875  0.81486814  0.49450313  1
  H+  H119  1  0.08583929  0.19989773  0.64321165  1
  H+  H120  1  0.82117072  0.06169679  1.00963974  1
  H+  H121  1  0.81113535  0.82426408  0.50561779  1
  H+  H122  1  0.44115924  0.22885790  0.64043340  1
  H+  H123  1  0.58857383  0.18757377  0.89597479  1
  H+  H124  1  0.62299676  0.47605194  0.26382348  1
  H+  H125  1  0.21954209  0.78119039  0.90021739  1
  H+  H126  1  0.20643132  0.76140008  0.39033546  1
  H+  H127  1  0.77411989  0.54573060  0.64741104  1
  H+  H128  1  0.54862721  0.77558771  0.90779254  1
  H+  H129  1  0.21441053  0.43861277  0.34844561  1
  H+  H130  1  0.55353568  0.76297392  0.33691379  1
  H+  H131  1  0.68803883  0.83900501  0.76618862  1
  H+  H132  1  0.95697486  0.82198665  0.99349349  1
  H+  H133  1  0.11003073  0.89831431  0.09374446  1
  H+  H134  1  0.78336863  0.22124345  0.64647400  1
  H+  H135  1  0.10408894  0.22234718  0.12404721  1
  H+  H136  1  0.54918679  0.45607664  0.40781031  1
  H+  H137  1  0.55847079  0.09279055  0.40397141  1
  H+  H138  1  0.09099296  0.89246429  0.60598077  1
  H+  H139  1  0.11733329  0.55333071  0.09368760  1
  H+  H140  1  0.87569536  0.12193170  0.86272302  1
  H+  H141  1  0.81217694  0.96534811  0.77143684  1
  H+  H142  1  0.09862768  0.54810759  0.59003234  1
  H+  H143  1  0.21503350  0.13062615  0.90293319  1
  O2-  O144  1  0.11565236  0.22656828  0.21431267  1
  O2-  O145  1  0.07994764  0.19429447  0.71266801  1
  O2-  O146  1  0.10512458  0.55494470  0.21394486  1
  O2-  O147  1  0.10613747  0.56304070  0.71640262  1
  O2-  O148  1  0.12381645  0.90618699  0.21118409  1
  O2-  O149  1  0.09674405  0.88388779  0.73087024  1
  O2-  O150  1  0.44674709  0.21768187  0.23377866  1
  O2-  O151  1  0.43421173  0.22732022  0.70720079  1
  O2-  O152  1  0.43262740  0.54054336  0.21744886  1
  O2-  O153  1  0.44766776  0.56616101  0.72337296  1
  O2-  O154  1  0.44356011  0.88502538  0.22231128  1
  O2-  O155  1  0.44961532  0.88741782  0.73074455  1
  O2-  O156  1  0.78167101  0.21269531  0.20167965  1
  O2-  O157  1  0.78522201  0.22741539  0.71710835  1
  O2-  O158  1  0.75527571  0.53432288  0.20885618  1
  O2-  O159  1  0.76969530  0.54419042  0.71632598  1
  O2-  O160  1  0.77835449  0.88758914  0.21826739  1
  O2-  O161  1  0.77553345  0.88318290  0.74919952  1
  O2-  O162  1  0.22211394  0.12143499  0.28110533  1
  O2-  O163  1  0.21584999  0.11202012  0.78506476  1
  O2-  O164  1  0.21178774  0.43626193  0.28008491  1
  O2-  O165  1  0.24196881  0.48848814  0.81390471  1
  O2-  O166  1  0.21512225  0.77927740  0.26948159  1
  O2-  O167  1  0.21999085  0.78145018  0.78317436  1
  O2-  O168  1  0.56320021  0.10511235  0.28731045  1
  O2-  O169  1  0.49283402  0.09362982  0.80414926  1
  O2-  O170  1  0.54503792  0.43815624  0.29225211  1
  O2-  O171  1  0.55063099  0.44673587  0.77890403  1
  O2-  O172  1  0.55105254  0.76306782  0.26922472  1
  O2-  O173  1  0.56307945  0.78212922  0.78822131  1
  O2-  O174  1  0.89187620  0.11034420  0.28180430  1
  O2-  O175  1  0.87055780  0.10527126  0.79587379  1
  O2-  O176  1  0.87614371  0.43535812  0.26864209  1
  O2-  O177  1  0.87617499  0.42961276  0.77794215  1
  O2-  O178  1  0.91524255  0.74398927  0.29035881  1
  O2-  O179  1  0.87871511  0.77749467  0.78658556  1
  O2-  O180  1  0.22051130  0.11481072  0.46917484  1
  O2-  O181  1  0.20947584  0.13133934  0.97113334  1
  O2-  O182  1  0.21566749  0.43963210  0.46807043  1
  O2-  O183  1  0.31274394  0.49745820  0.98634501  1
  O2-  O184  1  0.19391114  0.74638837  0.45679390  1
  O2-  O185  1  0.22153635  0.78312185  0.96871744  1
  O2-  O186  1  0.55546730  0.08756796  0.47286916  1
  O2-  O187  1  0.61768952  0.23023380  0.95367473  1
  O2-  O188  1  0.55275560  0.46428365  0.47630074  1
  O2-  O189  1  0.55274989  0.45743297  0.95587258  1
  O2-  O190  1  0.56297928  0.79196642  0.45738776  1
  O2-  O191  1  0.54447486  0.77048507  0.97572086  1
  O2-  O192  1  0.88970290  0.10811742  0.46719741  1
  O2-  O193  1  0.87065420  0.14317372  0.98828941  1
  O2-  O194  1  0.87803220  0.43306779  0.45752139  1
  O2-  O195  1  0.89919299  0.44160698  0.96132331  1
  O2-  O196  1  0.88367620  0.76607698  0.46559736  1
  O2-  O197  1  0.87608644  0.78398345  0.97068513  1
  O2-  O198  1  0.09220076  0.22014163  0.04811310  1
  O2-  O199  1  0.10922292  0.22327090  0.53420125  1
  O2-  O200  1  0.12733015  0.55367279  0.02620194  1
  O2-  O201  1  0.09506108  0.53915640  0.52281830  1
  O2-  O202  1  0.10262017  0.89345519  0.02553098  1
  O2-  O203  1  0.08245727  0.89232244  0.53905788  1
  O2-  O204  1  0.42592235  0.18083548  0.04774919  1
  O2-  O205  1  0.44120548  0.21786683  0.50182606  1
  O2-  O206  1  0.43045521  0.55038849  0.02391325  1
  O2-  O207  1  0.43668277  0.56884250  0.53815763  1
  O2-  O208  1  0.43229063  0.87866840  0.03386758  1
  O2-  O209  1  0.41447656  0.87792133  0.54790928  1
  O2-  O210  1  0.80878699  0.20447335  0.01565167  1
  O2-  O211  1  0.77659659  0.21129266  0.53990769  1
  O2-  O212  1  0.75851512  0.54361080  0.02299931  1
  O2-  O213  1  0.77766861  0.54703197  0.53224310  1
  O2-  O214  1  0.76661173  0.90694712  0.03562104  1
  O2-  O215  1  0.77014828  0.86602118  0.52823682  1
