# generated using pymatgen
data_H2O
_symmetry_space_group_name_H-M   'P 1'
_cell_length_a   13.51241716
_cell_length_b   13.49693563
_cell_length_c   14.70224596
_cell_angle_alpha   90.00535217
_cell_angle_beta   89.98695973
_cell_angle_gamma   119.93897841
_symmetry_Int_Tables_number   1
_chemical_formula_structural   H2O
_chemical_formula_sum   'H144 O72'
_cell_volume   2323.53512536
_cell_formula_units_Z   72
loop_
 _symmetry_equiv_pos_site_id
 _symmetry_equiv_pos_as_xyz
  1  'x, y, z'
loop_
 _atom_type_symbol
 _atom_type_oxidation_number
  H+  1.0
  O2-  -2.0
loop_
 _atom_site_type_symbol
 _atom_site_label
 _atom_site_symmetry_multiplicity
 _atom_site_fract_x
 _atom_site_fract_y
 _atom_site_fract_z
 _atom_site_occupancy
  H+  H0  1  0.95888518  0.15915916  0.98752061  1
  H+  H1  1  0.49650236  0.64845660  0.76187151  1
  H+  H2  1  0.69801059  0.18497938  0.78123923  1
  H+  H3  1  0.66476809  0.14454192  0.26161421  1
  H+  H4  1  0.27916405  0.46700490  0.45258730  1
  H+  H5  1  0.96243377  0.80434016  0.48501409  1
  H+  H6  1  0.19625435  0.12119822  1.11166596  1
  H+  H7  1  -0.02507703  0.49309355  0.76170730  1
  H+  H8  1  0.13409185  0.96315705  0.46736172  1
  H+  H9  1  0.13199883  0.32190496  0.50035583  1
  H+  H10  1  0.63994333  0.47909857  0.78353557  1
  H+  H11  1  0.51239407  0.46689739  1.00647359  1
  H+  H12  1  1.02734047  0.84289966  0.77023238  1
  H+  H13  1  1.05624686  0.16926973  0.23453080  1
  H+  H14  1  0.54033051  0.75653291  0.46902613  1
  H+  H15  1  0.35134401  0.82369509  0.23632296  1
  H+  H16  1  0.38593430  0.51086904  0.23264381  1
  H+  H17  1  0.51124299  0.44744935  0.45949170  1
  H+  H18  1  0.52691198  0.34150834  0.47937178  1
  H+  H19  1  0.11462649  0.21666574  0.65901352  1
  H+  H20  1  0.82531770  0.65805452  0.20567885  1
  H+  H21  1  0.38272543  0.17055382  0.52579308  1
  H+  H22  1  0.63242863  0.82142729  -0.00213087  1
  H+  H23  1  0.70058586  0.85382234  0.74886912  1
  H+  H24  1  0.51444074  0.15119606  0.76858081  1
  H+  H25  1  0.88917436  0.50648241  0.90087473  1
  H+  H26  1  0.84154098  0.97442039  0.51506238  1
  H+  H27  1  0.16158120  0.82749638  0.77605973  1
  H+  H28  1  0.71911877  0.86992159  0.51447987  1
  H+  H29  1  0.54497389  0.87254887  0.47063053  1
  H+  H30  1  0.11639930  0.55067633  0.59033657  1
  H+  H31  1  0.17978687  0.80074083  0.26685331  1
  H+  H32  1  0.15200372  0.30383658  0.99265873  1
  H+  H33  1  -0.02907513  0.15561778  0.48026778  1
  H+  H34  1  0.33632182  0.82611543  0.51159873  1
  H+  H35  1  0.49284339  0.30667640  0.75278511  1
  H+  H36  1  0.85923505  0.02860169  0.25670912  1
  H+  H37  1  0.48918724  0.62775299  0.01243508  1
  H+  H38  1  0.37300560  0.18772991  0.74626160  1
  H+  H39  1  0.83424590  0.70195344  1.05431669  1
  H+  H40  1  0.84059005  0.16046148  -0.01975455  1
  H+  H41  1  0.66137741  0.19712613  0.25084433  1
  H+  H42  1  0.87025729  0.32009962  0.24696610  1
  H+  H43  1  0.88934569  0.17337203  0.25279915  1
  H+  H44  1  0.83263170  0.86082067  0.24314407  1
  H+  H45  1  0.84748066  0.80711334  0.49569032  1
  H+  H46  1  0.18292334  0.14477701  0.76572683  1
  H+  H47  1  0.02532234  0.83007269  0.03557648  1
  H+  H48  1  0.31162937  0.48412464  0.75097948  1
  H+  H49  1  0.81305239  0.52130561  0.75733611  1
  H+  H50  1  0.45590379  0.57095395  0.52358430  1
  H+  H51  1  0.35745116  0.17912643  0.04096198  1
  H+  H52  1  0.84153785  0.46514359  0.49787181  1
  H+  H53  1  0.09836952  0.22966572  0.08406452  1
  H+  H54  1  0.13268013  0.62271389  0.02974128  1
  H+  H55  1  0.81628286  0.27728856  0.50345484  1
  H+  H56  1  0.31638454  0.46677947  0.98716227  1
  H+  H57  1  0.19059448  0.13880055  0.27905572  1
  H+  H58  1  0.41042275  0.78629699  0.56707825  1
  H+  H59  1  0.84512360  1.13956488  0.47540404  1
  H+  H60  1  0.17055370  0.48416692  0.45989531  1
  H+  H61  1  0.51215302  0.82225625  0.77276619  1
  H+  H62  1  0.64639912  0.82817551  0.24114259  1
  H+  H63  1  0.78227460  0.25294414  -0.08782211  1
  H+  H64  1  0.70156608  0.49792554  0.49911184  1
  H+  H65  1  0.79028388  0.41892505  0.28616035  1
  H+  H66  1  0.09432091  0.54974084  0.16385683  1
  H+  H67  1  0.62979147  0.16043845  0.98693071  1
  H+  H68  1  0.15031573  0.96122570  0.76360811  1
  H+  H69  1  0.50742856  1.01035350  0.50705529  1
  H+  H70  1  0.81724947  0.97956575  0.00972490  1
  H+  H71  1  0.03674141  0.17731731  0.74809000  1
  H+  H72  1  1.01926693  0.50853641  0.25517631  1
  H+  H73  1  0.00527392  0.51822685  0.04534037  1
  H+  H74  1  0.85532610  0.03455645  0.76176324  1
  H+  H75  1  0.19293287  0.36435031  0.75300412  1
  H+  H76  1  0.44781453  0.99571409  0.26995770  1
  H+  H77  1  0.48033974  0.29992864  0.02542190  1
  H+  H78  1  0.81874558  0.86150739  0.01102367  1
  H+  H79  1  0.47936122  0.84359231  0.23049390  1
  H+  H80  1  0.18692324  0.14580666  0.43412389  1
  H+  H81  1  0.17860139  0.81275808  0.47712547  1
  H+  H82  1  0.18271974  0.46491516  0.22376513  1
  H+  H83  1  0.49945508  0.63110925  0.23647485  1
  H+  H84  1  0.17838298  0.81495026  1.00179389  1
  H+  H85  1  0.96142725  0.46565069  0.49486778  1
  H+  H86  1  0.47878363  0.96594548  0.01062319  1
  H+  H87  1  0.47064202  -0.02763532  0.76039848  1
  H+  H88  1  0.29764853  0.81499783  -0.00565033  1
  H+  H89  1  0.46083628  0.15625729  0.25698134  1
  H+  H90  1  0.17108024  0.28900503  0.22316727  1
  H+  H91  1  0.97195775  0.81968264  0.26795220  1
  H+  H92  1  0.12888822  0.91796056  0.56819164  1
  H+  H93  1  0.14456326  0.62831744  0.50133404  1
  H+  H94  1  0.15587419  0.95747194  0.26504783  1
  H+  H95  1  0.54029908  0.30375524  0.24158933  1
  H+  H96  1  0.45797614  0.22191700  0.15276452  1
  H+  H97  1  0.51117025  0.81579343  0.99603911  1
  H+  H98  1  0.85698707  0.37953397  0.78476111  1
  H+  H99  1  0.50661158  0.14827887  0.00287220  1
  H+  H100  1  0.80559918  0.63368555  0.76770933  1
  H+  H101  1  0.29378372  0.82547936  0.77767536  1
  H+  H102  1  0.15309393  0.63161711  0.73881543  1
  H+  H103  1  0.85181111  0.82549834  0.78132647  1
  H+  H104  1  0.81710965  0.61571305  0.50442134  1
  H+  H105  1  0.81748134  0.56065855  0.13691305  1
  H+  H106  1  0.52200654  0.13378067  0.50598908  1
  H+  H107  1  0.03931652  0.29284989  0.57450994  1
  H+  H108  1  0.61885406  0.42920845  0.33723150  1
  H+  H109  1  0.84131014  0.24706124  0.15429759  1
  H+  H110  1  0.51085227  0.57883410  0.68297399  1
  H+  H111  1  0.11557555  0.88215102  0.17239671  1
  H+  H112  1  0.22152400  0.76557052  0.39369139  1
  H+  H113  1  0.57303640  0.80166412  0.32914930  1
  H+  H114  1  0.86888018  0.41742137  0.36655959  1
  H+  H115  1  0.81132575  0.33236748  0.00111003  1
  H+  H116  1  0.54114731  0.10565535  0.86161999  1
  H+  H117  1  0.42111454  0.88984404  0.67316120  1
  H+  H118  1  0.46089537  0.22294937  0.61301001  1
  H+  H119  1  0.21389787  0.42939335  0.31414150  1
  H+  H120  1  0.89476774  0.11161933  0.85121400  1
  H+  H121  1  0.48763209  0.06869488  0.36286933  1
  H+  H122  1  0.16318855  0.14777586  1.02012469  1
  H+  H123  1  0.43420989  0.88217948  0.09685726  1
  H+  H124  1  0.45835416  0.55187358  0.10302769  1
  H+  H125  1  0.51929432  0.47492684  0.78997107  1
  H+  H126  1  0.15831590  0.51617583  0.73527335  1
  H+  H127  1  0.88573725  0.66468697  0.97827680  1
  H+  H128  1  0.22934039  0.11496436  0.85481013  1
  H+  H129  1  0.55202005  0.41939434  0.92316401  1
  H+  H130  1  0.78397215  0.88923523  0.66192923  1
  H+  H131  1  0.87945604  0.77108768  0.34760352  1
  H+  H132  1  0.88342845  0.78053123  0.87223125  1
  H+  H133  1  0.13599527  0.95785462  0.04024367  1
  H+  H134  1  0.24249374  0.43768860  0.89470656  1
  H+  H135  1  0.79643872  0.90538165  0.15276098  1
  H+  H136  1  0.17065233  0.67596746  0.26636887  1
  H+  H137  1  0.81974088  0.18932447  0.77824155  1
  H+  H138  1  0.90161839  0.10938087  0.35675925  1
  H+  H139  1  0.38214715  0.45252504  0.56886521  1
  H+  H140  1  0.55739401  0.78609951  0.86051823  1
  H+  H141  1  0.67305365  0.48349872  0.23803754  1
  H+  H142  1  0.21128881  0.77694071  0.87138543  1
  H+  H143  1  0.70068621  0.15604695  0.50033931  1
  O2-  O144  1  0.13441582  0.20415590  0.20970043  1
  O2-  O145  1  0.11863370  0.21384377  0.72599478  1
  O2-  O146  1  0.09892726  0.54593380  0.23363984  1
  O2-  O147  1  0.11693032  0.55502086  0.71111959  1
  O2-  O148  1  0.11389444  0.87812683  0.24035390  1
  O2-  O149  1  0.10898618  0.87781965  0.74714359  1
  O2-  O150  1  0.46770050  0.22934967  0.22349794  1
  O2-  O151  1  0.45306009  0.22714431  0.72428445  1
  O2-  O152  1  0.46736351  0.55123886  0.21543283  1
  O2-  O153  1  0.46523923  0.56811021  0.73722716  1
  O2-  O154  1  0.42999295  0.87570173  0.21170376  1
  O2-  O155  1  0.42362113  0.88889399  0.74028928  1
  O2-  O156  1  0.88434481  0.26331661  0.21084335  1
  O2-  O157  1  0.78125391  0.23371505  0.79309576  1
  O2-  O158  1  0.77654987  0.59866878  0.16058693  1
  O2-  O159  1  0.76229302  0.55379092  0.74702336  1
  O2-  O160  1  0.79670299  0.90707657  0.22094924  1
  O2-  O161  1  0.78221386  0.89055279  0.72984291  1
  O2-  O162  1  0.21369504  0.09297079  0.31887363  1
  O2-  O163  1  0.22449834  0.10467631  0.78889479  1
  O2-  O164  1  0.22377296  0.42652259  0.24732443  1
  O2-  O165  1  0.23031667  0.44689546  0.76930869  1
  O2-  O166  1  0.21995881  0.75902728  0.28669496  1
  O2-  O167  1  0.21081820  0.78163384  0.79950576  1
  O2-  O168  1  0.44326993  0.05607559  0.30609002  1
  O2-  O169  1  0.54604083  0.10353380  0.79316350  1
  O2-  O170  1  0.64540906  0.41510738  0.27782107  1
  O2-  O171  1  0.55589515  0.42923220  0.80370975  1
  O2-  O172  1  0.56591959  0.78709999  0.26308068  1
  O2-  O173  1  0.55645749  0.78521002  0.79154130  1
  O2-  O174  1  0.90739565  0.11092036  0.28331389  1
  O2-  O175  1  0.90032285  0.11558279  0.78310456  1
  O2-  O176  1  0.86168224  0.41761572  0.29794808  1
  O2-  O177  1  0.89940865  0.46441681  0.79099133  1
  O2-  O178  1  0.88797690  0.78309159  0.28016791  1
  O2-  O179  1  0.89407536  0.78778415  0.80582332  1
  O2-  O180  1  0.14230876  0.07396528  0.40049826  1
  O2-  O181  1  0.20280229  0.10762004  1.04692394  1
  O2-  O182  1  0.19924884  0.43490066  0.43227943  1
  O2-  O183  1  0.23894443  0.41992416  0.96008137  1
  O2-  O184  1  0.21824407  0.76900671  0.46328356  1
  O2-  O185  1  0.21628657  0.77574515  0.97193815  1
  O2-  O186  1  0.54899535  0.08484109  0.47647329  1
  O2-  O187  1  0.54598788  0.10919852  0.97535845  1
  O2-  O188  1  0.56155674  0.41601320  0.44678141  1
  O2-  O189  1  0.54383570  0.41593732  0.99045103  1
  O2-  O190  1  0.58842692  0.83574609  0.45004311  1
  O2-  O191  1  0.55397987  0.77802704  0.97258112  1
  O2-  O192  1  0.89463343  0.10416512  0.45226714  1
  O2-  O193  1  0.87681085  0.11299427  0.96723642  1
  O2-  O194  1  0.87999858  0.42010782  0.47671405  1
  O2-  O195  1  0.87152646  0.53840938  0.95602794  1
  O2-  O196  1  0.88113984  0.76434726  0.46624012  1
  O2-  O197  1  0.88420543  0.73529295  1.00031570  1
  O2-  O198  1  0.09497094  0.22247472  0.01730883  1
  O2-  O199  1  0.08180683  0.26032173  0.54540152  1
  O2-  O200  1  0.08906152  0.54781986  0.05923526  1
  O2-  O201  1  0.11125928  0.54744748  0.52252217  1
  O2-  O202  1  0.10723154  0.87570446  0.05439386  1
  O2-  O203  1  0.11510012  0.89374688  0.50472243  1
  O2-  O204  1  0.44072929  0.21584435  0.05242314  1
  O2-  O205  1  0.46249249  0.21427157  0.54444635  1
  O2-  O206  1  0.45190082  0.54779564  0.03440658  1
  O2-  O207  1  0.40738013  0.48995390  0.50976806  1
  O2-  O208  1  0.43647024  0.88338104  0.02837910  1
  O2-  O209  1  0.41304802  0.85616698  0.54589418  1
  O2-  O210  1  0.77736636  0.24896044  -0.02001706  1
  O2-  O211  1  0.78286912  0.19373243  0.51617673  1
  O2-  O212  1  0.86803989  0.46721960  0.03362931  1
  O2-  O213  1  0.78001802  0.53471179  0.52351785  1
  O2-  O214  1  0.78009810  0.90007321  0.03673942  1
  O2-  O215  1  0.79503029  0.89654476  0.54187686  1
