# generated using pymatgen
data_H2O
_symmetry_space_group_name_H-M   'P 1'
_cell_length_a   13.54747054
_cell_length_b   13.54764984
_cell_length_c   14.69871262
_cell_angle_alpha   89.90588121
_cell_angle_beta   90.05044354
_cell_angle_gamma   120.07101235
_symmetry_Int_Tables_number   1
_chemical_formula_structural   H2O
_chemical_formula_sum   'H144 O72'
_cell_volume   2334.64208634
_cell_formula_units_Z   72
loop_
 _symmetry_equiv_pos_site_id
 _symmetry_equiv_pos_as_xyz
  1  'x, y, z'
loop_
 _atom_type_symbol
 _atom_type_oxidation_number
  H+  1.0
  O2-  -2.0
loop_
 _atom_site_type_symbol
 _atom_site_label
 _atom_site_symmetry_multiplicity
 _atom_site_fract_x
 _atom_site_fract_y
 _atom_site_fract_z
 _atom_site_occupancy
  H+  H0  1  0.50858201  0.82739337  0.48537878  1
  H+  H1  1  0.16425301  0.63603475  0.51205450  1
  H+  H2  1  0.36406339  0.50036339  0.23158949  1
  H+  H3  1  0.31186275  0.50671946  0.51861320  1
  H+  H4  1  0.30037818  0.81315064  0.26287425  1
  H+  H5  1  0.54850490  0.06184422  0.98657191  1
  H+  H6  1  0.21333531  0.76989567  0.82162587  1
  H+  H7  1  0.70100695  0.19681556  0.00994838  1
  H+  H8  1  0.85172143  0.48909506  0.76948382  1
  H+  H9  1  0.91887255  0.16277022  0.89106968  1
  H+  H10  1  0.78135203  0.53845491  0.35237791  1
  H+  H11  1  0.14901762  0.64556309  -0.01951400  1
  H+  H12  1  0.49012784  0.53412856  0.00203780  1
  H+  H13  1  0.50739462  0.37159335  0.74946820  1
  H+  H14  1  0.53004256  0.83504223  -0.00649777  1
  H+  H15  1  0.13053093  0.23229307  0.60517797  1
  H+  H16  1  -0.01892420  0.80136610  0.49036827  1
  H+  H17  1  0.48247004  0.61796813  0.24060649  1
  H+  H18  1  0.83593678  0.49399420  0.47623261  1
  H+  H19  1  0.52080122  0.80703253  0.26250542  1
  H+  H20  1  0.48434561  0.84979069  0.72990704  1
  H+  H21  1  0.62544866  0.82397706  0.49340260  1
  H+  H22  1  0.19979982  0.82327468  1.01212953  1
  H+  H23  1  0.18013185  0.49386404  0.51179958  1
  H+  H24  1  0.27995152  0.76010553  -0.05857357  1
  H+  H25  1  0.80706424  -0.03177101  0.51243181  1
  H+  H26  1  0.70847779  0.47595740  0.47461788  1
  H+  H27  1  0.47782435  0.52591700  0.74983836  1
  H+  H28  1  0.03152602  0.84243687  0.25069607  1
  H+  H29  1  0.86956684  0.06018584  0.13895351  1
  H+  H30  1  0.45548717  0.57052038  1.09245488  1
  H+  H31  1  0.30928430  0.15736976  0.75361191  1
  H+  H32  1  0.97292752  0.49816114  0.98896648  1
  H+  H33  1  0.19107432  0.14837706  0.49226121  1
  H+  H34  1  0.19282323  0.37046607  0.51310982  1
  H+  H35  1  0.69377340  0.82306735  0.26331570  1
  H+  H36  1  0.76810829  0.55409670  0.84942407  1
  H+  H37  1  0.14956062  0.16516318  0.24801349  1
  H+  H38  1  0.71992322  0.87362486  0.03040790  1
  H+  H39  1  0.49660879  0.20509825  0.74449459  1
  H+  H40  1  0.85962749  0.16224144  0.74949952  1
  H+  H41  1  0.85354192  0.68884825  0.27736982  1
  H+  H42  1  0.18705908  0.69061978  0.25313886  1
  H+  H43  1  0.81672107  0.16830992  0.22001222  1
  H+  H44  1  0.36197945  0.84289935  0.72268549  1
  H+  H45  1  0.17346123  0.35622400  -0.01289330  1
  H+  H46  1  -0.00569786  0.48026513  0.48190435  1
  H+  H47  1  0.19335228  0.47835906  0.24065429  1
  H+  H48  1  0.86688702  0.36074242  0.25343431  1
  H+  H49  1  0.62553367  0.48947195  0.76830323  1
  H+  H50  1  0.05539252  0.19721530  0.51342016  1
  H+  H51  1  0.29777841  0.48999599  0.76928330  1
  H+  H52  1  0.51595394  0.32422472  0.47064305  1
  H+  H53  1  0.78211133  0.87489078  0.12168104  1
  H+  H54  1  0.02698032  0.51210005  0.73478869  1
  H+  H55  1  0.81729259  0.82647374  0.26527440  1
  H+  H56  1  0.68281258  0.50518319  -0.02774055  1
  H+  H57  1  0.84241897  0.82236004  0.76253186  1
  H+  H58  1  0.75918624  0.89480060  0.60301468  1
  H+  H59  1  0.52104923  0.71043352  0.77609000  1
  H+  H60  1  0.19759713  0.14794138  0.99112942  1
  H+  H61  1  0.42606647  0.21075574  0.13892015  1
  H+  H62  1  0.81870625  -0.02438246  0.74217036  1
  H+  H63  1  0.36281179  0.89350814  0.04186522  1
  H+  H64  1  0.35894158  0.16413658  0.50532533  1
  H+  H65  1  0.87974463  0.20840659  -0.02143817  1
  H+  H66  1  0.05007756  0.51969188  0.22591239  1
  H+  H67  1  0.36569634  0.17862278  0.00149351  1
  H+  H68  1  0.97561478  0.15729561  0.75130927  1
  H+  H69  1  0.85512469  0.37447231  0.98805626  1
  H+  H70  1  0.86230659  0.47585638  0.26860041  1
  H+  H71  1  0.84193754  0.70614579  -0.02682066  1
  H+  H72  1  0.47947340  0.16468720  0.51804738  1
  H+  H73  1  0.69893049  0.85827049  0.74755492  1
  H+  H74  1  0.55156908  0.45904033  0.47587890  1
  H+  H75  1  0.44698582  0.22346769  0.64863469  1
  H+  H76  1  0.02980120  0.15968600  0.22521126  1
  H+  H77  1  0.46948369  0.66814913  0.52225017  1
  H+  H78  1  0.84587818  0.30421008  0.49344128  1
  H+  H79  1  0.16371041  0.19097604  0.74155624  1
  H+  H80  1  0.52353417  0.02739354  0.51734158  1
  H+  H81  1  0.49379377  0.19325183  0.01202823  1
  H+  H82  1  0.87282166  0.15894636  0.48563136  1
  H+  H83  1  0.53841028  0.52213882  0.51528474  1
  H+  H84  1  0.80795183  0.51170290  0.97139349  1
  H+  H85  1  0.47482737  0.28607627  0.22770389  1
  H+  H86  1  0.15836302  0.30784486  0.73923466  1
  H+  H87  1  0.15969812  0.95931748  0.50612076  1
  H+  H88  1  0.18303344  1.04497153  0.75225959  1
  H+  H89  1  0.29822940  0.13827060  0.26052789  1
  H+  H90  1  0.72461184  0.18644952  0.50537617  1
  H+  H91  1  0.14889622  0.84213832  0.25358431  1
  H+  H92  1  0.83350331  0.31627512  0.73354502  1
  H+  H93  1  0.18668632  0.70486394  0.73014871  1
  H+  H94  1  0.70372151  0.18022556  0.21304218  1
  H+  H95  1  0.17974512  0.88065778  0.10244287  1
  H+  H96  1  0.70027535  0.49960879  0.26586765  1
  H+  H97  1  0.58291240  0.11983542  0.59247979  1
  H+  H98  1  0.51486994  0.47038636  0.24261368  1
  H+  H99  1  0.06364940  0.33331747  0.94156264  1
  H+  H100  1  0.50007445  0.35914862  -0.01208954  1
  H+  H101  1  0.05346675  0.19101574  0.01460205  1
  H+  H102  1  0.51670336  0.14806974  0.19881514  1
  H+  H103  1  0.47137846  0.92802511  0.31765533  1
  H+  H104  1  0.00736579  0.86771467  0.73376471  1
  H+  H105  1  0.12891065  0.51153050  0.00227259  1
  H+  H106  1  0.18643950  0.35762416  0.24872387  1
  H+  H107  1  0.36630980  0.85210760  0.50159703  1
  H+  H108  1  0.79940808  0.24309955  0.09145295  1
  H+  H109  1  0.89287037  0.79506583  0.85292587  1
  H+  H110  1  0.80025672  0.23824476  0.64358198  1
  H+  H111  1  0.18892918  0.80850252  0.49132391  1
  H+  H112  1  0.22240485  0.10319394  0.40109125  1
  H+  H113  1  0.86359895  0.68378320  0.48117611  1
  H+  H114  1  0.19694029  0.43070179  0.84557209  1
  H+  H115  1  0.49755452  0.98099625  0.21997371  1
  H+  H116  1  0.42624304  0.84735835  0.09791114  1
  H+  H117  1  0.14481067  0.50857058  0.73571998  1
  H+  H118  1  0.84019261  0.00333470  0.23220301  1
  H+  H119  1  0.11286393  0.88488729  0.59526834  1
  H+  H120  1  0.52931118  0.43475793  0.89638302  1
  H+  H121  1  0.89978005  0.77375482  0.36152845  1
  H+  H122  1  0.11314881  0.55294549  0.60337508  1
  H+  H123  1  0.53558740  0.72005920  0.99647542  1
  H+  H124  1  0.89837656  0.44660266  0.84953017  1
  H+  H125  1  0.23560326  0.11600011  0.89898192  1
  H+  H126  1  0.48053638  0.55518598  0.53602458  1
  H+  H127  1  0.43599397  0.58037276  0.67195579  1
  H+  H128  1  0.12680035  0.21271507  0.10596845  1
  H+  H129  1  0.92268560  0.43731704  0.38658505  1
  H+  H130  1  0.65507511  0.18920194  0.77260169  1
  H+  H131  1  0.22246585  0.76453106  0.40051964  1
  H+  H132  1  0.58643161  0.16858001  0.86557585  1
  H+  H133  1  0.18020223  0.01844672  0.26831024  1
  H+  H134  1  0.44281283  0.88207240  0.59471275  1
  H+  H135  1  0.56821882  0.12150208  0.11105979  1
  H+  H136  1  0.12402556  0.56826944  0.13488862  1
  H+  H137  1  0.81375692  0.64013838  0.76875136  1
  H+  H138  1  0.56978561  0.79868743  0.85858719  1
  H+  H139  1  0.54697099  0.41567752  0.32766287  1
  H+  H140  1  0.03862901  0.96727018  0.66553022  1
  H+  H141  1  0.54593294  0.76354520  0.35480850  1
  H+  H142  1  0.85685468  0.82819115  0.99492547  1
  H+  H143  1  0.91735166  0.11268585  0.40485710  1
  O2-  O144  1  0.11401920  0.20797514  0.22086589  1
  O2-  O145  1  0.12058873  0.22741320  0.71518555  1
  O2-  O146  1  0.13017983  0.56458324  0.20419302  1
  O2-  O147  1  0.10497661  0.54612963  0.70659933  1
  O2-  O148  1  0.11342700  0.88650753  0.23147858  1
  O2-  O149  1  0.07314886  0.92715741  0.69463042  1
  O2-  O150  1  0.42938841  0.20455055  0.20780244  1
  O2-  O151  1  0.44619753  0.23197526  0.71585858  1
  O2-  O152  1  0.44727442  0.54149849  0.21191255  1
  O2-  O153  1  0.43772584  0.57050253  0.73893782  1
  O2-  O154  1  0.46011981  0.90509991  0.25399039  1
  O2-  O155  1  0.44155695  0.87958834  0.69603001  1
  O2-  O156  1  0.78894076  0.22365460  0.21758031  1
  O2-  O157  1  0.79369734  0.23534527  0.71091606  1
  O2-  O158  1  0.78275010  0.53974669  0.28436480  1
  O2-  O159  1  0.77064491  0.55595209  0.78021246  1
  O2-  O160  1  0.77481519  0.86561599  0.24287858  1
  O2-  O161  1  0.77769008  0.89489929  0.72041855  1
  O2-  O162  1  0.22080299  0.10060017  0.28989090  1
  O2-  O163  1  0.22944346  0.12324123  0.77747678  1
  O2-  O164  1  0.23253454  0.43905712  0.26585371  1
  O2-  O165  1  0.21321821  0.44162689  0.77804566  1
  O2-  O166  1  0.22131340  0.76719763  0.28532735  1
  O2-  O167  1  0.22734470  0.78327437  0.75401313  1
  O2-  O168  1  0.56258725  0.11162217  0.17991775  1
  O2-  O169  1  0.57960500  0.16748062  0.79826161  1
  O2-  O170  1  0.55354933  0.42601155  0.26018318  1
  O2-  O171  1  0.54048184  0.44988725  0.77606827  1
  O2-  O172  1  0.55111587  0.75943844  0.28671935  1
  O2-  O173  1  0.56553931  0.79356527  0.79039597  1
  O2-  O174  1  0.87945310  0.08215402  0.20365325  1
  O2-  O175  1  0.89596771  0.11936564  0.77499141  1
  O2-  O176  1  0.91216591  0.44110771  0.27577927  1
  O2-  O177  1  0.89535554  0.44844652  0.78041243  1
  O2-  O178  1  0.89450097  0.77193635  0.29178398  1
  O2-  O179  1  0.88949970  0.78851416  0.78332902  1
  O2-  O180  1  0.22371354  0.10149529  0.47013609  1
  O2-  O181  1  0.24100154  0.11303526  0.96584578  1
  O2-  O182  1  0.22901620  0.45483693  0.49450952  1
  O2-  O183  1  0.14472817  0.39671935  0.94846843  1
  O2-  O184  1  0.22858826  0.76724593  0.46883202  1
  O2-  O185  1  0.19915499  0.73483892  0.93320636  1
  O2-  O186  1  0.57270669  0.11353523  0.52652532  1
  O2-  O187  1  0.58302830  0.14389703  0.99573700  1
  O2-  O188  1  0.56635822  0.40063239  0.44064103  1
  O2-  O189  1  0.53849271  0.43978994  0.96372468  1
  O2-  O190  1  0.54431450  0.78000025  0.46765735  1
  O2-  O191  1  0.57831561  0.80292842  0.97564332  1
  O2-  O192  1  0.91690071  0.11860823  0.47086335  1
  O2-  O193  1  0.94364980  0.19955913  0.95171573  1
  O2-  O194  1  0.91637604  0.43305808  0.45534334  1
  O2-  O195  1  0.89287857  0.45368081  0.96119940  1
  O2-  O196  1  0.90170536  0.76650206  0.46765383  1
  O2-  O197  1  0.89034393  0.78889580  0.96078407  1
  O2-  O198  1  0.13137142  0.21679715  0.03799057  1
  O2-  O199  1  0.13576953  0.23925879  0.53613422  1
  O2-  O200  1  0.10232039  0.56231925  0.02618704  1
  O2-  O201  1  0.12243266  0.55406964  0.53356309  1
  O2-  O202  1  0.23678603  0.88554514  0.05919567  1
  O2-  O203  1  0.12546369  0.87937005  0.52906009  1
  O2-  O204  1  0.44509807  0.22740047  0.02968445  1
  O2-  O205  1  0.43945179  0.20856071  0.52894908  1
  O2-  O206  1  0.46348387  0.58537234  0.02585021  1
  O2-  O207  1  0.42809784  0.58923873  0.55350360  1
  O2-  O208  1  0.43116826  0.88267655  0.03910691  1
  O2-  O209  1  0.44709061  0.89318465  0.52394223  1
  O2-  O210  1  0.79211984  0.24199038  0.02453593  1
  O2-  O211  1  0.80697423  0.22469450  0.52059322  1
  O2-  O212  1  0.76653970  0.55458190  -0.03965135  1
  O2-  O213  1  0.79105208  0.53412508  0.47377734  1
  O2-  O214  1  0.79672799  0.90447727  0.05826174  1
  O2-  O215  1  0.74730616  0.89432222  0.53601169  1
