# generated using pymatgen
data_H2O
_symmetry_space_group_name_H-M   'P 1'
_cell_length_a   13.51795501
_cell_length_b   13.50883185
_cell_length_c   14.68179548
_cell_angle_alpha   89.95132622
_cell_angle_beta   89.98898247
_cell_angle_gamma   119.95354095
_symmetry_Int_Tables_number   1
_chemical_formula_structural   H2O
_chemical_formula_sum   'H144 O72'
_cell_volume   2322.95851043
_cell_formula_units_Z   72
loop_
 _symmetry_equiv_pos_site_id
 _symmetry_equiv_pos_as_xyz
  1  'x, y, z'
loop_
 _atom_type_symbol
 _atom_type_oxidation_number
  H+  1.0
  O2-  -2.0
loop_
 _atom_site_type_symbol
 _atom_site_label
 _atom_site_symmetry_multiplicity
 _atom_site_fract_x
 _atom_site_fract_y
 _atom_site_fract_z
 _atom_site_occupancy
  H+  H0  1  0.22536677  0.09590915  0.36406858  1
  H+  H1  1  0.17302921  0.02291596  0.49461644  1
  H+  H2  1  0.24029918  0.45324501  0.39449597  1
  H+  H3  1  0.81623928  0.30806861  0.25094133  1
  H+  H4  1  0.49143045  0.18247451  0.23482243  1
  H+  H5  1  0.81170928  0.32426614  0.00338039  1
  H+  H6  1  0.43007928  0.87974267  0.59594111  1
  H+  H7  1  0.16114929  0.52879499  0.24442782  1
  H+  H8  1  0.19708331  0.65408900  0.99395837  1
  H+  H9  1  0.50571781  0.69752425  0.77103359  1
  H+  H10  1  0.48672610  0.97011177  0.72779391  1
  H+  H11  1  0.14352793  0.94303598  0.26863485  1
  H+  H12  1  0.16787102  0.46617481  0.02409595  1
  H+  H13  1  0.19719843  0.68673621  0.75029988  1
  H+  H14  1  0.52025907  0.82422878  0.25721840  1
  H+  H15  1  0.68202037  0.50771265  0.25188240  1
  H+  H16  1  0.80034164  0.48609353  0.74368021  1
  H+  H17  1  0.77154828  0.51239535  0.01778878  1
  H+  H18  1  0.52565964  0.44345388  0.32690445  1
  H+  H19  1  0.47723704  0.35864182  0.00598541  1
  H+  H20  1  0.31909589  0.83008509  0.26233738  1
  H+  H21  1  0.13491084  0.83900787  0.50422607  1
  H+  H22  1  0.11708150  0.56294186  0.57564799  1
  H+  H23  1  0.49015578  0.36732439  0.46804141  1
  H+  H24  1  0.84282808  0.95248794  0.18816288  1
  H+  H25  1  0.12623132  0.95606152  0.72832316  1
  H+  H26  1  0.18377303  0.45540630  0.80782324  1
  H+  H27  1  0.79492728  0.81061706  -0.02666947  1
  H+  H28  1  0.51518249  0.81948369  0.76506090  1
  H+  H29  1  0.83206074  0.65975267  0.51674252  1
  H+  H30  1  0.30772570  0.49529581  0.24215120  1
  H+  H31  1  0.01912634  0.47679196  -0.01378662  1
  H+  H32  1  0.68843059  0.84670762  0.75859968  1
  H+  H33  1  0.70862859  0.19589858  0.51954528  1
  H+  H34  1  0.36714684  0.52808309  0.51286714  1
  H+  H35  1  0.59683433  0.46181193  1.02162711  1
  H+  H36  1  0.01275752  0.83469674  0.72422491  1
  H+  H37  1  0.50320351  0.36344454  0.23977047  1
  H+  H38  1  0.52183433  0.00011135  0.47937890  1
  H+  H39  1  0.49836555  0.48830241  0.47428675  1
  H+  H40  1  0.99559492  0.88686409  1.00432300  1
  H+  H41  1  0.16473325  0.14687005  0.75591084  1
  H+  H42  1  -0.02152060  0.49369797  0.48504944  1
  H+  H43  1  0.93512770  0.52335352  0.96953088  1
  H+  H44  1  0.87442096  0.64983013  0.96916423  1
  H+  H45  1  0.16044853  0.64451551  0.23480041  1
  H+  H46  1  0.64289437  0.14860591  0.75376483  1
  H+  H47  1  0.85986323  0.81462705  0.27483355  1
  H+  H48  1  0.27661587  0.13787777  0.76906084  1
  H+  H49  1  0.68542359  0.49769573  0.75399236  1
  H+  H50  1  0.85210565  0.03513144  0.75698492  1
  H+  H51  1  0.48199604  0.51798541  0.20692506  1
  H+  H52  1  0.19385908  0.36921787  0.48200732  1
  H+  H53  1  0.49293502  -0.01938347  0.23721499  1
  H+  H54  1  0.19106882  0.81684786  0.27219753  1
  H+  H55  1  0.36286419  0.84647562  0.00953198  1
  H+  H56  1  0.78793716  0.96284046  0.04829830  1
  H+  H57  1  0.16647424  0.51546771  0.49368410  1
  H+  H58  1  0.15504105  0.29535080  0.74228099  1
  H+  H59  1  0.50207836  0.15053403  0.97786269  1
  H+  H60  1  0.51598270  0.70574579  0.25086436  1
  H+  H61  1  0.18877850  0.68322106  0.47713210  1
  H+  H62  1  0.29461779  0.14108174  0.49664713  1
  H+  H63  1  0.01075983  0.53085227  0.71275442  1
  H+  H64  1  0.14328731  0.22684626  0.21087438  1
  H+  H65  1  0.36925045  0.17130546  0.24056994  1
  H+  H66  1  0.68733254  0.87271532  0.49652256  1
  H+  H67  1  0.52440675  0.20006302  0.72752285  1
  H+  H68  1  0.35769184  0.51036326  0.75763001  1
  H+  H69  1  0.22550976  0.91624776  0.03550458  1
  H+  H70  1  0.02283273  0.87320888  -0.03459614  1
  H+  H71  1  0.97217953  0.49531605  0.26287682  1
  H+  H72  1  0.85576231  0.35705163  0.75485155  1
  H+  H73  1  0.83880054  0.52928655  0.51268724  1
  H+  H74  1  0.50487423  0.70064376  1.01860225  1
  H+  H75  1  0.01199371  0.19064878  0.21667944  1
  H+  H76  1  0.51093137  0.70651108  0.49074916  1
  H+  H77  1  0.82106687  0.18275977  0.73707398  1
  H+  H78  1  0.94478521  0.14386277  0.98118709  1
  H+  H79  1  0.18021794  0.11556250  0.27088074  1
  H+  H80  1  0.72003014  0.38801227  0.05971979  1
  H+  H81  1  0.68032197  0.84464307  0.05919930  1
  H+  H82  1  0.35063659  0.18459430  1.00591260  1
  H+  H83  1  0.80242925  0.84288682  0.73190677  1
  H+  H84  1  0.51695848  0.04106764  0.98334868  1
  H+  H85  1  0.79971898  0.86793687  0.51184018  1
  H+  H86  1  0.47833539  0.52109315  0.75354244  1
  H+  H87  1  0.11096852  0.23023297  0.58772305  1
  H+  H88  1  -0.04332004  0.81215511  0.49789987  1
  H+  H89  1  -0.02486277  0.15539262  0.45809081  1
  H+  H90  1  0.31305234  0.81369993  0.49124934  1
  H+  H91  1  0.18361976  1.05963048  0.00602684  1
  H+  H92  1  0.02606531  0.82261164  0.26415250  1
  H+  H93  1  0.15880525  0.20725955  0.00210407  1
  H+  H94  1  0.82207846  0.31778704  0.51721240  1
  H+  H95  1  0.14853939  0.73551071  0.97178187  1
  H+  H96  1  0.48237540  0.18862310  0.49621006  1
  H+  H97  1  0.83136970  0.68335503  0.27104230  1
  H+  H98  1  0.85255186  0.04106737  0.46021970  1
  H+  H99  1  0.46764266  0.83327344  0.50523513  1
  H+  H100  1  0.46795935  0.51623229  1.06551481  1
  H+  H101  1  0.37493309  0.84359040  0.73563512  1
  H+  H102  1  0.59120642  0.32015289  0.68013375  1
  H+  H103  1  0.51522013  0.37340211  0.78462525  1
  H+  H104  1  0.91927419  0.65658373  0.00369003  1
  H+  H105  1  0.64335767  0.16172076  0.25612041  1
  H+  H106  1  0.89098753  0.45555341  0.40282034  1
  H+  H107  1  0.15174040  0.18613493  0.50391689  1
  H+  H108  1  0.67917564  0.22163232  0.00521303  1
  H+  H109  1  0.18151847  0.38736723  0.24803996  1
  H+  H110  1  0.90464656  0.09639952  0.32898211  1
  H+  H111  1  0.78262697  0.23304708  0.65308965  1
  H+  H112  1  0.48325092  0.85513567  0.01360174  1
  H+  H113  1  0.11185159  0.26066708  0.08797653  1
  H+  H114  1  0.76777747  0.24478121  0.15794309  1
  H+  H115  1  0.44023139  0.56521382  0.60476357  1
  H+  H116  1  0.94632820  0.25187886  0.94997860  1
  H+  H117  1  0.75910670  0.52831389  0.16801144  1
  H+  H118  1  0.89596259  0.13027523  0.83474691  1
  H+  H119  1  0.56018606  0.10610954  0.34158120  1
  H+  H120  1  0.91727025  0.44582832  0.83784851  1
  H+  H121  1  0.19515060  0.11474004  0.90500997  1
  H+  H122  1  0.15481173  0.91621982  0.12108816  1
  H+  H123  1  0.55602660  0.11172065  0.83830960  1
  H+  H124  1  0.24422678  0.74040178  0.84882080  1
  H+  H125  1  0.54217440  0.44940579  0.87506745  1
  H+  H126  1  0.03183234  0.18430455  0.73039164  1
  H+  H127  1  0.54832830  0.76967460  0.92392019  1
  H+  H128  1  0.85049651  0.49114962  0.26868514  1
  H+  H129  1  0.44750873  0.89869943  0.14988252  1
  H+  H130  1  0.09592448  0.88100402  0.59391830  1
  H+  H131  1  0.83445871  0.66939850  0.74368550  1
  H+  H132  1  0.85394915  0.75557273  0.82372076  1
  H+  H133  1  0.86681573  0.76174598  0.41511008  1
  H+  H134  1  0.77266296  0.83132416  0.87208119  1
  H+  H135  1  0.78016515  0.55281946  0.60582481  1
  H+  H136  1  0.64352169  0.04910960  0.43680824  1
  H+  H137  1  0.21857820  0.39337693  0.88249723  1
  H+  H138  1  0.43153302  0.21128697  0.09323444  1
  H+  H139  1  0.54162654  0.77846803  0.39586037  1
  H+  H140  1  0.13267388  0.53170825  0.10319178  1
  H+  H141  1  0.05659968  0.65202290  0.66767462  1
  H+  H142  1  0.45737701  0.22913680  0.58988581  1
  H+  H143  1  0.23805143  0.77738909  0.38623513  1
  O2-  O144  1  0.09230753  0.25411230  0.19101754  1
  O2-  O145  1  0.11357501  0.22084980  0.70937213  1
  O2-  O146  1  0.11771168  0.56313794  0.21584026  1
  O2-  O147  1  0.07756897  0.59345355  0.67822677  1
  O2-  O148  1  0.10724515  0.86393962  0.24345126  1
  O2-  O149  1  0.09169387  0.88030667  0.69890386  1
  O2-  O150  1  0.44458023  0.21612219  0.21068657  1
  O2-  O151  1  0.51363751  0.26256924  0.69791611  1
  O2-  O152  1  0.44282434  0.56323799  0.18963371  1
  O2-  O153  1  0.43441708  0.55649274  0.72968839  1
  O2-  O154  1  0.44812258  0.89811646  0.21797398  1
  O2-  O155  1  0.45135484  0.89034625  0.70428607  1
  O2-  O156  1  0.77135927  0.23106624  0.22349931  1
  O2-  O157  1  0.78040028  0.22609024  0.72247121  1
  O2-  O158  1  0.76510401  0.54689681  0.23435073  1
  O2-  O159  1  0.75448759  0.51810921  0.71578288  1
  O2-  O160  1  0.90547414  0.98556032  0.23365829  1
  O2-  O161  1  0.77362350  0.89249564  0.75426350  1
  O2-  O162  1  0.22715204  0.08594397  0.29538340  1
  O2-  O163  1  0.19672982  0.10162987  0.78762909  1
  O2-  O164  1  0.23398892  0.46223167  0.27643611  1
  O2-  O165  1  0.22480119  0.41346853  0.81361953  1
  O2-  O166  1  0.24036958  0.78303035  0.29093655  1
  O2-  O167  1  0.25693624  0.75376232  0.78272720  1
  O2-  O168  1  0.55896080  0.11657981  0.27471757  1
  O2-  O169  1  0.55937559  0.11121536  0.77018394  1
  O2-  O170  1  0.53652120  0.44494929  0.25848434  1
  O2-  O171  1  0.55260384  0.45265138  0.80710931  1
  O2-  O172  1  0.55204141  0.77869833  0.28427478  1
  O2-  O173  1  0.54886946  0.77708465  0.79540057  1
  O2-  O174  1  0.90613647  0.09300904  0.25550512  1
  O2-  O175  1  0.89617797  0.11990456  0.76760489  1
  O2-  O176  1  0.89466048  0.45444669  0.29068063  1
  O2-  O177  1  0.89631699  0.44130535  0.77230642  1
  O2-  O178  1  0.87990068  0.76012084  0.30102283  1
  O2-  O179  1  0.87499603  0.75157532  0.75921249  1
  O2-  O180  1  0.21515538  0.10363704  0.47205103  1
  O2-  O181  1  0.20351888  0.13163396  0.97204129  1
  O2-  O182  1  0.23524986  0.45172440  0.46245796  1
  O2-  O183  1  0.20687403  0.37860262  0.98982560  1
  O2-  O184  1  0.22930504  0.76956827  0.45959917  1
  O2-  O185  1  0.21909828  0.73248593  0.96971689  1
  O2-  O186  1  0.58666478  0.07111994  0.45199898  1
  O2-  O187  1  0.55168161  0.11944656  0.95692092  1
  O2-  O188  1  0.52374787  0.44272907  0.43866644  1
  O2-  O189  1  0.52147305  0.44346649  0.99564889  1
  O2-  O190  1  0.54115258  0.78505658  0.46480835  1
  O2-  O191  1  0.54696928  0.77794388  0.99120737  1
  O2-  O192  1  0.90182992  0.11329769  0.42511397  1
  O2-  O193  1  0.89813353  0.16900791  0.94870588  1
  O2-  O194  1  0.89561207  0.46126199  0.47170315  1
  O2-  O195  1  0.94353530  0.45716036  0.95547375  1
  O2-  O196  1  0.87220135  0.76599363  0.48373823  1
  O2-  O197  1  0.77947033  0.77637840  0.91228005  1
  O2-  O198  1  0.12056338  0.25707783  0.01761796  1
  O2-  O199  1  0.11552103  0.23240719  0.51991276  1
  O2-  O200  1  0.13831593  0.52198061  0.03613435  1
  O2-  O201  1  0.12618293  0.56041637  0.50823562  1
  O2-  O202  1  0.20231853  0.96300353  0.06958036  1
  O2-  O203  1  0.09488477  0.87952273  0.52346615  1
  O2-  O204  1  0.43141913  0.21797373  0.02514927  1
  O2-  O205  1  0.43720283  0.21897694  0.52347561  1
  O2-  O206  1  0.44031699  0.56801205  0.08907682  1
  O2-  O207  1  0.44669244  0.57132479  0.53729048  1
  O2-  O208  1  0.44200718  0.89733229  0.03026440  1
  O2-  O209  1  0.42345263  0.87314672  0.52647573  1
  O2-  O210  1  0.74283896  0.28330710  0.04163351  1
  O2-  O211  1  0.78445822  0.24184964  0.54701841  1
  O2-  O212  1  0.71755143  0.46206356  0.06370668  1
  O2-  O213  1  0.79738156  0.56961912  0.53885530  1
  O2-  O214  1  0.76199888  0.88913342  0.07748024  1
  O2-  O215  1  0.76845499  0.91943405  0.51549287  1
