# generated using pymatgen
data_H2O
_symmetry_space_group_name_H-M   'P 1'
_cell_length_a   13.52305465
_cell_length_b   13.52895936
_cell_length_c   14.70297436
_cell_angle_alpha   89.99838651
_cell_angle_beta   89.97628342
_cell_angle_gamma   120.00223110
_symmetry_Int_Tables_number   1
_chemical_formula_structural   H2O
_chemical_formula_sum   'H144 O72'
_cell_volume   2329.51338165
_cell_formula_units_Z   72
loop_
 _symmetry_equiv_pos_site_id
 _symmetry_equiv_pos_as_xyz
  1  'x, y, z'
loop_
 _atom_type_symbol
 _atom_type_oxidation_number
  H+  1.0
  O2-  -2.0
loop_
 _atom_site_type_symbol
 _atom_site_label
 _atom_site_symmetry_multiplicity
 _atom_site_fract_x
 _atom_site_fract_y
 _atom_site_fract_z
 _atom_site_occupancy
  H+  H0  1  0.57228031  0.11061926  0.85965080  1
  H+  H1  1  0.16235408  0.14219282  0.23967668  1
  H+  H2  1  1.00440692  0.83069607  0.49701109  1
  H+  H3  1  0.15715179  0.51763890  0.21513181  1
  H+  H4  1  0.26514972  0.83112613  0.55514838  1
  H+  H5  1  0.50475251  0.83624062  0.24394594  1
  H+  H6  1  0.14025230  0.02313534  0.47607485  1
  H+  H7  1  0.92222707  0.13013082  0.48012383  1
  H+  H8  1  0.86411050  0.16018287  0.76460114  1
  H+  H9  1  0.84716717  0.49250675  -0.01327608  1
  H+  H10  1  0.20228974  0.50491249  0.52653028  1
  H+  H11  1  0.81857199  0.63551822  0.23425813  1
  H+  H12  1  0.50764373  0.85005225  0.74154109  1
  H+  H13  1  0.19969761  0.36735185  0.22018952  1
  H+  H14  1  0.16649520  0.68564875  0.24157388  1
  H+  H15  1  0.41967354  0.84785149  0.52331156  1
  H+  H16  1  0.88479463  0.90204200  0.26518499  1
  H+  H17  1  0.96667812  0.82480996  0.98654893  1
  H+  H18  1  0.52060486  1.03427905  0.24698615  1
  H+  H19  1  0.00646975  0.82995841  0.73183165  1
  H+  H20  1  0.03051041  0.50820308  0.50553377  1
  H+  H21  1  0.50860899  0.70572531  0.23946920  1
  H+  H22  1  0.71865166  0.19579580  0.01169181  1
  H+  H23  1  0.49856142  0.18807192  0.75239726  1
  H+  H24  1  0.51199736  0.97080572  0.74184764  1
  H+  H25  1  0.48021496  0.62913689  0.76606553  1
  H+  H26  1  0.48598370  0.53192138  0.01469196  1
  H+  H27  1  0.81861370  0.15444879  0.47803623  1
  H+  H28  1  0.36436190  0.85737169  0.22205345  1
  H+  H29  1  0.17729218  0.15532595  0.48119345  1
  H+  H30  1  0.14810915  0.51881000  0.00255367  1
  H+  H31  1  0.57252829  0.42562907  0.34560675  1
  H+  H32  1  0.64897989  0.15547147  0.76981309  1
  H+  H33  1  0.82971849  0.20938261  0.23222965  1
  H+  H34  1  0.52280816  0.35168556  0.48677323  1
  H+  H35  1  0.19660836  0.33096181  0.54825520  1
  H+  H36  1  0.64034032  0.15337452  0.25039579  1
  H+  H37  1  0.88961328  0.75336739  0.38680203  1
  H+  H38  1  0.00674321  0.83116452  0.23955731  1
  H+  H39  1  0.52817457  1.03478985  0.48913795  1
  H+  H40  1  0.84773569  0.81953362  0.75673653  1
  H+  H41  1  0.85480596  0.37595642  0.25076251  1
  H+  H42  1  0.77344192  0.54368128  0.59229181  1
  H+  H43  1  0.15143819  0.19087064  0.00246928  1
  H+  H44  1  0.53461113  0.34929737  0.24394733  1
  H+  H45  1  0.50356620  0.18778106  0.22673678  1
  H+  H46  1  0.52826271  0.13636926  1.01228749  1
  H+  H47  1  0.30098954  0.50196609  1.00467085  1
  H+  H48  1  0.01417864  0.50228824  0.74664145  1
  H+  H49  1  0.51788859  0.48011791  0.78686711  1
  H+  H50  1  0.12832554  0.84658109  1.01217606  1
  H+  H51  1  0.16293871  0.48074322  0.75696967  1
  H+  H52  1  -0.02315996  0.49057545  0.25012771  1
  H+  H53  1  0.85108069  0.06509282  0.24861428  1
  H+  H54  1  0.79685304  0.97552030  0.52228197  1
  H+  H55  1  0.48300087  0.64976314  1.00537870  1
  H+  H56  1  0.12954007  0.81688291  0.73327087  1
  H+  H57  1  0.82343343  -0.02594593  0.76046939  1
  H+  H58  1  0.38517247  0.54911464  0.22517785  1
  H+  H59  1  0.28920507  0.48258716  0.77376290  1
  H+  H60  1  0.51516957  0.37927454  1.00643600  1
  H+  H61  1  0.63823886  0.49573798  0.00678979  1
  H+  H62  1  0.82145245  0.64201105  0.00525296  1
  H+  H63  1  0.40287877  0.87644206  0.00748278  1
  H+  H64  1  0.50132761  0.30756227  0.75701318  1
  H+  H65  1  0.13813822  0.84874809  0.23557000  1
  H+  H66  1  0.55252536  0.10925846  0.39775365  1
  H+  H67  1  0.04596209  0.19817515  0.22259845  1
  H+  H68  1  0.85432976  0.47972154  0.48340059  1
  H+  H69  1  0.79445931  0.93116344  0.06787934  1
  H+  H70  1  0.56930488  0.45066760  0.87139784  1
  H+  H71  1  0.40503403  0.54029426  0.51607926  1
  H+  H72  1  0.55295857  0.83497595  0.47808249  1
  H+  H73  1  0.09459572  0.89007396  0.10261629  1
  H+  H74  1  0.20006012  0.16905212  0.77912137  1
  H+  H75  1  0.68793653  0.18703063  0.50654513  1
  H+  H76  1  0.31655340  0.16577517  0.77455694  1
  H+  H77  1  0.46600369  0.22254514  -0.05364970  1
  H+  H78  1  0.70014269  0.50134772  0.49964599  1
  H+  H79  1  0.14598474  0.00527626  0.24971876  1
  H+  H80  1  0.84289980  0.81047928  -0.01598731  1
  H+  H81  1  0.14655419  0.68013754  0.98305030  1
  H+  H82  1  0.63963361  0.80634193  0.76998597  1
  H+  H83  1  0.02216113  0.51232897  -0.00067659  1
  H+  H84  1  0.84307942  0.48174063  0.75880230  1
  H+  H85  1  0.88262158  0.44638281  0.85156125  1
  H+  H86  1  0.35315826  0.18108300  0.00218485  1
  H+  H87  1  0.15052002  0.68293222  0.75472263  1
  H+  H88  1  1.02640732  0.18689613  0.76431758  1
  H+  H89  1  0.69591897  0.51151402  0.74377026  1
  H+  H90  1  0.77622832  0.82608416  0.12291187  1
  H+  H91  1  0.65967268  0.48220620  0.25278231  1
  H+  H92  1  0.17806901  1.03672277  -0.00251054  1
  H+  H93  1  0.54244433  0.71281401  0.45727842  1
  H+  H94  1  0.84822181  0.37304397  0.98869726  1
  H+  H95  1  0.62681787  0.80700466  0.99630757  1
  H+  H96  1  0.25718597  0.80151755  0.97538103  1
  H+  H97  1  0.85212376  0.67545006  0.47861925  1
  H+  H98  1  0.81198287  0.62954509  0.73432828  1
  H+  H99  1  0.51821373  0.82721937  0.99605313  1
  H+  H100  1  0.22446571  0.11644953  0.90702775  1
  H+  H101  1  0.71174809  0.84707980  0.51927772  1
  H+  H102  1  0.82376431  0.30668680  0.74239442  1
  H+  H103  1  0.13723755  0.86676833  0.49762143  1
  H+  H104  1  0.53045161  0.47379961  0.46692895  1
  H+  H105  1  0.48353932  0.18643250  0.51515137  1
  H+  H106  1  0.86911770  0.08325379  0.98301563  1
  H+  H107  1  0.84780576  0.21431610  0.00267738  1
  H+  H108  1  0.47269376  0.23615931  0.13770326  1
  H+  H109  1  1.03415431  0.20195616  0.99978542  1
  H+  H110  1  0.77936986  0.90157041  0.66829729  1
  H+  H111  1  0.07154258  0.23495707  0.54174756  1
  H+  H112  1  0.17894198  0.76611428  0.84059155  1
  H+  H113  1  0.78230742  0.22678880  0.65393128  1
  H+  H114  1  0.54036766  1.02465927  0.00827602  1
  H+  H115  1  0.45328181  0.89385406  0.13117294  1
  H+  H116  1  0.89066306  0.13552904  0.33878688  1
  H+  H117  1  0.53051199  0.59759039  0.55984003  1
  H+  H118  1  0.90803560  0.14162492  0.86514696  1
  H+  H119  1  0.43184010  0.53231766  0.68940644  1
  H+  H120  1  0.78534519  0.56409980  0.09643141  1
  H+  H121  1  0.27565262  0.82018547  0.44905954  1
  H+  H122  1  0.89745369  0.44420563  0.39386808  1
  H+  H123  1  0.18679070  0.38044110  0.99789897  1
  H+  H124  1  0.81170398  0.30238774  0.50316909  1
  H+  H125  1  0.46092679  0.23773376  0.60498598  1
  H+  H126  1  0.09309671  0.54070463  0.65575036  1
  H+  H127  1  0.18328494  0.09665968  0.34306763  1
  H+  H128  1  0.89058000  0.77684785  0.84148990  1
  H+  H129  1  0.10676855  0.55573579  0.13192984  1
  H+  H130  1  0.14811900  0.62905030  0.51973669  1
  H+  H131  1  0.11918681  0.22764135  0.67852102  1
  H+  H132  1  0.46714591  0.59561750  0.14053624  1
  H+  H133  1  0.11915489  0.22605504  0.12828037  1
  H+  H134  1  0.56184362  0.80009334  0.33267532  1
  H+  H135  1  0.55577406  0.77200830  0.85604536  1
  H+  H136  1  0.24379960  0.46023184  0.44710091  1
  H+  H137  1  0.82629599  0.51955509  0.23560277  1
  H+  H138  1  0.08793428  0.87036462  0.63718708  1
  H+  H139  1  0.15206198  0.73639111  0.33179103  1
  H+  H140  1  0.24238342  0.44551911  0.30553700  1
  H+  H141  1  0.16205340  0.34673484  0.76475522  1
  H+  H142  1  0.50188474  0.90525893  0.60669373  1
  H+  H143  1  0.78997106  0.24506043  0.14188959  1
  O2-  O144  1  0.12473815  0.22717516  0.19949744  1
  O2-  O145  1  0.11375678  0.23400758  0.74539393  1
  O2-  O146  1  0.11219440  0.55548936  0.20082928  1
  O2-  O147  1  0.09649462  0.54177406  0.72354584  1
  O2-  O148  1  0.09488643  0.88746166  0.21782462  1
  O2-  O149  1  0.08824435  0.86346758  0.70592974  1
  O2-  O150  1  0.47438288  0.23886487  0.20441641  1
  O2-  O151  1  0.45945976  0.22961250  0.73024539  1
  O2-  O152  1  0.46675222  0.60057587  0.20991421  1
  O2-  O153  1  0.42954448  0.54298805  0.75468132  1
  O2-  O154  1  0.44537353  0.89590479  0.20538783  1
  O2-  O155  1  0.48066306  0.89678886  0.70936322  1
  O2-  O156  1  0.78283118  0.24250567  0.21087196  1
  O2-  O157  1  0.78704168  0.22552950  0.72124142  1
  O2-  O158  1  0.77820757  0.55193976  0.21294734  1
  O2-  O159  1  0.77243636  0.54857032  0.71353090  1
  O2-  O160  1  0.83719841  0.82827130  0.23570618  1
  O2-  O161  1  0.78173908  0.89432129  0.73633965  1
  O2-  O162  1  0.18763102  0.09125986  0.27217478  1
  O2-  O163  1  0.23811389  0.12738517  0.80060498  1
  O2-  O164  1  0.23840827  0.45020715  0.23986726  1
  O2-  O165  1  0.20348705  0.43852328  0.77976237  1
  O2-  O166  1  0.19418174  0.76067842  0.27468363  1
  O2-  O167  1  0.18119442  0.76441944  0.77266881  1
  O2-  O168  1  0.56016558  0.11295316  0.27368173  1
  O2-  O169  1  0.56850545  0.11380563  0.79238159  1
  O2-  O170  1  0.57629336  0.43159404  0.27590098  1
  O2-  O171  1  0.56626097  0.44700849  0.80299777  1
  O2-  O172  1  0.54995728  0.79638631  0.26409714  1
  O2-  O173  1  0.55719802  0.76220591  0.78802670  1
  O2-  O174  1  0.90421610  0.14150923  0.27103591  1
  O2-  O175  1  0.90535484  0.12443305  0.79312333  1
  O2-  O176  1  0.89841656  0.45547014  0.27683988  1
  O2-  O177  1  0.88501446  0.44369951  0.78267431  1
  O2-  O178  1  0.89286903  0.76350382  0.26785143  1
  O2-  O179  1  0.88669562  0.77474790  0.77323374  1
  O2-  O180  1  0.18101989  0.09735917  0.44330319  1
  O2-  O181  1  0.22199565  0.11765275  0.97664563  1
  O2-  O182  1  0.25499650  0.47350731  0.51242003  1
  O2-  O183  1  0.22118659  0.46258755  0.98196559  1
  O2-  O184  1  0.25838671  0.77861542  0.50664470  1
  O2-  O185  1  0.17667955  0.76207550  0.95895418  1
  O2-  O186  1  0.55372786  0.11306694  0.46544610  1
  O2-  O187  1  0.57568738  0.10795339  0.98536203  1
  O2-  O188  1  0.56739895  0.42856854  0.45190588  1
  O2-  O189  1  0.55685115  0.45949625  0.98499550  1
  O2-  O190  1  0.58321030  0.79430655  0.43947235  1
  O2-  O191  1  0.55153791  0.77895658  0.96775642  1
  O2-  O192  1  0.85169129  0.10858287  0.44781104  1
  O2-  O193  1  0.91451490  0.16142356  0.96148674  1
  O2-  O194  1  0.89706888  0.44090684  0.46218016  1
  O2-  O195  1  0.88753324  0.45311398  0.96216746  1
  O2-  O196  1  0.89595232  0.75496596  0.45465191  1
  O2-  O197  1  0.88879062  0.77875747  0.95799927  1
  O2-  O198  1  0.11584935  0.23462992  0.02726088  1
  O2-  O199  1  0.14617832  0.24788167  0.56046627  1
  O2-  O200  1  0.10313070  0.55869696  0.02159277  1
  O2-  O201  1  0.10759117  0.54751594  0.53708551  1
  O2-  O202  1  0.09641360  0.89444236  0.03433644  1
  O2-  O203  1  0.08529850  0.88710594  0.52692128  1
  O2-  O204  1  0.44077412  0.22335676  0.00854841  1
  O2-  O205  1  0.45664277  0.23798401  0.53754323  1
  O2-  O206  1  0.44526230  0.57209236  0.03563823  1
  O2-  O207  1  0.48796013  0.57351145  0.50286186  1
  O2-  O208  1  0.47421497  0.89820755  0.03868242  1
  O2-  O209  1  0.50005798  0.90331459  0.53591059  1
  O2-  O210  1  0.79934566  0.24710938  0.03137537  1
  O2-  O211  1  0.76944316  0.22278904  0.52794086  1
  O2-  O212  1  0.77914057  0.56175866  0.02847666  1
  O2-  O213  1  0.77969921  0.54236775  0.52472583  1
  O2-  O214  1  0.76208362  0.84885842  0.06227468  1
  O2-  O215  1  0.77715261  0.90439251  0.55457302  1
