# generated using pymatgen
data_H2O
_symmetry_space_group_name_H-M   'P 1'
_cell_length_a   13.49205910
_cell_length_b   13.47909467
_cell_length_c   14.67437235
_cell_angle_alpha   89.99572023
_cell_angle_beta   89.94928168
_cell_angle_gamma   120.01297609
_symmetry_Int_Tables_number   1
_chemical_formula_structural   H2O
_chemical_formula_sum   'H144 O72'
_cell_volume   2310.85170342
_cell_formula_units_Z   72
loop_
 _symmetry_equiv_pos_site_id
 _symmetry_equiv_pos_as_xyz
  1  'x, y, z'
loop_
 _atom_type_symbol
 _atom_type_oxidation_number
  H+  1.0
  O2-  -2.0
loop_
 _atom_site_type_symbol
 _atom_site_label
 _atom_site_symmetry_multiplicity
 _atom_site_fract_x
 _atom_site_fract_y
 _atom_site_fract_z
 _atom_site_occupancy
  H+  H0  1  0.18204425  1.03174379  -0.01757302  1
  H+  H1  1  0.70780536  0.52823427  0.74595661  1
  H+  H2  1  0.96845022  0.15106698  0.24755728  1
  H+  H3  1  0.19735435  0.02560979  0.46996134  1
  H+  H4  1  0.83465885  0.85067797  0.20130260  1
  H+  H5  1  0.82837616  0.96487415  0.21451122  1
  H+  H6  1  0.82428157  0.18869390  0.73708780  1
  H+  H7  1  0.35834869  0.52013495  1.01338709  1
  H+  H8  1  0.87117545  0.43527964  0.38821605  1
  H+  H9  1  0.84932800  0.15283763  0.48572477  1
  H+  H10  1  0.51780926  0.70046958  0.75622144  1
  H+  H11  1  0.64057891  0.14663181  0.74775661  1
  H+  H12  1  0.37643562  0.51207370  0.50335458  1
  H+  H13  1  0.50965329  0.13079514  0.51895494  1
  H+  H14  1  0.47417357  0.64452830  1.00865834  1
  H+  H15  1  0.02896589  0.52396842  0.23185159  1
  H+  H16  1  0.95802149  0.47671372  0.46907853  1
  H+  H17  1  0.62468798  0.50814339  0.99108783  1
  H+  H18  1  0.37567288  0.18366110  0.56607669  1
  H+  H19  1  0.48035327  0.84232706  0.73632416  1
  H+  H20  1  0.69738346  0.17939587  0.51315256  1
  H+  H21  1  0.37209756  0.51568788  0.73878821  1
  H+  H22  1  0.81680611  0.17377896  0.23475575  1
  H+  H23  1  0.85407128  0.83366736  0.51256590  1
  H+  H24  1  0.84769384  0.35638742  0.25135946  1
  H+  H25  1  0.49359893  0.81674464  0.25874918  1
  H+  H26  1  0.81275633  0.30036509  0.50365866  1
  H+  H27  1  0.48720950  0.52525365  0.23732570  1
  H+  H28  1  0.02555065  0.83686775  0.73727629  1
  H+  H29  1  0.15665126  0.84113611  0.73888945  1
  H+  H30  1  0.53513773  0.38229011  0.48554802  1
  H+  H31  1  0.36269747  0.85813538  0.23833594  1
  H+  H32  1  0.97483685  0.17016716  0.98441621  1
  H+  H33  1  0.81675041  0.30385026  0.00283781  1
  H+  H34  1  0.86093933  0.70157385  0.75270386  1
  H+  H35  1  0.81795155  0.85315763  0.74397233  1
  H+  H36  1  0.82694537  0.63268600  0.22240758  1
  H+  H37  1  0.18813449  0.03501803  0.75093249  1
  H+  H38  1  0.96386706  0.80250466  0.99150877  1
  H+  H39  1  0.69724375  0.85074842  0.74720977  1
  H+  H40  1  0.13776825  0.17200059  0.99427546  1
  H+  H41  1  0.51932038  0.14022581  0.74025719  1
  H+  H42  1  0.51704142  0.02122294  0.49789946  1
  H+  H43  1  0.11132789  0.21696133  0.64346312  1
  H+  H44  1  0.49771898  0.68864643  0.25592649  1
  H+  H45  1  0.63709461  0.14553229  0.26555403  1
  H+  H46  1  0.29961071  0.49417802  0.24419433  1
  H+  H47  1  0.84496022  0.17386728  -0.01541334  1
  H+  H48  1  0.49990887  0.52726410  0.50941984  1
  H+  H49  1  0.84825136  0.36592717  0.75746390  1
  H+  H50  1  0.51751523  0.69808444  0.48469632  1
  H+  H51  1  0.11788499  0.55604964  0.86690523  1
  H+  H52  1  0.29881285  0.36869851  0.40933835  1
  H+  H53  1  0.13800070  0.16360249  0.49447033  1
  H+  H54  1  0.37473450  0.19004578  0.28718740  1
  H+  H55  1  0.18681167  0.47753362  0.77210723  1
  H+  H56  1  0.19294611  0.70697182  0.98822320  1
  H+  H57  1  0.22822667  0.11230460  0.83994143  1
  H+  H58  1  0.88994903  0.44283617  0.89889773  1
  H+  H59  1  0.53598659  0.50002772  0.75499323  1
  H+  H60  1  0.15590364  0.18207542  0.73192794  1
  H+  H61  1  0.84714867  0.03352115  0.48912460  1
  H+  H62  1  0.19320637  0.33395210  0.47147990  1
  H+  H63  1  0.85163326  0.03461153  0.76325765  1
  H+  H64  1  0.82712565  0.64396044  0.51169641  1
  H+  H65  1  0.03654589  0.51691241  0.00587562  1
  H+  H66  1  0.18704220  0.70577974  0.77664503  1
  H+  H67  1  0.70120064  0.43443039  0.03237013  1
  H+  H68  1  0.11842512  0.56390188  0.09226789  1
  H+  H69  1  0.36717450  0.16826386  0.72093027  1
  H+  H70  1  0.15306221  0.84164308  0.51193957  1
  H+  H71  1  0.17616979  0.71978036  0.24836782  1
  H+  H72  1  0.03770654  0.85216242  0.52269160  1
  H+  H73  1  0.13696866  0.53648377  0.53034232  1
  H+  H74  1  0.82225259  0.52197472  0.50303472  1
  H+  H75  1  0.14824680  0.29631012  0.99966614  1
  H+  H76  1  0.79473939  0.82659179  0.98802529  1
  H+  H77  1  0.03061832  0.51675047  0.78630415  1
  H+  H78  1  0.69793209  0.84963440  0.51246360  1
  H+  H79  1  0.52383420  0.04205964  0.98109093  1
  H+  H80  1  0.02510600  0.17476962  0.49835385  1
  H+  H81  1  0.76739573  0.87801089  0.07497054  1
  H+  H82  1  0.69626333  0.18262559  -0.00589894  1
  H+  H83  1  0.22182732  0.79764667  0.38753110  1
  H+  H84  1  0.18700576  0.35989919  0.75345160  1
  H+  H85  1  0.18334450  0.47942980  -0.01276295  1
  H+  H86  1  0.14492735  0.50800385  0.42873286  1
  H+  H87  1  0.48789756  0.19006795  0.26132475  1
  H+  H88  1  0.17997342  0.84170117  0.25405896  1
  H+  H89  1  0.65276100  0.49987002  0.49049582  1
  H+  H90  1  0.14850774  0.84581326  0.01393657  1
  H+  H91  1  -0.00478187  0.83636256  0.24510710  1
  H+  H92  1  0.97321253  0.15213035  0.75731867  1
  H+  H93  1  0.51631036  0.37151460  0.26275541  1
  H+  H94  1  0.18065928  0.70080105  0.46211589  1
  H+  H95  1  0.70033996  0.51820651  0.23576201  1
  H+  H96  1  0.45002189  0.56023187  0.64920459  1
  H+  H97  1  0.17678815  1.02147105  0.32618950  1
  H+  H98  1  0.30662970  0.82386830  0.75493898  1
  H+  H99  1  0.85906476  0.48265314  0.99258079  1
  H+  H100  1  0.14025400  0.30292452  0.22248897  1
  H+  H101  1  0.36221298  0.84403946  0.50292572  1
  H+  H102  1  0.37282885  0.86464031  1.00950157  1
  H+  H103  1  0.47510708  0.30744261  0.98688876  1
  H+  H104  1  0.84900011  0.48692088  0.76019966  1
  H+  H105  1  0.62521849  0.80827707  0.98107734  1
  H+  H106  1  0.84874688  0.68266934  0.98054878  1
  H+  H107  1  0.51386870  0.81529152  0.48611415  1
  H+  H108  1  0.10096496  0.21510366  0.14107018  1
  H+  H109  1  0.88683420  0.10433021  0.33551453  1
  H+  H110  1  0.48793606  0.97024283  0.24707544  1
  H+  H111  1  0.22834873  0.43846847  0.90039064  1
  H+  H112  1  0.57071952  0.46633789  0.84731174  1
  H+  H113  1  0.43703142  0.87559501  0.59522154  1
  H+  H114  1  0.11518333  0.87863544  0.63755451  1
  H+  H115  1  0.44656516  0.56782044  0.14844438  1
  H+  H116  1  0.86370394  0.76573516  0.30298881  1
  H+  H117  1  0.48380427  0.19364476  0.98243129  1
  H+  H118  1  0.77058821  0.21205248  0.14885666  1
  H+  H119  1  0.45386542  0.90399073  0.09651028  1
  H+  H120  1  0.30032221  0.15238721  0.97531541  1
  H+  H121  1  0.77132842  0.89195972  0.60605335  1
  H+  H122  1  0.78508383  0.22788601  0.64731872  1
  H+  H123  1  0.54922368  0.77817595  0.84620649  1
  H+  H124  1  0.90442124  0.77924082  0.84263539  1
  H+  H125  1  0.55950281  0.10761494  0.35621954  1
  H+  H126  1  0.56576605  0.46366244  0.34195718  1
  H+  H127  1  0.22140816  0.43697749  0.32969832  1
  H+  H128  1  0.78579837  0.56094241  0.65469776  1
  H+  H129  1  0.10948104  0.97397344  0.20500457  1
  H+  H130  1  0.48495770  0.96322506  0.73170285  1
  H+  H131  1  0.56276977  0.11180371  0.88661592  1
  H+  H132  1  0.51208878  0.82132028  0.98576836  1
  H+  H133  1  0.53990458  0.77288584  0.35298581  1
  H+  H134  1  0.84352831  0.47390477  0.25025151  1
  H+  H135  1  0.91540677  0.81846258  0.42698150  1
  H+  H136  1  0.50377151  0.50058632  -0.00960932  1
  H+  H137  1  0.15057439  0.53194130  0.23324983  1
  H+  H138  1  0.18556144  0.59768744  0.63858370  1
  H+  H139  1  0.76898838  0.53036740  0.10672382  1
  H+  H140  1  0.14719309  0.62339480  0.63445704  1
  H+  H141  1  0.10445733  0.88039381  0.10237335  1
  H+  H142  1  0.23231272  0.79355164  0.90313406  1
  H+  H143  1  0.89135060  0.13002061  0.88936463  1
  O2-  O144  1  0.09993816  0.22039072  0.20826301  1
  O2-  O145  1  0.11221687  0.22005923  0.71138924  1
  O2-  O146  1  0.10961681  0.57132314  0.20972006  1
  O2-  O147  1  0.11512310  0.55893593  0.80051858  1
  O2-  O148  1  0.10145608  0.90997977  0.24167809  1
  O2-  O149  1  0.11073855  0.87742703  0.71172003  1
  O2-  O150  1  0.44678285  0.23302177  0.25293396  1
  O2-  O151  1  0.44095143  0.19571743  0.68641803  1
  O2-  O152  1  0.44620377  0.56693287  0.21762910  1
  O2-  O153  1  0.45264303  0.56194914  0.71694230  1
  O2-  O154  1  0.44523172  0.88980233  0.22135684  1
  O2-  O155  1  0.43820342  0.88088534  0.71210059  1
  O2-  O156  1  0.77419135  0.21479869  0.21626280  1
  O2-  O157  1  0.78337107  0.22869063  0.71576912  1
  O2-  O158  1  0.77897367  0.54672166  0.21018195  1
  O2-  O159  1  0.79112160  0.56630439  0.72220715  1
  O2-  O160  1  0.78965211  0.88823257  0.18572449  1
  O2-  O161  1  0.77839078  0.89448100  0.72357917  1
  O2-  O162  1  0.23295351  0.10117273  0.34834327  1
  O2-  O163  1  0.23153971  0.11526151  0.77107731  1
  O2-  O164  1  0.21815753  0.45646124  0.26496977  1
  O2-  O165  1  0.23107865  0.43781151  0.78171351  1
  O2-  O166  1  0.22104512  0.79963263  0.27212674  1
  O2-  O167  1  0.22638770  0.79136533  0.78085941  1
  O2-  O168  1  0.55645329  0.10406287  0.28867310  1
  O2-  O169  1  0.55899008  0.10194365  0.76840347  1
  O2-  O170  1  0.55954148  0.45774114  0.27463517  1
  O2-  O171  1  0.58215970  0.46791560  0.78031990  1
  O2-  O172  1  0.53102041  0.77045707  0.28314495  1
  O2-  O173  1  0.55651504  0.78207429  0.77765970  1
  O2-  O174  1  0.88563860  0.10680663  0.26812228  1
  O2-  O175  1  0.89386309  0.11693419  0.78314521  1
  O2-  O176  1  0.88710602  0.43738570  0.27446676  1
  O2-  O177  1  0.88680627  0.44453211  0.78522758  1
  O2-  O178  1  0.89646418  0.76785474  0.24366814  1
  O2-  O179  1  0.90762876  0.78434108  0.77406593  1
  O2-  O180  1  0.22205275  0.10422009  0.44827222  1
  O2-  O181  1  0.21674967  0.10898504  0.95470741  1
  O2-  O182  1  0.25597547  0.40195262  0.43692419  1
  O2-  O183  1  0.22332461  0.43717634  0.96858832  1
  O2-  O184  1  0.21908278  0.78516687  0.45563137  1
  O2-  O185  1  0.23015806  0.78953245  0.97092135  1
  O2-  O186  1  0.55432927  0.10471169  0.48279398  1
  O2-  O187  1  0.56685894  0.12086006  0.95446109  1
  O2-  O188  1  0.57124825  0.46230708  0.46663228  1
  O2-  O189  1  0.54745975  0.46418189  0.96515499  1
  O2-  O190  1  0.55658711  0.77827653  0.45970230  1
  O2-  O191  1  0.54093883  0.77163869  0.96099588  1
  O2-  O192  1  0.88933762  0.11200213  0.46291333  1
  O2-  O193  1  0.89262960  0.13725230  0.95901474  1
  O2-  O194  1  0.87493120  0.43995178  0.45698724  1
  O2-  O195  1  0.89883453  0.44304529  0.96719493  1
  O2-  O196  1  0.90157945  0.79819409  0.49132539  1
  O2-  O197  1  0.88937718  0.76158590  0.95784927  1
  O2-  O198  1  0.09815467  0.21364292  0.01669457  1
  O2-  O199  1  0.10693033  0.21067171  0.52038028  1
  O2-  O200  1  0.11946002  0.55981872  0.02370730  1
  O2-  O201  1  0.11472713  0.54474041  0.46846405  1
  O2-  O202  1  0.10246718  0.88098555  0.03514856  1
  O2-  O203  1  0.11959968  0.88579182  0.54273179  1
  O2-  O204  1  0.43455323  0.22486634  0.00172444  1
  O2-  O205  1  0.40118884  0.13639702  0.59799094  1
  O2-  O206  1  0.43832124  0.56536676  0.03713051  1
  O2-  O207  1  0.45371415  0.56309242  0.52892543  1
  O2-  O208  1  0.45463177  0.90525629  0.02882318  1
  O2-  O209  1  0.44166760  0.87760818  0.52674305  1
  O2-  O210  1  0.77649256  0.22121313  0.02151724  1
  O2-  O211  1  0.78030507  0.22212048  0.53052850  1
  O2-  O212  1  0.76046651  0.51500803  0.03730496  1
  O2-  O213  1  0.78370820  0.56232524  0.53041188  1
  O2-  O214  1  0.75388861  0.86638144  0.00719401  1
  O2-  O215  1  0.77700257  0.89103007  0.53782766  1
