# generated using pymatgen
data_H2O
_symmetry_space_group_name_H-M   'P 1'
_cell_length_a   13.49077165
_cell_length_b   13.48109076
_cell_length_c   14.69808432
_cell_angle_alpha   89.97926432
_cell_angle_beta   90.00410809
_cell_angle_gamma   119.98838154
_symmetry_Int_Tables_number   1
_chemical_formula_structural   H2O
_chemical_formula_sum   'H144 O72'
_cell_volume   2315.28251234
_cell_formula_units_Z   72
loop_
 _symmetry_equiv_pos_site_id
 _symmetry_equiv_pos_as_xyz
  1  'x, y, z'
loop_
 _atom_type_symbol
 _atom_type_oxidation_number
  H+  1.0
  O2-  -2.0
loop_
 _atom_site_type_symbol
 _atom_site_label
 _atom_site_symmetry_multiplicity
 _atom_site_fract_x
 _atom_site_fract_y
 _atom_site_fract_z
 _atom_site_occupancy
  H+  H0  1  0.50804503  0.85205021  0.74509498  1
  H+  H1  1  0.82465562  0.64700146  0.51020816  1
  H+  H2  1  0.36267997  0.20402134  0.24160594  1
  H+  H3  1  0.86656109  0.49233644  0.78667478  1
  H+  H4  1  1.02223659  0.85349955  0.71478707  1
  H+  H5  1  0.38392312  0.18110045  0.52478022  1
  H+  H6  1  0.16033562  0.69068475  0.99826671  1
  H+  H7  1  0.20874695  0.48573558  0.48980150  1
  H+  H8  1  0.46312298  0.60224721  0.08122445  1
  H+  H9  1  0.12499190  0.23065088  0.61863253  1
  H+  H10  1  0.37452310  0.19621696  1.00596458  1
  H+  H11  1  0.82493706  0.18317573  0.54163391  1
  H+  H12  1  0.68472512  0.49579903  0.74461806  1
  H+  H13  1  0.70205654  0.18728680  0.76010881  1
  H+  H14  1  0.50023655  0.18651540  0.75899550  1
  H+  H15  1  0.90589437  0.85713345  0.46843269  1
  H+  H16  1  0.64412034  0.15372688  1.00969787  1
  H+  H17  1  0.83449989  0.82540968  0.71676200  1
  H+  H18  1  0.13039312  0.84122311  0.74430141  1
  H+  H19  1  0.80185334  0.60319977  0.25925981  1
  H+  H20  1  0.83110808  0.45211158  0.24664626  1
  H+  H21  1  0.52800718  0.03011715  0.48925068  1
  H+  H22  1  0.67365265  0.79965806  0.22392184  1
  H+  H23  1  1.00307443  0.82950944  0.49277480  1
  H+  H24  1  0.19937374  0.36241354  0.49306813  1
  H+  H25  1  0.47155284  0.85675213  0.24335179  1
  H+  H26  1  0.14111480  0.30478681  0.23029042  1
  H+  H27  1  1.02068164  0.49018573  0.23248920  1
  H+  H28  1  0.18217075  0.18096629  0.26291153  1
  H+  H29  1  0.15852964  0.35845886  0.98051537  1
  H+  H30  1  0.11476416  0.23347439  0.08710019  1
  H+  H31  1  0.97572444  0.78627121  0.23202460  1
  H+  H32  1  0.20071717  0.16210817  0.51253936  1
  H+  H33  1  0.95460230  0.15039485  0.99801964  1
  H+  H34  1  0.17890428  0.66817476  0.75684882  1
  H+  H35  1  0.47718653  0.52499872  0.21693763  1
  H+  H36  1  0.34708479  0.83707566  1.01403426  1
  H+  H37  1  0.19651060  0.44390772  0.88118053  1
  H+  H38  1  0.22174231  0.83489984  0.50311996  1
  H+  H39  1  0.75262969  0.89575986  0.63350058  1
  H+  H40  1  0.35481560  0.51205762  0.21336901  1
  H+  H41  1  0.64028801  0.81778239  0.49287020  1
  H+  H42  1  0.17380570  0.47208066  0.25536380  1
  H+  H43  1  0.84699791  0.82318189  1.07012454  1
  H+  H44  1  0.81069645  0.28519898  0.17481093  1
  H+  H45  1  0.66224029  0.84165204  0.75797916  1
  H+  H46  1  0.80283630  0.29657491  0.52866242  1
  H+  H47  1  0.78686465  0.75035624  0.29022902  1
  H+  H48  1  0.49306814  0.03325616  0.26582604  1
  H+  H49  1  0.39853950  0.87569704  0.72621139  1
  H+  H50  1  0.11170680  0.89555712  0.09137968  1
  H+  H51  1  0.37173850  0.52059615  0.48855914  1
  H+  H52  1  0.13879508  0.85050573  0.00116200  1
  H+  H53  1  0.73958114  0.43836713  0.68680612  1
  H+  H54  1  0.39856987  0.86986234  0.51435459  1
  H+  H55  1  0.49195530  0.65008791  0.48546724  1
  H+  H56  1  0.50356360  0.37105721  0.25908498  1
  H+  H57  1  0.85819955  0.15623121  0.77239736  1
  H+  H58  1  0.79586699  0.96317010  0.76196677  1
  H+  H59  1  1.04452594  0.18511505  0.53243200  1
  H+  H60  1  0.52419105  0.38300024  -0.00208470  1
  H+  H61  1  0.19086133  0.03667691  0.75640245  1
  H+  H62  1  0.83425938  0.13475715  0.17580175  1
  H+  H63  1  0.02359554  0.18235806  0.21252740  1
  H+  H64  1  0.49467348  0.30338597  0.75278344  1
  H+  H65  1  0.17423842  0.98008404  0.51089608  1
  H+  H66  1  0.82694265  0.96186502  0.14668085  1
  H+  H67  1  0.01413452  0.50653412  0.02242301  1
  H+  H68  1  0.84066269  0.71213965  0.70917351  1
  H+  H69  1  0.83440952  0.35359221  0.02541151  1
  H+  H70  1  0.23362846  -0.04275572  0.28627066  1
  H+  H71  1  0.84048900  0.69337493  1.03879683  1
  H+  H72  1  0.16877303  0.48181035  0.75325604  1
  H+  H73  1  0.15208097  0.77366993  0.25221446  1
  H+  H74  1  0.84025218  0.16105945  0.00413438  1
  H+  H75  1  0.62955026  0.77452840  0.32709429  1
  H+  H76  1  0.18662180  0.04772394  0.98413556  1
  H+  H77  1  0.03638058  0.50427563  0.68627758  1
  H+  H78  1  0.49903359  0.15524653  0.26830533  1
  H+  H79  1  0.53175918  0.82772443  0.47543412  1
  H+  H80  1  0.62507291  0.48217691  0.25909082  1
  H+  H81  1  0.17804409  0.36551452  0.76644606  1
  H+  H82  1  0.87563926  0.43650439  0.93601518  1
  H+  H83  1  0.23666590  0.72419519  0.50616024  1
  H+  H84  1  0.53517547  0.50828399  0.99004018  1
  H+  H85  1  0.37699470  0.52264089  0.75818513  1
  H+  H86  1  0.27765820  0.79170681  0.25504070  1
  H+  H87  1  0.49179520  0.19376870  1.01335160  1
  H+  H88  1  0.52078363  0.49329875  0.76604438  1
  H+  H89  1  0.63436662  0.50625378  0.47872021  1
  H+  H90  1  0.98280354  0.49020724  0.80026474  1
  H+  H91  1  0.91405055  0.45758176  0.46231466  1
  H+  H92  1  0.15164277  0.19475720  -0.00405141  1
  H+  H93  1  0.96792525  0.82683298  1.02666542  1
  H+  H94  1  0.80399064  0.84698324  0.56472364  1
  H+  H95  1  0.31411014  0.15278662  0.75875915  1
  H+  H96  1  0.18416749  0.93745546  0.31903982  1
  H+  H97  1  0.82498575  0.30908227  0.76336175  1
  H+  H98  1  0.78170895  0.97758776  0.01484179  1
  H+  H99  1  0.03719340  0.18169658  0.75731092  1
  H+  H100  1  0.53957447  0.03692861  0.76888527  1
  H+  H101  1  0.70133543  0.52773185  0.01926321  1
  H+  H102  1  0.10287603  0.55607312  0.50596088  1
  H+  H103  1  0.49201845  0.64252164  0.75136016  1
  H+  H104  1  0.50390128  0.52343967  0.48303079  1
  H+  H105  1  0.15340468  0.48174680  -0.01491893  1
  H+  H106  1  0.51588160  0.15036449  0.49871261  1
  H+  H107  1  0.84242905  0.02630124  0.52991593  1
  H+  H108  1  0.88786302  0.11381452  0.86313594  1
  H+  H109  1  0.23159311  0.12434678  0.89492075  1
  H+  H110  1  0.53905729  0.77626201  0.84417893  1
  H+  H111  1  0.13061624  0.89769792  0.59783322  1
  H+  H112  1  0.10643994  0.54398043  0.10194236  1
  H+  H113  1  0.48946563  0.91272525  0.59755436  1
  H+  H114  1  0.15641535  0.56737661  0.60678661  1
  H+  H115  1  0.19373984  0.07188433  0.28227771  1
  H+  H116  1  0.29628539  0.73209775  0.80689113  1
  H+  H117  1  0.45383827  0.81797936  0.02065180  1
  H+  H118  1  0.54187331  0.10930803  0.39143385  1
  H+  H119  1  0.87875402  0.75037386  0.36008896  1
  H+  H120  1  0.01148460  0.72649381  0.15868821  1
  H+  H121  1  0.83522257  0.06566985  0.26177357  1
  H+  H122  1  0.80520768  0.46320017  0.48770014  1
  H+  H123  1  0.42938315  0.88490950  0.15183251  1
  H+  H124  1  0.57237552  0.11118345  0.86335999  1
  H+  H125  1  0.89367065  0.73549603  0.86512423  1
  H+  H126  1  0.76902075  0.56140198  0.59403034  1
  H+  H127  1  0.20284159  0.76139662  0.90629135  1
  H+  H128  1  0.22214826  0.43285410  0.34050452  1
  H+  H129  1  0.56630507  0.45387278  0.85288410  1
  H+  H130  1  0.15973950  0.18696929  0.75237082  1
  H+  H131  1  0.44276699  0.23299259  0.15233300  1
  H+  H132  1  0.78583893  0.23271547  0.63763381  1
  H+  H133  1  0.55210748  0.46232986  0.38780816  1
  H+  H134  1  0.13975045  0.61326732  0.23789387  1
  H+  H135  1  0.88355101  0.10659865  0.44258218  1
  H+  H136  1  0.76620742  0.53884660  0.16331413  1
  H+  H137  1  0.52401962  0.03471822  1.00363809  1
  H+  H138  1  0.59931740  0.77626258  1.00857666  1
  H+  H139  1  0.84506402  0.74757666  0.86424497  1
  H+  H140  1  0.81838994  0.52164942  0.02813324  1
  H+  H141  1  0.24240855  0.14054333  0.41806308  1
  H+  H142  1  0.85287140  0.37943586  0.31926587  1
  H+  H143  1  0.46346267  0.21087784  0.61270490  1
  O2-  O144  1  0.10757125  0.22534264  0.20249647  1
  O2-  O145  1  0.11701798  0.22643241  0.73268953  1
  O2-  O146  1  0.10185746  0.53171020  0.21218679  1
  O2-  O147  1  0.11678378  0.54667804  0.70335368  1
  O2-  O148  1  0.04174366  0.79760841  0.19312107  1
  O2-  O149  1  0.10844169  0.89247694  0.71499211  1
  O2-  O150  1  0.44297203  0.23506224  0.22030999  1
  O2-  O151  1  0.45752638  0.22197343  0.73171849  1
  O2-  O152  1  0.43207722  0.55475060  0.18618181  1
  O2-  O153  1  0.45685487  0.55820112  0.73772862  1
  O2-  O154  1  0.42701033  0.89012390  0.22019331  1
  O2-  O155  1  0.48076782  0.91111309  0.71526309  1
  O2-  O156  1  0.77515530  0.20779936  0.14633663  1
  O2-  O157  1  0.78407772  0.23239827  0.73349263  1
  O2-  O158  1  0.76419816  0.52517438  0.23022434  1
  O2-  O159  1  0.76060556  0.51258557  0.71360336  1
  O2-  O160  1  0.78552983  0.88324606  0.11748148  1
  O2-  O161  1  0.75171337  0.88655946  0.73379066  1
  O2-  O162  1  0.23053672  0.15385928  0.29517355  1
  O2-  O163  1  0.23241920  0.11666958  0.77952729  1
  O2-  O164  1  0.21596911  0.43105650  0.27292796  1
  O2-  O165  1  0.20958745  0.44611119  0.78878674  1
  O2-  O166  1  0.19727000  0.73881477  0.27274661  1
  O2-  O167  1  0.23055959  0.74122716  0.79247767  1
  O2-  O168  1  0.53185486  0.10982742  0.29518328  1
  O2-  O169  1  0.57703057  0.11736442  0.79518507  1
  O2-  O170  1  0.54461633  0.45301790  0.27961337  1
  O2-  O171  1  0.56218282  0.44939941  0.78526796  1
  O2-  O172  1  0.66829748  0.75589808  0.27891635  1
  O2-  O173  1  0.54733081  0.78311878  0.77807311  1
  O2-  O174  1  0.86987913  0.08903190  0.20173055  1
  O2-  O175  1  0.89539552  0.11382000  0.79516023  1
  O2-  O176  1  0.87064130  0.40605497  0.25631132  1
  O2-  O177  1  0.90005629  0.44792235  0.81349313  1
  O2-  O178  1  0.85366233  0.73643476  0.29551780  1
  O2-  O179  1  0.87995287  0.79197976  0.68956195  1
  O2-  O180  1  0.24146455  0.12504124  0.48414199  1
  O2-  O181  1  0.22920706  0.12835107  0.96312788  1
  O2-  O182  1  0.23806948  0.43771512  0.46096760  1
  O2-  O183  1  0.19169149  0.44015670  0.95577500  1
  O2-  O184  1  0.27261210  0.80485952  0.48564756  1
  O2-  O185  1  0.19889672  0.77069531  0.97343193  1
  O2-  O186  1  0.55626100  0.11171381  0.46331619  1
  O2-  O187  1  0.56470157  0.11445875  0.98117534  1
  O2-  O188  1  0.55411273  0.46987233  0.45696499  1
  O2-  O189  1  0.57222034  0.46295763  0.97426100  1
  O2-  O190  1  0.56959785  0.78349826  0.45528809  1
  O2-  O191  1  0.51876082  0.72884494  0.98746909  1
  O2-  O192  1  0.88450299  0.10985588  0.50890949  1
  O2-  O193  1  0.87300267  0.11231739  0.97894048  1
  O2-  O194  1  0.83123030  0.40881917  0.46670691  1
  O2-  O195  1  0.87473446  0.43996102  1.00322852  1
  O2-  O196  1  0.91975266  0.79281940  0.47215648  1
  O2-  O197  1  0.88024247  0.78272465  1.03256129  1
  O2-  O198  1  0.10834227  0.23225687  0.01885550  1
  O2-  O199  1  0.12591960  0.22778812  0.55008577  1
  O2-  O200  1  0.09962122  0.54822406  0.03340766  1
  O2-  O201  1  0.17510344  0.57787565  0.53611586  1
  O2-  O202  1  0.10429906  0.89728810  0.02461042  1
  O2-  O203  1  0.13347168  0.89763253  0.52994622  1
  O2-  O204  1  0.45315082  0.23716066  0.03226561  1
  O2-  O205  1  0.46373266  0.20796704  0.54497626  1
  O2-  O206  1  0.48485307  0.61105444  0.01406013  1
  O2-  O207  1  0.45487274  0.56769702  0.50779122  1
  O2-  O208  1  0.42652044  0.87131406  0.03787533  1
  O2-  O209  1  0.48474476  0.91189545  0.52918578  1
  O2-  O210  1  0.78027969  0.22896781  0.04668817  1
  O2-  O211  1  0.78392876  0.22456444  0.56463741  1
  O2-  O212  1  0.78020953  0.56653250  0.04822204  1
  O2-  O213  1  0.77325395  0.56532758  0.52659690  1
  O2-  O214  1  0.72322034  0.90177423  0.04328609  1
  O2-  O215  1  0.76724602  0.89382987  0.56285615  1
