# generated using pymatgen
data_H2O
_symmetry_space_group_name_H-M   'P 1'
_cell_length_a   13.52913578
_cell_length_b   13.52001220
_cell_length_c   14.69353372
_cell_angle_alpha   89.94363425
_cell_angle_beta   90.04521641
_cell_angle_gamma   120.03987796
_symmetry_Int_Tables_number   1
_chemical_formula_structural   H2O
_chemical_formula_sum   'H144 O72'
_cell_volume   2326.63969257
_cell_formula_units_Z   72
loop_
 _symmetry_equiv_pos_site_id
 _symmetry_equiv_pos_as_xyz
  1  'x, y, z'
loop_
 _atom_type_symbol
 _atom_type_oxidation_number
  H+  1.0
  O2-  -2.0
loop_
 _atom_site_type_symbol
 _atom_site_label
 _atom_site_symmetry_multiplicity
 _atom_site_fract_x
 _atom_site_fract_y
 _atom_site_fract_z
 _atom_site_occupancy
  H+  H0  1  0.84050171  0.69485528  0.99365940  1
  H+  H1  1  0.95658897  0.49328755  0.99489811  1
  H+  H2  1  0.19382456  0.82591118  1.00703614  1
  H+  H3  1  0.47198877  0.50537222  0.23912329  1
  H+  H4  1  0.12341807  0.21859641  0.02807486  1
  H+  H5  1  0.14029082  0.62882479  0.23222766  1
  H+  H6  1  0.80403806  0.95897154  0.50130268  1
  H+  H7  1  0.43938607  0.55903250  0.10105547  1
  H+  H8  1  0.48395894  0.84989299  0.74124160  1
  H+  H9  1  0.49026917  0.96612019  0.00381391  1
  H+  H10  1  0.93076685  0.16606185  0.79259473  1
  H+  H11  1  0.12375298  0.50206160  0.74325484  1
  H+  H12  1  0.83908887  0.81088282  0.47499911  1
  H+  H13  1  0.48324057  0.96781847  0.72311809  1
  H+  H14  1  0.69428585  0.23711970  0.06914417  1
  H+  H15  1  0.21358493  0.41983189  0.48536667  1
  H+  H16  1  0.12552350  0.63220277  0.51946458  1
  H+  H17  1  0.35923815  0.15916775  -0.03592569  1
  H+  H18  1  0.29646566  0.48408077  0.75655167  1
  H+  H19  1  0.09801762  0.86349662  0.12740864  1
  H+  H20  1  0.96360010  0.80455618  1.00493183  1
  H+  H21  1  0.81707745  0.64218007  0.74914679  1
  H+  H22  1  0.63747861  0.12707695  0.95281674  1
  H+  H23  1  1.07643880  0.53541263  0.65676281  1
  H+  H24  1  0.36056583  0.53211084  1.01145528  1
  H+  H25  1  0.62630199  0.49588534  0.25986805  1
  H+  H26  1  0.35716649  0.14205842  1.01307879  1
  H+  H27  1  0.53769630  0.09482178  0.40833304  1
  H+  H28  1  0.21329531  0.76052502  0.40827679  1
  H+  H29  1  0.37632453  0.18039788  0.24509239  1
  H+  H30  1  0.71403675  0.19776799  0.26348468  1
  H+  H31  1  0.44299762  0.86043786  0.24764571  1
  H+  H32  1  0.32757596  0.53021529  0.47745014  1
  H+  H33  1  0.69818720  0.52765604  0.74337128  1
  H+  H34  1  0.52936405  0.70828626  0.99884780  1
  H+  H35  1  0.31182516  0.83555982  0.76985343  1
  H+  H36  1  0.18419536  0.14703577  0.26043427  1
  H+  H37  1  0.62094932  0.48193035  0.40687069  1
  H+  H38  1  0.86640771  0.89160361  0.73525339  1
  H+  H39  1  0.41503383  1.03734459  0.44920275  1
  H+  H40  1  0.19221469  0.13876634  0.70457791  1
  H+  H41  1  0.37334295  0.85030882  0.01934052  1
  H+  H42  1  0.13752567  0.83112992  0.49944518  1
  H+  H43  1  0.14913197  0.94984504  0.70576102  1
  H+  H44  1  -0.03030402  0.81758691  0.75918624  1
  H+  H45  1  0.82517146  0.14588010  0.49336996  1
  H+  H46  1  0.53376521  0.15883201  0.27414596  1
  H+  H47  1  0.01028834  0.84747527  0.25098271  1
  H+  H48  1  0.81882110  0.14009230  1.02493827  1
  H+  H49  1  0.53978778  0.11048618  0.81970449  1
  H+  H50  1  0.25839602  0.80331102  0.26003496  1
  H+  H51  1  0.16826292  0.39038439  0.99529930  1
  H+  H52  1  0.82904199  0.85525080  1.02354848  1
  H+  H53  1  0.81017835  0.29372582  0.49830509  1
  H+  H54  1  -0.04681549  0.80371893  0.46693150  1
  H+  H55  1  -0.02970824  0.16842756  0.27665462  1
  H+  H56  1  0.74514278  0.56089929  0.14904399  1
  H+  H57  1  0.71051004  0.85098643  0.03230108  1
  H+  H58  1  0.47396656  0.20181703  0.49466524  1
  H+  H59  1  0.38242046  0.20275887  0.71095385  1
  H+  H60  1  0.77773200  0.48939932  0.46011949  1
  H+  H61  1  0.81541039  0.31696017  0.02583324  1
  H+  H62  1  0.13425624  -0.05325698  0.89296514  1
  H+  H63  1  0.17348116  0.12849830  0.47819294  1
  H+  H64  1  0.15084832  0.31198866  0.25431718  1
  H+  H65  1  0.51778496  0.38024549  0.74794208  1
  H+  H66  1  0.23086633  0.47383852  0.33789768  1
  H+  H67  1  0.79957709  0.31480795  0.74392029  1
  H+  H68  1  0.47298796  0.50686169  0.49370109  1
  H+  H69  1  0.47256233  0.51769827  0.73694798  1
  H+  H70  1  0.50580807  0.70171955  0.76356674  1
  H+  H71  1  0.53402000  0.82721967  0.99932383  1
  H+  H72  1  0.84453042  0.18091815  0.26758344  1
  H+  H73  1  0.55657951  0.78157464  0.85035848  1
  H+  H74  1  0.78391550  0.60990801  0.45674130  1
  H+  H75  1  0.18704242  0.82083921  0.76579595  1
  H+  H76  1  0.13985052  0.79220011  0.27374613  1
  H+  H77  1  0.23583483  0.79877136  0.91104615  1
  H+  H78  1  0.15415370  0.65584733  1.00807117  1
  H+  H79  1  0.55036204  0.04908388  0.26478252  1
  H+  H80  1  0.29869791  0.80059758  0.49499318  1
  H+  H81  1  0.62813910  0.15991098  0.73737551  1
  H+  H82  1  0.30775968  0.49305772  0.24919363  1
  H+  H83  1  0.50027916  0.63588668  0.50337250  1
  H+  H84  1  0.64176992  0.80585933  0.49411199  1
  H+  H85  1  0.17724412  0.12104624  1.04468935  1
  H+  H86  1  0.93412215  0.47220630  0.49021172  1
  H+  H87  1  0.59035732  0.32516798  0.05785383  1
  H+  H88  1  0.00033726  0.20350909  0.02908567  1
  H+  H89  1  0.14941629  0.53409915  0.00048246  1
  H+  H90  1  0.48039261  0.37517986  0.97436126  1
  H+  H91  1  0.79879156  0.51121027  0.01071182  1
  H+  H92  1  0.13151472  0.52174206  0.50932764  1
  H+  H93  1  0.18013628  0.36466538  0.76559720  1
  H+  H94  1  0.14107096  0.95707447  0.05442404  1
  H+  H95  1  0.51919661  0.79928978  0.49068569  1
  H+  H96  1  0.47520859  0.93927403  0.50953551  1
  H+  H97  1  0.14567482  0.09208698  0.08836013  1
  H+  H98  1  0.83711439  0.02971264  1.02125171  1
  H+  H99  1  0.93707447  0.12970792  0.48794380  1
  H+  H100  1  0.68201761  0.51646776  1.00241858  1
  H+  H101  1  0.50107492  0.49964935  0.98861921  1
  H+  H102  1  0.29970135  0.14696397  0.48515974  1
  H+  H103  1  0.83417008  0.48905331  0.77380072  1
  H+  H104  1  0.54110331  0.14810426  -0.01527170  1
  H+  H105  1  0.48705392  0.63028543  0.24062762  1
  H+  H106  1  0.06929199  0.13118234  0.78871049  1
  H+  H107  1  0.10865030  0.25540054  0.44432735  1
  H+  H108  1  0.86954137  0.78814928  0.33619728  1
  H+  H109  1  0.57091867  0.81732453  0.25451127  1
  H+  H110  1  0.22402929  0.10300596  0.34586062  1
  H+  H111  1  0.48791468  0.90710146  0.14857408  1
  H+  H112  1  0.16812284  0.52000428  0.22312529  1
  H+  H113  1  0.48979001  0.30244941  0.25980573  1
  H+  H114  1  0.43986646  0.86376002  0.59925302  1
  H+  H115  1  0.78000292  0.64943487  0.23147870  1
  H+  H116  1  0.13788474  0.94887566  0.49752790  1
  H+  H117  1  0.13876589  0.95831366  0.25402520  1
  H+  H118  1  0.13197294  0.05075211  0.93638121  1
  H+  H119  1  0.82163298  0.86904733  0.18092911  1
  H+  H120  1  0.57006618  0.75838960  0.34835592  1
  H+  H121  1  0.52107591  0.23249143  0.13309124  1
  H+  H122  1  0.11375217  0.24959990  0.55155907  1
  H+  H123  1  0.44317627  0.24842243  0.58037572  1
  H+  H124  1  0.77893321  0.22702180  0.59371160  1
  H+  H125  1  0.43242799  0.55430658  0.64803938  1
  H+  H126  1  0.89455606  0.79079231  0.85087913  1
  H+  H127  1  0.50004572  0.20588663  0.71492851  1
  H+  H128  1  0.79497084  0.24209421  0.17367938  1
  H+  H129  1  0.82502555  0.98393893  0.73901852  1
  H+  H130  1  0.79564307  0.19553769  0.75113528  1
  H+  H131  1  0.08731018  0.85401581  0.63399225  1
  H+  H132  1  0.87427049  0.11476210  0.36148571  1
  H+  H133  1  0.09333058  0.23195964  0.17089406  1
  H+  H134  1  0.54580541  0.45577758  0.83951036  1
  H+  H135  1  -0.00640817  0.08240955  0.70358180  1
  H+  H136  1  0.85294975  0.11652498  0.87963669  1
  H+  H137  1  0.79674297  0.89566105  0.59302715  1
  H+  H138  1  0.88964554  0.44068526  0.38758676  1
  H+  H139  1  0.21939055  0.08723672  0.78854883  1
  H+  H140  1  0.94684049  0.47632111  0.77062289  1
  H+  H141  1  0.87415222  0.44415183  0.90714772  1
  H+  H142  1  0.21858478  0.45879522  0.90147346  1
  H+  H143  1  0.12333162  0.56806209  0.12193390  1
  O2-  O144  1  0.10437748  0.22911315  0.23746425  1
  O2-  O145  1  0.06090067  0.15461662  0.72750897  1
  O2-  O146  1  0.12891552  0.56123217  0.19504879  1
  O2-  O147  1  0.07366372  0.53150889  0.72430325  1
  O2-  O148  1  0.09347786  0.87523245  0.23729634  1
  O2-  O149  1  0.09812695  0.86622250  0.70131428  1
  O2-  O150  1  0.46030881  0.22291632  0.23497623  1
  O2-  O151  1  0.46488997  0.25306993  0.69653600  1
  O2-  O152  1  0.43688165  0.55003313  0.21440954  1
  O2-  O153  1  0.42676414  0.55344244  0.71542139  1
  O2-  O154  1  0.51063689  0.91633095  0.21491398  1
  O2-  O155  1  0.44102511  0.88411637  0.71056945  1
  O2-  O156  1  0.79539740  0.23460749  0.24108551  1
  O2-  O157  1  0.76326305  0.23574218  0.71639317  1
  O2-  O158  1  0.73671690  0.56726587  0.21562451  1
  O2-  O159  1  0.78084194  0.56094941  0.73125544  1
  O2-  O160  1  0.84594082  0.88244306  0.24584712  1
  O2-  O161  1  0.86332132  0.95416318  0.69992607  1
  O2-  O162  1  0.22274435  0.10360243  0.27718652  1
  O2-  O163  1  0.24061756  0.10699704  0.72367128  1
  O2-  O164  1  0.22520149  0.45852264  0.27101394  1
  O2-  O165  1  0.21789264  0.44388584  0.78596965  1
  O2-  O166  1  0.18433009  0.75161188  0.28698600  1
  O2-  O167  1  0.24233108  0.81567732  0.80650865  1
  O2-  O168  1  0.57948688  0.12388495  0.29634387  1
  O2-  O169  1  0.54354116  0.11457888  0.75257533  1
  O2-  O170  1  0.54175478  0.44045156  0.28347278  1
  O2-  O171  1  0.54943929  0.46002556  0.77230033  1
  O2-  O172  1  0.57254392  0.75159943  0.28100088  1
  O2-  O173  1  0.54777054  0.78238487  0.78365032  1
  O2-  O174  1  0.88669623  0.13007472  0.29257769  1
  O2-  O175  1  0.85079310  0.12186472  0.81190699  1
  O2-  O176  1  0.94492871  0.47808839  0.29951032  1
  O2-  O177  1  0.86738088  0.44081200  0.79767652  1
  O2-  O178  1  0.87353379  0.79236309  0.26560790  1
  O2-  O179  1  0.89187389  0.79385045  0.78343664  1
  O2-  O180  1  0.21911267  0.09332134  0.46029966  1
  O2-  O181  1  0.12669751  0.01324884  0.87836887  1
  O2-  O182  1  0.24531727  0.49360753  0.45526128  1
  O2-  O183  1  0.21772440  0.46793499  0.96924990  1
  O2-  O184  1  0.21711320  0.76854985  0.47534171  1
  O2-  O185  1  0.23389277  0.78799112  0.98056417  1
  O2-  O186  1  0.49479982  0.07137488  0.46732487  1
  O2-  O187  1  0.55542867  0.09719827  0.94498906  1
  O2-  O188  1  0.53977789  0.45808610  0.38233206  1
  O2-  O189  1  0.53732385  0.45487560  0.96321769  1
  O2-  O190  1  0.56266208  0.76251622  0.46756344  1
  O2-  O191  1  0.57716721  0.78930628  0.97919743  1
  O2-  O192  1  0.85820833  0.09601135  0.46544839  1
  O2-  O193  1  0.86568919  0.11018235  0.99804264  1
  O2-  O194  1  0.86230990  0.42648425  0.45595312  1
  O2-  O195  1  0.87545075  0.44613684  0.97685020  1
  O2-  O196  1  0.87481765  0.77255576  0.44111192  1
  O2-  O197  1  0.88870018  0.77669798  0.97498417  1
  O2-  O198  1  0.08193402  0.25619353  0.04914056  1
  O2-  O199  1  0.09400654  0.20424272  0.49593003  1
  O2-  O200  1  0.10996584  0.57295337  0.02944449  1
  O2-  O201  1  0.08386822  0.54984200  0.53669955  1
  O2-  O202  1  0.10689296  0.87411039  0.05886586  1
  O2-  O203  1  0.09087475  0.86714246  0.51590809  1
  O2-  O204  1  0.56720088  0.24700995  0.07558307  1
  O2-  O205  1  0.42686679  0.23468108  0.51388996  1
  O2-  O206  1  0.44103993  0.56513209  0.03248342  1
  O2-  O207  1  0.44660989  0.55398299  0.52427859  1
  O2-  O208  1  0.45587513  0.89233937  0.03761245  1
  O2-  O209  1  0.43939354  0.85849844  0.53041936  1
  O2-  O210  1  0.76776679  0.23985474  0.05603099  1
  O2-  O211  1  0.77904589  0.21625928  0.52703841  1
  O2-  O212  1  0.75859978  0.55272032  0.03117892  1
  O2-  O213  1  0.73057740  0.52732542  0.46346524  1
  O2-  O214  1  0.79119742  0.89276289  0.05525235  1
  O2-  O215  1  0.77709712  0.88097505  0.52731307  1
