# generated using pymatgen
data_H2O
_symmetry_space_group_name_H-M   'P 1'
_cell_length_a   13.52093508
_cell_length_b   13.53221881
_cell_length_c   14.68857736
_cell_angle_alpha   89.97058386
_cell_angle_beta   90.04907454
_cell_angle_gamma   119.97682888
_symmetry_Int_Tables_number   1
_chemical_formula_structural   H2O
_chemical_formula_sum   'H144 O72'
_cell_volume   2328.02317334
_cell_formula_units_Z   72
loop_
 _symmetry_equiv_pos_site_id
 _symmetry_equiv_pos_as_xyz
  1  'x, y, z'
loop_
 _atom_type_symbol
 _atom_type_oxidation_number
  H+  1.0
  O2-  -2.0
loop_
 _atom_site_type_symbol
 _atom_site_label
 _atom_site_symmetry_multiplicity
 _atom_site_fract_x
 _atom_site_fract_y
 _atom_site_fract_z
 _atom_site_occupancy
  H+  H0  1  0.30426947  0.15690530  0.25563175  1
  H+  H1  1  0.23914486  0.52025676  0.45772842  1
  H+  H2  1  0.82131528  0.31723558  0.51401646  1
  H+  H3  1  0.24167814  0.36353626  0.80087019  1
  H+  H4  1  0.64434163  0.84034859  0.25861137  1
  H+  H5  1  0.48634171  0.51101148  0.74524410  1
  H+  H6  1  0.68825309  0.52369664  0.00733582  1
  H+  H7  1  0.84293989  0.03119106  0.97983349  1
  H+  H8  1  0.61293125  0.81226956  0.48976720  1
  H+  H9  1  0.10835003  0.33377381  0.70975182  1
  H+  H10  1  0.94138061  0.16170526  0.74521324  1
  H+  H11  1  0.14298731  0.50622062  0.24161727  1
  H+  H12  1  0.62174828  0.81268748  0.75896476  1
  H+  H13  1  0.84604493  0.70369062  0.99096927  1
  H+  H14  1  0.14203525  0.62432090  0.24621766  1
  H+  H15  1  0.79593685  0.91985695  0.52015631  1
  H+  H16  1  0.80377007  0.65353904  0.48887897  1
  H+  H17  1  0.18881639  0.81821311  0.24545541  1
  H+  H18  1  0.77444211  0.25217925  0.02472567  1
  H+  H19  1  0.46844007  0.82598037  1.00847109  1
  H+  H20  1  0.30180441  0.81049584  0.25127119  1
  H+  H21  1  0.16905949  0.69980553  0.75682627  1
  H+  H22  1  0.61274214  0.12199289  0.76037215  1
  H+  H23  1  0.81442064  0.84790505  0.00647527  1
  H+  H24  1  0.63189038  0.81515646  0.98505045  1
  H+  H25  1  0.13593131  0.84045991  0.73802259  1
  H+  H26  1  0.85372858  0.40642608  0.95885714  1
  H+  H27  1  0.29697963  0.81739152  0.99087348  1
  H+  H28  1  0.80197393  0.27716436  0.23328048  1
  H+  H29  1  0.00660683  0.19385174  0.47427675  1
  H+  H30  1  0.80452704  0.49792667  0.51683901  1
  H+  H31  1  0.50057487  0.52095254  0.50764112  1
  H+  H32  1  0.48329027  0.29968109  0.24484060  1
  H+  H33  1  0.51354522  0.84149618  0.24899703  1
  H+  H34  1  0.81011979  0.84485782  0.74429492  1
  H+  H35  1  0.81510411  0.63313670  0.24603275  1
  H+  H36  1  0.32005695  0.12624724  0.75884900  1
  H+  H37  1  0.62436717  0.13815253  0.24791883  1
  H+  H38  1  0.16095003  0.69365868  0.48980643  1
  H+  H39  1  0.51326340  0.18590040  0.73933379  1
  H+  H40  1  0.16033087  -0.01837298  0.51528797  1
  H+  H41  1  -0.03199606  0.50125167  0.49832352  1
  H+  H42  1  0.18311465  0.32745894  0.49005977  1
  H+  H43  1  0.47523039  0.62814279  0.73298799  1
  H+  H44  1  0.78533499  0.62811108  0.72993612  1
  H+  H45  1  0.48298714  0.31717083  0.01407080  1
  H+  H46  1  0.50704587  0.14276543  0.24811302  1
  H+  H47  1  0.88302441  0.77884157  0.84386590  1
  H+  H48  1  0.50401886  0.38289071  0.77246963  1
  H+  H49  1  0.31198448  0.16366061  0.49011222  1
  H+  H50  1  0.78215288  0.14875917  0.73524721  1
  H+  H51  1  0.19110294  0.51576733  0.98597292  1
  H+  H52  1  0.45769533  0.83531042  0.51672025  1
  H+  H53  1  0.17198831  0.20261943  0.49793007  1
  H+  H54  1  0.18664960  0.03808660  0.25546614  1
  H+  H55  1  0.11264666  0.51572563  0.52269545  1
  H+  H56  1  0.80267006  0.84851411  0.24804401  1
  H+  H57  1  0.95960530  0.49796818  0.74786068  1
  H+  H58  1  0.23169247  0.12158045  0.40075045  1
  H+  H59  1  0.82736656  0.20427152  0.50394546  1
  H+  H60  1  0.51035807  0.36591471  0.48788041  1
  H+  H61  1  0.34428169  0.50286124  0.48158026  1
  H+  H62  1  0.50469742  0.69280705  0.47876403  1
  H+  H63  1  0.50062212  0.80934845  0.76017277  1
  H+  H64  1  0.02815510  0.17864594  0.23403893  1
  H+  H65  1  0.34781556  0.83630989  0.74838590  1
  H+  H66  1  0.14415108  0.14734151  0.78356146  1
  H+  H67  1  0.47997222  0.95080282  0.00757911  1
  H+  H68  1  0.94918708  0.84611625  0.30494882  1
  H+  H69  1  0.14805475  0.18072040  0.23657531  1
  H+  H70  1  0.48921740  0.01224839  0.76559458  1
  H+  H71  1  -0.04035262  0.81759810  0.75365523  1
  H+  H72  1  0.36617824  0.52473389  0.00559890  1
  H+  H73  1  0.96658595  0.82156666  0.98775759  1
  H+  H74  1  0.89295149  0.08770385  0.50330072  1
  H+  H75  1  1.02961586  0.53445943  1.01604711  1
  H+  H76  1  0.83933388  0.47003330  0.25962941  1
  H+  H77  1  0.64208437  0.17509688  0.48052386  1
  H+  H78  1  0.69639604  0.51547060  0.24423855  1
  H+  H79  1  0.19924972  0.01006038  0.76229535  1
  H+  H80  1  0.34087017  0.83582906  0.51910921  1
  H+  H81  1  0.49206906  0.19690114  0.49927471  1
  H+  H82  1  0.20743418  0.77514969  0.85022844  1
  H+  H83  1  0.83378767  0.14324165  0.99345182  1
  H+  H84  1  0.84071153  0.14434762  0.25211423  1
  H+  H85  1  1.02061385  0.16720146  0.99960996  1
  H+  H86  1  0.78955100  0.76426173  0.49867110  1
  H+  H87  1  0.84360028  0.51268961  -0.00374634  1
  H+  H88  1  0.36594037  0.19710328  0.01687039  1
  H+  H89  1  0.31755904  0.47880668  0.74749250  1
  H+  H90  1  0.77139156  0.88721415  0.09373684  1
  H+  H91  1  0.84741215  0.75771356  0.36663735  1
  H+  H92  1  0.80897012  0.96451733  0.74125686  1
  H+  H93  1  0.11092305  0.17245551  0.76177111  1
  H+  H94  1  0.55902756  0.12764974  0.39346325  1
  H+  H95  1  0.04040311  0.83239154  0.21545296  1
  H+  H96  1  0.51767510  0.47884407  0.25352810  1
  H+  H97  1  0.54929262  0.77089861  0.89686455  1
  H+  H98  1  0.81374219  0.97282795  0.24118386  1
  H+  H99  1  0.17824918  0.35773731  0.24678094  1
  H+  H100  1  0.17558363  0.70432845  0.99670435  1
  H+  H101  1  0.63252743  0.10770760  1.00047973  1
  H+  H102  1  0.48297473  0.96640961  0.22729758  1
  H+  H103  1  0.48809376  0.63646883  0.00740264  1
  H+  H104  1  0.15285319  -0.02387127  1.00421427  1
  H+  H105  1  0.51850512  0.49237519  0.98931252  1
  H+  H106  1  0.36748836  0.49915357  0.22812222  1
  H+  H107  1  0.45490991  0.55753954  0.59827075  1
  H+  H108  1  0.17578779  0.14110267  0.98683515  1
  H+  H109  1  0.21197861  0.77532489  0.40081915  1
  H+  H110  1  0.10618428  0.55977184  0.10574019  1
  H+  H111  1  0.44518777  0.87764172  0.13901630  1
  H+  H112  1  0.11971864  0.89672891  0.13235789  1
  H+  H113  1  0.23500884  0.10268006  0.90745851  1
  H+  H114  1  0.15196656  0.86004808  0.51140121  1
  H+  H115  1  0.07562539  0.25688422  0.62272464  1
  H+  H116  1  0.89341677  0.11730485  0.34126659  1
  H+  H117  1  0.87968381  0.11148613  0.84363052  1
  H+  H118  1  0.46108089  0.23345540  0.59390684  1
  H+  H119  1  0.44060847  0.23052789  0.15097091  1
  H+  H120  1  0.89181705  0.49200300  0.83396608  1
  H+  H121  1  0.13759798  0.53093776  0.71987623  1
  H+  H122  1  0.76214999  0.18941038  0.14206571  1
  H+  H123  1  0.88358907  0.44388114  0.40846932  1
  H+  H124  1  0.59018772  0.31111425  0.70394991  1
  H+  H125  1  0.63384293  0.47831768  0.48959073  1
  H+  H126  1  0.55841553  0.44569915  0.34694754  1
  H+  H127  1  0.23710871  0.44182857  0.33182670  1
  H+  H128  1  0.55189106  0.08096610  0.90958637  1
  H+  H129  1  0.74839174  0.86435517  0.61792679  1
  H+  H130  1  0.74885441  0.19749443  0.64834108  1
  H+  H131  1  0.45075634  0.54309291  0.14388569  1
  H+  H132  1  0.10568613  0.89022834  0.64833658  1
  H+  H133  1  0.55640984  0.45981532  0.89564580  1
  H+  H134  1  0.10172670  0.20619533  0.08688860  1
  H+  H135  1  0.42389416  0.87177892  0.65734045  1
  H+  H136  1  0.76673781  0.56133761  0.09999532  1
  H+  H137  1  0.14986543  0.85439118  0.00307895  1
  H+  H138  1  0.95495786  0.46716331  0.26176367  1
  H+  H139  1  0.55229893  0.79385383  0.34958262  1
  H+  H140  1  0.23244875  0.47799449  0.89703146  1
  H+  H141  1  0.09655611  0.57764871  0.63267617  1
  H+  H142  1  0.65672711  0.52024636  0.73903808  1
  H+  H143  1  0.74985942  0.53775437  0.60246028  1
  O2-  O144  1  0.10862813  0.22084466  0.21196167  1
  O2-  O145  1  0.04244205  0.27242198  0.67695924  1
  O2-  O146  1  0.09869072  0.54442773  0.22338302  1
  O2-  O147  1  0.10384252  0.57773199  0.70484250  1
  O2-  O148  1  0.11904918  0.89033515  0.20241127  1
  O2-  O149  1  0.09863670  0.88461832  0.71738954  1
  O2-  O150  1  0.43831314  0.22028467  0.22036910  1
  O2-  O151  1  0.51013113  0.25115731  0.70683337  1
  O2-  O152  1  0.44924137  0.53570260  0.21171587  1
  O2-  O153  1  0.44108883  0.54907534  0.70872477  1
  O2-  O154  1  0.44923703  0.88325167  0.20935195  1
  O2-  O155  1  0.42877248  0.87348617  0.72647908  1
  O2-  O156  1  0.76365193  0.19557004  0.21584900  1
  O2-  O157  1  0.72998686  0.17502232  0.71282674  1
  O2-  O158  1  0.77750846  0.55569808  0.21993635  1
  O2-  O159  1  0.73148813  0.55386625  0.70286431  1
  O2-  O160  1  0.76609786  0.89040871  0.22092857  1
  O2-  O161  1  0.76605780  0.88238874  0.72107701  1
  O2-  O162  1  0.22301823  0.11658128  0.27984381  1
  O2-  O163  1  0.25468477  0.07964596  0.79731450  1
  O2-  O164  1  0.22025178  0.44015494  0.26595588  1
  O2-  O165  1  0.23774202  0.42833926  0.77612677  1
  O2-  O166  1  0.22214940  0.77477133  0.27426935  1
  O2-  O167  1  0.21016465  0.77975408  0.78242981  1
  O2-  O168  1  0.54276800  0.09739736  0.26943049  1
  O2-  O169  1  0.53394704  0.09223218  0.78880538  1
  O2-  O170  1  0.56280451  0.44302171  0.27909640  1
  O2-  O171  1  0.54028950  0.46295978  0.79096464  1
  O2-  O172  1  0.56074430  0.80451731  0.28039060  1
  O2-  O173  1  0.54178564  0.76851364  0.78144412  1
  O2-  O174  1  0.88622947  0.10697003  0.27417505  1
  O2-  O175  1  0.87163906  0.10042786  0.77574554  1
  O2-  O176  1  0.87441507  0.42585061  0.28363282  1
  O2-  O177  1  0.88376185  0.45256445  0.77640295  1
  O2-  O178  1  0.87125150  0.78304531  0.29791752  1
  O2-  O179  1  0.87873560  0.77992751  0.77625640  1
  O2-  O180  1  0.23035492  0.12599673  0.46849496  1
  O2-  O181  1  0.22457446  0.10486046  0.97457480  1
  O2-  O182  1  0.26540047  0.46566510  0.44963964  1
  O2-  O183  1  0.23929453  0.48470084  0.96368774  1
  O2-  O184  1  0.20840643  0.77630375  0.46798461  1
  O2-  O185  1  0.21569209  0.78289436  0.96936424  1
  O2-  O186  1  0.56206982  0.14357098  0.45936944  1
  O2-  O187  1  0.55122335  0.06727405  0.97599445  1
  O2-  O188  1  0.55323074  0.44668324  0.46456821  1
  O2-  O189  1  0.56293109  0.45661388  0.96582099  1
  O2-  O190  1  0.53844189  0.77351094  0.45666081  1
  O2-  O191  1  0.55035966  0.77117150  0.96528440  1
  O2-  O192  1  0.92139786  0.14918698  0.45908334  1
  O2-  O193  1  0.88020477  0.11184958  0.95960631  1
  O2-  O194  1  0.88370681  0.44766564  0.47596323  1
  O2-  O195  1  0.89799690  0.48741822  0.97213433  1
  O2-  O196  1  0.82815186  0.73195862  0.46269705  1
  O2-  O197  1  0.88580746  0.78309995  0.96565562  1
  O2-  O198  1  0.10062640  0.19599636  0.02022454  1
  O2-  O199  1  0.13278793  0.24808438  0.51192919  1
  O2-  O200  1  0.11012187  0.57039925  0.03822414  1
  O2-  O201  1  0.08692416  0.57011082  0.53319904  1
  O2-  O202  1  0.10813975  0.89335011  0.02661785  1
  O2-  O203  1  0.11732506  0.90277277  0.53904494  1
  O2-  O204  1  0.44252704  0.24185577  0.04505324  1
  O2-  O205  1  0.44714232  0.23195393  0.52708512  1
  O2-  O206  1  0.44648828  0.55567726  0.02924215  1
  O2-  O207  1  0.45963961  0.56251698  0.52895402  1
  O2-  O208  1  0.43042354  0.86725493  0.03370926  1
  O2-  O209  1  0.41754618  0.86898563  0.54838064  1
  O2-  O210  1  0.75734341  0.17742892  0.04608673  1
  O2-  O211  1  0.77928704  0.23305637  0.52942295  1
  O2-  O212  1  0.77004262  0.56653415  0.03221302  1
  O2-  O213  1  0.75623847  0.53275671  0.53303928  1
  O2-  O214  1  0.77066280  0.88602432  0.02640063  1
  O2-  O215  1  0.73676980  0.85087315  0.54842222  1
