# generated using pymatgen
data_H2O
_symmetry_space_group_name_H-M   'P 1'
_cell_length_a   13.52389820
_cell_length_b   13.53397648
_cell_length_c   14.69984459
_cell_angle_alpha   89.92239208
_cell_angle_beta   90.05239859
_cell_angle_gamma   119.98083310
_symmetry_Int_Tables_number   1
_chemical_formula_structural   H2O
_chemical_formula_sum   'H144 O72'
_cell_volume   2330.52688385
_cell_formula_units_Z   72
loop_
 _symmetry_equiv_pos_site_id
 _symmetry_equiv_pos_as_xyz
  1  'x, y, z'
loop_
 _atom_type_symbol
 _atom_type_oxidation_number
  H+  1.0
  O2-  -2.0
loop_
 _atom_site_type_symbol
 _atom_site_label
 _atom_site_symmetry_multiplicity
 _atom_site_fract_x
 _atom_site_fract_y
 _atom_site_fract_z
 _atom_site_occupancy
  H+  H0  1  0.83900580  0.35911187  0.45948769  1
  H+  H1  1  0.83311161  0.69055543  0.48181106  1
  H+  H2  1  0.48823235  0.25860145  0.62547723  1
  H+  H3  1  0.81680221  0.52129724  0.50069024  1
  H+  H4  1  0.29675507  0.82454933  0.50323345  1
  H+  H5  1  0.01361413  0.82978995  0.74496758  1
  H+  H6  1  0.51255423  1.03641128  0.48671607  1
  H+  H7  1  0.75947371  0.21494442  0.70083257  1
  H+  H8  1  -0.03543606  0.14587946  0.48777772  1
  H+  H9  1  0.54500017  0.88034948  0.28014662  1
  H+  H10  1  0.81317485  0.84460580  0.50271297  1
  H+  H11  1  0.19162895  0.68934751  0.26885592  1
  H+  H12  1  0.19766595  0.48296713  0.74553694  1
  H+  H13  1  0.48463035  0.28935699  0.00797588  1
  H+  H14  1  0.96077318  0.46477170  0.46788250  1
  H+  H15  1  0.52167670  0.69428455  0.75332738  1
  H+  H16  1  0.15188161  0.50612038  0.23296954  1
  H+  H17  1  0.19221349  0.17240706  0.26468216  1
  H+  H18  1  0.69593176  0.84495189  0.73694727  1
  H+  H19  1  0.70152389  0.87464195  0.24807524  1
  H+  H20  1  0.82642332  0.53270670  0.72880656  1
  H+  H21  1  0.63775080  0.14144749  0.46939920  1
  H+  H22  1  0.19340091  0.07308851  1.04637467  1
  H+  H23  1  0.84922721  0.02129285  0.48539704  1
  H+  H24  1  0.10735690  0.23114774  0.60627522  1
  H+  H25  1  0.68441525  0.48903901  0.50748296  1
  H+  H26  1  0.55579107  0.23938031  0.49252405  1
  H+  H27  1  0.48397098  0.61703436  0.00358729  1
  H+  H28  1  0.82205130  0.47702656  0.24412238  1
  H+  H29  1  0.96165623  0.50242832  0.98983779  1
  H+  H30  1  0.79768436  0.61786699  0.01459174  1
  H+  H31  1  0.13972393  0.18332561  1.00308823  1
  H+  H32  1  0.88821228  0.15142996  0.74975842  1
  H+  H33  1  0.18547137  0.01512119  0.48711347  1
  H+  H34  1  0.95373062  0.80670945  0.48220268  1
  H+  H35  1  0.94545378  0.78803199  0.98772802  1
  H+  H36  1  0.49125480  0.95606665  0.01479349  1
  H+  H37  1  0.17648030  0.69627562  0.78548670  1
  H+  H38  1  0.37806118  0.52988326  0.50035228  1
  H+  H39  1  0.52210737  0.36830659  0.74712243  1
  H+  H40  1  0.51149663  0.70753461  0.49707460  1
  H+  H41  1  0.78134673  0.22571920  0.09057004  1
  H+  H42  1  0.62826866  0.46395104  0.98813693  1
  H+  H43  1  0.82428121  0.16850769  0.47447359  1
  H+  H44  1  1.01537577  0.17073609  1.00158903  1
  H+  H45  1  0.47590244  0.13208077  0.76159491  1
  H+  H46  1  0.03739570  0.51247635  0.23478294  1
  H+  H47  1  0.83705262  0.69094745  0.75166825  1
  H+  H48  1  0.47186832  -0.04280765  0.74756677  1
  H+  H49  1  0.52576606  0.64281099  0.30217869  1
  H+  H50  1  0.87691583  0.76947923  0.33854335  1
  H+  H51  1  0.47677471  0.17221491  0.23581481  1
  H+  H52  1  0.85286002  0.37304375  0.97871258  1
  H+  H53  1  0.59764877  0.15173124  0.76993612  1
  H+  H54  1  0.84016414  0.14802091  0.97900280  1
  H+  H55  1  0.20215786  0.36827326  0.75232428  1
  H+  H56  1  0.63224889  0.80774408  0.98509018  1
  H+  H57  1  0.28485397  0.45125943  0.24297720  1
  H+  H58  1  0.29996107  0.11586093  0.78116326  1
  H+  H59  1  0.51046551  1.02775660  0.25018390  1
  H+  H60  1  0.84013288  0.68830246  0.25255166  1
  H+  H61  1  0.81163215  0.17994485  0.23958573  1
  H+  H62  1  0.13616394  0.83622589  0.51099216  1
  H+  H63  1  0.46029144  0.46280400  0.22973457  1
  H+  H64  1  0.36102942  0.84338599  0.24565499  1
  H+  H65  1  0.09107280  0.50056053  0.57897331  1
  H+  H66  1  0.10934239  0.86036113  0.15162390  1
  H+  H67  1  0.81961370  0.95974050  0.73877699  1
  H+  H68  1  0.85289989  0.39807770  0.75936487  1
  H+  H69  1  0.51663090  0.81050089  0.75586985  1
  H+  H70  1  0.20476983  0.36933642  0.47288696  1
  H+  H71  1  0.31491663  0.82178129  0.99531680  1
  H+  H72  1  0.37245379  0.23726137  0.66491918  1
  H+  H73  1  0.14069133  0.82273668  1.00488605  1
  H+  H74  1  0.69717160  0.18182778  1.00616343  1
  H+  H75  1  1.01560872  0.17026810  0.23753469  1
  H+  H76  1  0.83912169  0.02729580  0.24773497  1
  H+  H77  1  0.49684131  0.52116893  0.73681420  1
  H+  H78  1  0.13965944  0.47325795  0.48843583  1
  H+  H79  1  0.13463780  0.94521231  0.74850980  1
  H+  H80  1  0.13778388  0.62655195  0.66914535  1
  H+  H81  1  0.51086931  0.13776611  1.00362509  1
  H+  H82  1  0.36445520  0.18875560  0.24065321  1
  H+  H83  1  0.31474323  0.08932255  0.46398056  1
  H+  H84  1  0.05468733  0.17313795  0.74804781  1
  H+  H85  1  0.47972619  0.49682877  0.99553146  1
  H+  H86  1  0.52050040  0.34179837  0.26459297  1
  H+  H87  1  0.17157388  0.17447793  0.74446292  1
  H+  H88  1  0.56600440  0.40763224  0.36019855  1
  H+  H89  1  0.12384334  0.92741948  -0.00889646  1
  H+  H90  1  0.84043811  0.81051323  0.75727427  1
  H+  H91  1  0.80794773  0.50542124  0.00892360  1
  H+  H92  1  0.03523818  0.52681494  0.72757679  1
  H+  H93  1  0.13410062  0.65081249  1.01027840  1
  H+  H94  1  0.35873472  0.83846666  0.74055972  1
  H+  H95  1  0.48536168  0.86106220  0.51325513  1
  H+  H96  1  0.16787932  0.80790547  0.76093379  1
  H+  H97  1  0.83415256  0.34936848  0.25056615  1
  H+  H98  1  0.06637004  0.30972748  0.55876498  1
  H+  H99  1  0.16017658  0.34849541  0.25334434  1
  H+  H100  1  0.21807666  0.77108585  0.41778434  1
  H+  H101  1  0.18566344  0.80331600  0.26727682  1
  H+  H102  1  0.03432877  0.83197324  0.23922087  1
  H+  H103  1  0.37736383  0.51945335  0.73512128  1
  H+  H104  1  0.16164803  0.36979942  0.00872277  1
  H+  H105  1  0.81055284  0.84468706  0.00433313  1
  H+  H106  1  0.48651362  0.83454136  1.00999023  1
  H+  H107  1  0.48224678  0.65423720  0.28027441  1
  H+  H108  1  0.68659237  0.48460488  0.24760603  1
  H+  H109  1  0.55677744  0.42636093  0.89462753  1
  H+  H110  1  0.45184256  0.56652903  0.59203533  1
  H+  H111  1  0.44639177  0.90075356  0.60113365  1
  H+  H112  1  0.87935911  0.43967733  0.34000491  1
  H+  H113  1  0.43968712  0.87804689  0.15432113  1
  H+  H114  1  0.55050239  0.10672699  0.33889790  1
  H+  H115  1  0.90362897  0.47258754  0.84780121  1
  H+  H116  1  0.55302269  0.76688620  0.89693804  1
  H+  H117  1  0.69184741  0.17950909  0.23702598  1
  H+  H118  1  0.80052892  0.84121856  0.23101466  1
  H+  H119  1  0.89618087  0.10628699  0.84830232  1
  H+  H120  1  0.27991415  0.47829204  0.00051050  1
  H+  H121  1  0.31475049  0.15314764  1.00476223  1
  H+  H122  1  0.63168560  0.82535677  0.50237328  1
  H+  H123  1  0.76224153  0.52858059  0.15045866  1
  H+  H124  1  0.80005589  0.22562920  0.55716771  1
  H+  H125  1  0.09022091  0.87563576  0.59495980  1
  H+  H126  1  0.78260241  0.88774835  0.59532483  1
  H+  H127  1  0.58422109  0.84308692  0.37050873  1
  H+  H128  1  0.77543243  0.55752871  0.63677147  1
  H+  H129  1  0.86577769  0.75607198  0.90025770  1
  H+  H130  1  0.64227066  0.48429619  0.75155496  1
  H+  H131  1  0.24025135  0.79463772  0.90298454  1
  H+  H132  1  0.77145727  0.88920245  0.09085568  1
  H+  H133  1  0.87981117  0.09979874  0.33982976  1
  H+  H134  1  0.53938802  0.09710355  0.91198392  1
  H+  H135  1  0.09542290  0.21067355  0.14942242  1
  H+  H136  1  0.22084599  0.08961881  0.86684308  1
  H+  H137  1  0.70093199  0.28050256  0.66051248  1
  H+  H138  1  0.23181065  0.44026813  0.37994850  1
  H+  H139  1  0.09468850  0.56828818  0.09588766  1
  H+  H140  1  0.42161278  0.49542706  0.13587918  1
  H+  H141  1  0.23664451  0.13083804  0.35072565  1
  H+  H142  1  0.44474688  0.21684189  0.10290103  1
  H+  H143  1  0.83636634  0.02614016  0.98066461  1
  O2-  O144  1  0.09701249  0.21311749  0.21721509  1
  O2-  O145  1  0.13243751  0.21451112  0.72084704  1
  O2-  O146  1  0.11736134  0.55444722  0.21526606  1
  O2-  O147  1  0.11311866  0.55421616  0.70021421  1
  O2-  O148  1  0.11365244  0.86102726  0.21841857  1
  O2-  O149  1  0.09515782  0.86718305  0.72274578  1
  O2-  O150  1  0.44431035  0.21963879  0.21259409  1
  O2-  O151  1  0.44100456  0.23584417  0.68353134  1
  O2-  O152  1  0.39552067  0.45859820  0.19656058  1
  O2-  O153  1  0.45942218  0.56349489  0.71378995  1
  O2-  O154  1  0.44065843  0.89125583  0.22100432  1
  O2-  O155  1  0.43987619  0.88008512  0.72058319  1
  O2-  O156  1  0.77440606  0.22414026  0.21728214  1
  O2-  O157  1  0.72636796  0.26196473  0.71728921  1
  O2-  O158  1  0.76790770  0.52659002  0.21931806  1
  O2-  O159  1  0.77504852  0.56001681  0.70592541  1
  O2-  O160  1  0.76955811  0.88953424  0.20845384  1
  O2-  O161  1  0.77683995  0.88148656  0.71354548  1
  O2-  O162  1  0.24666634  0.14788842  0.28471662  1
  O2-  O163  1  0.22053982  0.08508553  0.79937807  1
  O2-  O164  1  0.20883101  0.43056683  0.27202943  1
  O2-  O165  1  0.24416552  0.45050276  0.76655973  1
  O2-  O166  1  0.22992122  0.76846387  0.29378714  1
  O2-  O167  1  0.21964791  0.77976787  0.78552648  1
  O2-  O168  1  0.55397441  0.10984343  0.27089410  1
  O2-  O169  1  0.51855786  0.09882599  0.78993656  1
  O2-  O170  1  0.56801729  0.41984292  0.29315332  1
  O2-  O171  1  0.56338447  0.44298453  0.77826153  1
  O2-  O172  1  0.61232186  0.88625440  0.31246128  1
  O2-  O173  1  0.56163550  0.77523933  0.77763967  1
  O2-  O174  1  0.87692811  0.10716998  0.27254221  1
  O2-  O175  1  0.91108513  0.10238030  0.78054811  1
  O2-  O176  1  0.87331440  0.43450351  0.26948852  1
  O2-  O177  1  0.90740645  0.47652493  0.77852150  1
  O2-  O178  1  0.87945674  0.76923951  0.27043166  1
  O2-  O179  1  0.87819747  0.76811554  0.78148179  1
  O2-  O180  1  0.24498536  0.09335076  0.46769560  1
  O2-  O181  1  0.22888969  0.11001484  0.98894244  1
  O2-  O182  1  0.24047654  0.44766297  0.44876285  1
  O2-  O183  1  0.19783478  0.45216921  0.99750597  1
  O2-  O184  1  0.21532686  0.77874901  0.48488812  1
  O2-  O185  1  0.23541751  0.78924063  0.97024813  1
  O2-  O186  1  0.55598107  0.11340450  0.45617013  1
  O2-  O187  1  0.55255565  0.09969701  0.97840425  1
  O2-  O188  1  0.57317062  0.39400395  0.48375524  1
  O2-  O189  1  0.54945911  0.41997975  0.96240272  1
  O2-  O190  1  0.55159740  0.79261320  0.48120811  1
  O2-  O191  1  0.55089362  0.76441050  0.96490993  1
  O2-  O192  1  0.88835411  0.10066055  0.45796807  1
  O2-  O193  1  0.87798042  0.10566073  0.95501682  1
  O2-  O194  1  0.88269999  0.44147161  0.44282559  1
  O2-  O195  1  0.88406943  0.45282714  0.95749408  1
  O2-  O196  1  0.87393200  0.77063713  0.45776867  1
  O2-  O197  1  0.86424125  0.75525268  0.96837246  1
  O2-  O198  1  0.09172732  0.21029297  0.03147596  1
  O2-  O199  1  0.08411270  0.24870566  0.54665734  1
  O2-  O200  1  0.06667015  0.58776559  0.04028945  1
  O2-  O201  1  0.06797211  0.45975340  0.52057250  1
  O2-  O202  1  0.08849134  0.85340477  0.02159443  1
  O2-  O203  1  0.09118885  0.87528982  0.52766076  1
  O2-  O204  1  0.44284010  0.20965013  0.03384395  1
  O2-  O205  1  0.57494626  0.30182579  0.53725501  1
  O2-  O206  1  0.44201415  0.53620541  0.02349698  1
  O2-  O207  1  0.45577253  0.57830909  0.52523618  1
  O2-  O208  1  0.44757280  0.87523678  0.03549576  1
  O2-  O209  1  0.44695379  0.90518405  0.53360706  1
  O2-  O210  1  0.77997375  0.22464061  0.02294312  1
  O2-  O211  1  0.78597554  0.21504250  0.49210337  1
  O2-  O212  1  0.76276301  0.53778333  0.03820329  1
  O2-  O213  1  0.77032931  0.55271718  0.52525130  1
  O2-  O214  1  0.77377800  0.88996743  0.02256549  1
  O2-  O215  1  0.78055573  0.89148055  0.52756233  1
