# generated using pymatgen
data_H2O
_symmetry_space_group_name_H-M   'P 1'
_cell_length_a   13.52692549
_cell_length_b   13.53239685
_cell_length_c   14.69890651
_cell_angle_alpha   90.06026954
_cell_angle_beta   89.96488971
_cell_angle_gamma   119.99487786
_symmetry_Int_Tables_number   1
_chemical_formula_structural   H2O
_chemical_formula_sum   'H144 O72'
_cell_volume   2330.29902536
_cell_formula_units_Z   72
loop_
 _symmetry_equiv_pos_site_id
 _symmetry_equiv_pos_as_xyz
  1  'x, y, z'
loop_
 _atom_type_symbol
 _atom_type_oxidation_number
  H+  1.0
  O2-  -2.0
loop_
 _atom_site_type_symbol
 _atom_site_label
 _atom_site_symmetry_multiplicity
 _atom_site_fract_x
 _atom_site_fract_y
 _atom_site_fract_z
 _atom_site_occupancy
  H+  H0  1  0.50693182  0.82393375  1.01432331  1
  H+  H1  1  0.80616002  0.29189175  0.76357270  1
  H+  H2  1  0.79902656  0.96554345  0.21534826  1
  H+  H3  1  0.90027266  0.16757752  0.47418747  1
  H+  H4  1  1.05810617  0.86307264  0.49369544  1
  H+  H5  1  0.10878686  0.20752498  0.14236308  1
  H+  H6  1  0.89172658  0.74915867  0.49734905  1
  H+  H7  1  0.14597475  0.30178872  0.73304371  1
  H+  H8  1  0.82258648  -0.01826393  0.51497400  1
  H+  H9  1  0.52093624  0.36817534  0.99552780  1
  H+  H10  1  0.21280680  0.83326480  0.27397219  1
  H+  H11  1  0.06027726  0.18991783  0.49714918  1
  H+  H12  1  0.48575068  0.51434992  0.00149177  1
  H+  H13  1  0.47694696  0.30119721  0.52165722  1
  H+  H14  1  0.70297035  0.85160354  0.73217420  1
  H+  H15  1  0.30141133  0.80901069  0.75528703  1
  H+  H16  1  0.19648443  0.14714283  0.49722982  1
  H+  H17  1  0.20768605  0.82203322  0.48973045  1
  H+  H18  1  0.20159053  0.38382837  0.51078218  1
  H+  H19  1  0.94880343  0.47815268  0.74665960  1
  H+  H20  1  0.49427845  0.79308785  0.24257304  1
  H+  H21  1  0.36519000  0.83124831  0.24530479  1
  H+  H22  1  0.04478555  0.17851135  0.00450124  1
  H+  H23  1  0.84298294  0.36304967  0.47213248  1
  H+  H24  1  0.32028358  0.81266869  0.49254219  1
  H+  H25  1  0.70648154  0.19375336  0.24388356  1
  H+  H26  1  0.79194234  0.61320991  0.74545460  1
  H+  H27  1  0.79981185  0.62578508  0.23680192  1
  H+  H28  1  0.70347928  0.51292792  0.99781164  1
  H+  H29  1  -0.03083496  0.80446090  0.75771513  1
  H+  H30  1  0.15579356  0.84122305  1.01630058  1
  H+  H31  1  0.48126532  0.31556595  0.23244946  1
  H+  H32  1  0.48248864  0.13542431  0.49592631  1
  H+  H33  1  0.50836819  0.78539473  0.47887266  1
  H+  H34  1  0.14660048  0.63639322  0.72606841  1
  H+  H35  1  0.21938352  0.45279221  0.83482253  1
  H+  H36  1  0.06773178  0.86769913  0.25237350  1
  H+  H37  1  0.13854378  0.51333975  0.72619092  1
  H+  H38  1  0.74547615  0.14996911  0.45099604  1
  H+  H39  1  0.15151686  0.18510584  0.73239416  1
  H+  H40  1  0.96987698  0.14614371  0.75239535  1
  H+  H41  1  0.82459873  -0.02528808  0.73819530  1
  H+  H42  1  0.39616676  0.60044879  0.56654753  1
  H+  H43  1  0.82617699  0.47094511  0.75574431  1
  H+  H44  1  0.22140926  0.10675835  0.83269672  1
  H+  H45  1  0.88112867  0.81361791  0.21691739  1
  H+  H46  1  0.83466675  0.47259564  0.49504460  1
  H+  H47  1  0.79837690  0.49930029  0.24169556  1
  H+  H48  1  0.44402099  0.94886018  0.01101704  1
  H+  H49  1  0.32459485  0.17513506  0.24180986  1
  H+  H50  1  0.61298516  0.79420540  0.23699033  1
  H+  H51  1  0.09572989  0.54820547  0.60536087  1
  H+  H52  1  0.10829305  0.43689757  0.22698916  1
  H+  H53  1  0.51000103  0.49115815  0.24912016  1
  H+  H54  1  0.95521990  0.13235625  0.24828456  1
  H+  H55  1  0.16552054  0.68035069  0.98071860  1
  H+  H56  1  0.30261296  0.15365912  0.74740848  1
  H+  H57  1  0.84767915  0.47686553  0.98205993  1
  H+  H58  1  0.18169402  0.80579571  0.75024162  1
  H+  H59  1  0.02523879  0.50763266  -0.00221105  1
  H+  H60  1  0.15024330  0.95599039  0.72950250  1
  H+  H61  1  0.58631360  0.04810705  0.98613500  1
  H+  H62  1  0.29007958  0.48807345  0.74076654  1
  H+  H63  1  0.30064535  0.48814874  0.97687872  1
  H+  H64  1  0.48475352  0.86398655  0.74700460  1
  H+  H65  1  0.46906674  -0.02601118  0.76178511  1
  H+  H66  1  0.47390739  0.17581237  0.75746727  1
  H+  H67  1  0.33472744  0.82278138  1.00324477  1
  H+  H68  1  0.37594649  0.17909636  0.00673953  1
  H+  H69  1  0.86302027  0.82367249  1.00282155  1
  H+  H70  1  0.84411589  0.14669037  0.25561114  1
  H+  H71  1  0.19818994  0.03021062  0.98785598  1
  H+  H72  1  0.45012291  0.22732807  0.61536626  1
  H+  H73  1  0.50846947  0.46366453  0.79072919  1
  H+  H74  1  0.83791430  0.36387096  0.25140072  1
  H+  H75  1  0.52820899  0.17597284  0.25994808  1
  H+  H76  1  0.69667070  0.86241936  0.07352615  1
  H+  H77  1  0.17428389  -0.02399462  0.51121115  1
  H+  H78  1  0.47038650  0.61980825  0.23039841  1
  H+  H79  1  0.00217883  0.55813142  0.21610279  1
  H+  H80  1  0.60006844  0.14328218  0.48768499  1
  H+  H81  1  0.81183147  0.85799678  0.51481221  1
  H+  H82  1  0.82416571  0.62760866  0.99964704  1
  H+  H83  1  0.84925030  0.14188811  0.76955076  1
  H+  H84  1  0.61427077  0.46976175  0.49480668  1
  H+  H85  1  0.52072431  0.70913839  0.71808883  1
  H+  H86  1  0.14852747  0.26922544  0.24114191  1
  H+  H87  1  0.47271375  0.50995625  0.67798729  1
  H+  H88  1  0.15487189  0.49871181  0.22466110  1
  H+  H89  1  0.74374704  0.51618877  0.62346957  1
  H+  H90  1  0.23700312  0.77406592  0.35917854  1
  H+  H91  1  0.48785847  0.63399227  0.01242439  1
  H+  H92  1  0.71197237  0.19032747  1.01081726  1
  H+  H93  1  0.12556605  0.66806110  0.22399859  1
  H+  H94  1  0.51215545  0.49460663  0.48833890  1
  H+  H95  1  0.18052187  0.48376663  -0.01873186  1
  H+  H96  1  0.18374278  0.15132576  0.24122745  1
  H+  H97  1  0.86929957  0.14788885  0.99164433  1
  H+  H98  1  0.77403196  0.58958714  0.53391570  1
  H+  H99  1  0.12070887  0.22829876  0.59429469  1
  H+  H100  1  0.49326626  0.17865696  1.01781312  1
  H+  H101  1  0.14414551  0.50776092  0.51189873  1
  H+  H102  1  0.16096768  0.29852219  1.00496450  1
  H+  H103  1  0.67009440  0.50538312  0.24591750  1
  H+  H104  1  0.48704749  0.30213128  0.75336310  1
  H+  H105  1  0.83110736  0.30376978  0.00899144  1
  H+  H106  1  0.66211666  0.49106899  0.75612920  1
  H+  H107  1  0.31461256  0.43877482  0.26913375  1
  H+  H108  1  1.01389645  0.50215852  0.50510988  1
  H+  H109  1  0.56007193  0.43736201  0.90195410  1
  H+  H110  1  0.76893442  0.18738258  0.55344161  1
  H+  H111  1  0.87457547  0.44787563  0.33913206  1
  H+  H112  1  0.89285637  0.09661495  0.38541858  1
  H+  H113  1  0.19570743  0.14659320  0.98570099  1
  H+  H114  1  0.45129300  0.89075770  0.60705799  1
  H+  H115  1  0.72985024  0.18838177  0.69906907  1
  H+  H116  1  0.85727555  0.81349726  0.76048262  1
  H+  H117  1  0.78351264  0.90171533  0.62179933  1
  H+  H118  1  0.20278017  0.41476366  0.31967365  1
  H+  H119  1  0.20515243  0.04106831  0.25258450  1
  H+  H120  1  0.31204997  0.14658961  0.50619567  1
  H+  H121  1  0.60193835  0.13303038  0.79240507  1
  H+  H122  1  0.90490239  0.10498732  0.90392240  1
  H+  H123  1  0.11191817  0.87583694  0.64245564  1
  H+  H124  1  0.90049641  0.78968612  0.90977254  1
  H+  H125  1  0.78539781  0.22476458  0.15321902  1
  H+  H126  1  0.13376858  0.89673312  0.15663587  1
  H+  H127  1  0.54306021  0.74168076  0.81948093  1
  H+  H128  1  0.20939259  0.76273869  0.89253767  1
  H+  H129  1  0.04459924  0.85189851  0.02215945  1
  H+  H130  1  0.88561455  0.79129206  0.39850596  1
  H+  H131  1  0.09530915  0.57134599  0.08609547  1
  H+  H132  1  0.77934154  0.77027240  0.27699063  1
  H+  H133  1  0.44656847  0.23096650  0.14344123  1
  H+  H134  1  0.43118230  0.53576240  0.14286921  1
  H+  H135  1  0.52833338  0.74116978  0.38584985  1
  H+  H136  1  0.28077122  0.48775025  0.44697994  1
  H+  H137  1  0.53109195  0.09165393  0.88761754  1
  H+  H138  1  0.60287657  0.83419238  0.94787637  1
  H+  H139  1  0.55078739  0.12439869  0.34921926  1
  H+  H140  1  0.42842682  0.86443391  0.14980960  1
  H+  H141  1  0.88446849  0.43328866  0.89426908  1
  H+  H142  1  0.54788055  0.45283121  0.34333125  1
  H+  H143  1  0.48358153  0.95997449  0.51439067  1
  O2-  O144  1  0.10073237  0.19375806  0.21047280  1
  O2-  O145  1  0.10723814  0.22180155  0.70976460  1
  O2-  O146  1  0.06307346  0.62019727  0.18057170  1
  O2-  O147  1  0.10018910  0.55497326  0.70157800  1
  O2-  O148  1  0.14325914  0.91077774  0.22510173  1
  O2-  O149  1  0.10895238  0.87432677  0.71081996  1
  O2-  O150  1  0.43949619  0.23413555  0.21254611  1
  O2-  O151  1  0.44418376  0.22157387  0.72581803  1
  O2-  O152  1  0.43430851  0.53589550  0.21104351  1
  O2-  O153  1  0.43501172  0.55598718  0.68158534  1
  O2-  O154  1  0.44199252  0.86418647  0.21594101  1
  O2-  O155  1  0.43762140  0.89696823  0.72817779  1
  O2-  O156  1  0.78792564  0.22804440  0.22159844  1
  O2-  O157  1  0.76550794  0.20581909  0.75876159  1
  O2-  O158  1  0.75559969  0.54239126  0.22157128  1
  O2-  O159  1  0.74844145  0.53289255  0.72481570  1
  O2-  O160  1  0.75906158  0.88328038  0.19596977  1
  O2-  O161  1  0.78379652  0.89439966  0.70919254  1
  O2-  O162  1  0.23864993  0.12581109  0.26624492  1
  O2-  O163  1  0.21929087  0.10981002  0.76528754  1
  O2-  O164  1  0.25008222  0.38072731  0.30730112  1
  O2-  O165  1  0.21217089  0.44928059  0.76644028  1
  O2-  O166  1  0.23328309  0.77503669  0.28961204  1
  O2-  O167  1  0.21801891  0.76150491  0.77222379  1
  O2-  O168  1  0.58211334  0.15656526  0.28850711  1
  O2-  O169  1  0.52125055  0.09326443  0.81002260  1
  O2-  O170  1  0.55458767  0.45384025  0.27553948  1
  O2-  O171  1  0.55528859  0.42800122  0.79372138  1
  O2-  O172  1  0.53516373  0.74837951  0.26169811  1
  O2-  O173  1  0.56076417  0.77586153  0.75898665  1
  O2-  O174  1  0.87688789  0.09706266  0.27491053  1
  O2-  O175  1  0.89078848  0.09876431  0.77781699  1
  O2-  O176  1  0.86495390  0.44514169  0.27207836  1
  O2-  O177  1  0.87153364  0.43310824  0.77313476  1
  O2-  O178  1  0.84828825  0.76365244  0.27017930  1
  O2-  O179  1  0.89110878  0.76956068  0.78533019  1
  O2-  O180  1  0.23334244  0.10260731  0.48060128  1
  O2-  O181  1  0.23645944  0.10793922  0.96087776  1
  O2-  O182  1  0.23682515  0.46888796  0.50341762  1
  O2-  O183  1  0.22106127  0.44661641  0.95285726  1
  O2-  O184  1  0.24203904  0.77733679  0.46645336  1
  O2-  O185  1  0.20698182  0.76305669  0.96038286  1
  O2-  O186  1  0.52058653  0.09471120  0.46877799  1
  O2-  O187  1  0.55342107  0.09665511  0.97499463  1
  O2-  O188  1  0.54032985  0.44605338  0.46321549  1
  O2-  O189  1  0.55771386  0.44708419  0.97112430  1
  O2-  O190  1  0.52176687  0.72646822  0.45202024  1
  O2-  O191  1  0.56569225  0.79888920  1.00504615  1
  O2-  O192  1  0.90371931  0.10038180  0.45449461  1
  O2-  O193  1  0.91314598  0.11152765  0.97070300  1
  O2-  O194  1  0.88298678  0.44661134  0.46269684  1
  O2-  O195  1  0.88903059  0.43514713  0.96168103  1
  O2-  O196  1  0.89708772  0.81362424  0.46343033  1
  O2-  O197  1  0.90525190  0.78859970  0.97741448  1
  O2-  O198  1  0.12605288  0.21964411  0.02917402  1
  O2-  O199  1  0.13429792  0.23927330  0.52681375  1
  O2-  O200  1  0.10540529  0.55097757  0.02201553  1
  O2-  O201  1  0.09308591  0.53949350  0.53274860  1
  O2-  O202  1  0.12485762  0.88772973  0.04461013  1
  O2-  O203  1  0.12958817  0.89064167  0.52738427  1
  O2-  O204  1  0.45317165  0.22076721  0.03585147  1
  O2-  O205  1  0.44585150  0.22356925  0.54632251  1
  O2-  O206  1  0.44168255  0.55135545  0.02499168  1
  O2-  O207  1  0.46954689  0.61399076  0.59192216  1
  O2-  O208  1  0.41450928  0.86805359  0.02934430  1
  O2-  O209  1  0.45944290  0.88347421  0.54051010  1
  O2-  O210  1  0.79103773  0.22406044  0.03452567  1
  O2-  O211  1  0.76376430  0.21331223  0.49265401  1
  O2-  O212  1  0.78526701  0.54592582  0.01489528  1
  O2-  O213  1  0.74414077  0.51057928  0.55183842  1
  O2-  O214  1  0.77537455  0.88797385  0.09619463  1
  O2-  O215  1  0.78022585  0.90349652  0.54386944  1
