# generated using pymatgen
data_H2O
_symmetry_space_group_name_H-M   'P 1'
_cell_length_a   13.51465998
_cell_length_b   13.50885793
_cell_length_c   14.68702261
_cell_angle_alpha   89.96931825
_cell_angle_beta   90.02807174
_cell_angle_gamma   119.97301440
_symmetry_Int_Tables_number   1
_chemical_formula_structural   H2O
_chemical_formula_sum   'H144 O72'
_cell_volume   2322.76946385
_cell_formula_units_Z   72
loop_
 _symmetry_equiv_pos_site_id
 _symmetry_equiv_pos_as_xyz
  1  'x, y, z'
loop_
 _atom_type_symbol
 _atom_type_oxidation_number
  H+  1.0
  O2-  -2.0
loop_
 _atom_site_type_symbol
 _atom_site_label
 _atom_site_symmetry_multiplicity
 _atom_site_fract_x
 _atom_site_fract_y
 _atom_site_fract_z
 _atom_site_occupancy
  H+  H0  1  0.54388730  0.50861497  0.47079808  1
  H+  H1  1  0.79221071  0.88925530  0.10073295  1
  H+  H2  1  0.83950917  0.60768247  0.07845712  1
  H+  H3  1  0.44315049  0.55910167  0.39421084  1
  H+  H4  1  0.04493575  0.84678176  0.74152647  1
  H+  H5  1  0.48266548  0.29089942  0.24796098  1
  H+  H6  1  0.37890309  0.17127383  0.76343745  1
  H+  H7  1  0.48346923  0.63818210  0.25920541  1
  H+  H8  1  0.98137064  0.81549964  0.48105589  1
  H+  H9  1  0.36049323  0.51943181  0.25153091  1
  H+  H10  1  0.22985024  0.45360035  0.91462636  1
  H+  H11  1  0.18739207  0.15023961  0.99693121  1
  H+  H12  1  0.14890321  0.16856598  0.44599362  1
  H+  H13  1  0.29665538  0.81141287  0.31252995  1
  H+  H14  1  0.78904967  0.35003115  -0.01146751  1
  H+  H15  1  0.14513781  0.52007803  0.24306439  1
  H+  H16  1  0.48864080  0.82156330  0.50615221  1
  H+  H17  1  0.64081149  0.12363297  0.77360852  1
  H+  H18  1  0.39758893  0.85265607  0.02060728  1
  H+  H19  1  0.81570517  0.52100533  0.22131694  1
  H+  H20  1  0.84413802  0.12926349  0.45775981  1
  H+  H21  1  0.50380718  0.79408059  0.76611129  1
  H+  H22  1  0.30435869  0.48142060  0.77321038  1
  H+  H23  1  0.53756306  0.35986860  0.76842802  1
  H+  H24  1  1.03087683  0.16939294  0.43911692  1
  H+  H25  1  0.11788715  0.21885326  0.31266122  1
  H+  H26  1  0.83280755  0.50579947  0.74959522  1
  H+  H27  1  0.83914721  0.49545789  0.98336912  1
  H+  H28  1  0.12118977  0.83175227  0.01172230  1
  H+  H29  1  0.81211094  0.27528808  0.62501483  1
  H+  H30  1  0.52813214  0.13920396  0.77114927  1
  H+  H31  1  0.28419585  0.15550883  0.49110475  1
  H+  H32  1  0.83911374  0.84905548  0.51009755  1
  H+  H33  1  0.97804997  0.49383386  0.48081358  1
  H+  H34  1  -0.02751880  0.16655348  -0.00371157  1
  H+  H35  1  0.70751260  0.50801172  0.75664770  1
  H+  H36  1  0.20197618  0.15100446  0.78274292  1
  H+  H37  1  0.86396338  0.37377801  0.48854566  1
  H+  H38  1  0.18014678  0.80809498  0.45471967  1
  H+  H39  1  0.18257632  0.02910597  1.00247561  1
  H+  H40  1  0.48624011  -0.02600790  0.50723213  1
  H+  H41  1  0.49871873  0.20596590  0.52583000  1
  H+  H42  1  0.84149828  0.12512786  0.22965411  1
  H+  H43  1  0.80526293  0.63416372  0.22647648  1
  H+  H44  1  0.83314716  0.51548019  0.49148978  1
  H+  H45  1  0.11734817  0.94710519  0.24985433  1
  H+  H46  1  0.18792454  0.48623951  0.76482331  1
  H+  H47  1  0.02016280  0.85690044  0.01745302  1
  H+  H48  1  0.50143742  0.97934612  0.03217237  1
  H+  H49  1  0.48762010  0.62302726  0.76113406  1
  H+  H50  1  0.46708502  0.15585846  0.55818967  1
  H+  H51  1  0.45636834  0.20187247  0.67444966  1
  H+  H52  1  0.71374410  0.86422292  0.01464030  1
  H+  H53  1  0.88989122  0.78600763  0.39763124  1
  H+  H54  1  0.80050890  0.71242063  0.99799888  1
  H+  H55  1  0.14539502  0.51231164  0.50129495  1
  H+  H56  1  0.23009559  0.09298719  0.39395572  1
  H+  H57  1  0.70019787  0.40981749  0.96756239  1
  H+  H58  1  0.53255060  0.47696962  0.77244137  1
  H+  H59  1  0.86007787  0.20421656  0.58308649  1
  H+  H60  1  0.70785405  0.52067034  0.49128064  1
  H+  H61  1  -0.04277268  0.17727475  0.78300471  1
  H+  H62  1  0.15410297  0.63379563  0.49130094  1
  H+  H63  1  0.83669148  0.64518829  0.49069508  1
  H+  H64  1  0.16212551  -0.03396099  0.74224566  1
  H+  H65  1  0.53663342  0.34302083  0.99809846  1
  H+  H66  1  0.17373727  0.35303986  0.46115092  1
  H+  H67  1  0.96054285  0.48309613  0.24687424  1
  H+  H68  1  0.29029903  0.47301306  0.47686399  1
  H+  H69  1  0.15423110  0.95797758  0.50132073  1
  H+  H70  1  0.50104835  -0.00814676  0.75135510  1
  H+  H71  1  0.15472128  0.30214069  0.78569313  1
  H+  H72  1  0.72105146  0.84248844  0.49958940  1
  H+  H73  1  0.93072641  0.83365822  0.25231557  1
  H+  H74  1  0.24430517  0.78708926  1.00436017  1
  H+  H75  1  0.16403055  0.30967911  0.01566660  1
  H+  H76  1  0.80960112  0.90300995  0.65911388  1
  H+  H77  1  -0.02697808  0.46826355  0.74199334  1
  H+  H78  1  0.15435354  0.63355926  0.73646337  1
  H+  H79  1  0.64372859  0.80456050  0.28101196  1
  H+  H80  1  0.10636960  0.21155434  0.70780782  1
  H+  H81  1  0.53579419  0.82987884  0.00309798  1
  H+  H82  1  0.18507299  0.13294543  0.25680081  1
  H+  H83  1  0.14188092  0.51301331  0.01633847  1
  H+  H84  1  0.88870621  0.75170899  0.85064376  1
  H+  H85  1  0.57712053  0.15634950  0.48318401  1
  H+  H86  1  0.48767733  0.17447545  0.24666742  1
  H+  H87  1  0.83527823  -0.02456484  0.74931108  1
  H+  H88  1  0.84860731  0.01403949  0.47345084  1
  H+  H89  1  0.36493367  0.17990678  1.01925976  1
  H+  H90  1  0.85413856  0.04967049  1.00120189  1
  H+  H91  1  0.63227714  0.47717653  0.24591613  1
  H+  H92  1  0.85545510  0.27100863  0.76763616  1
  H+  H93  1  0.86518089  0.81260019  0.76547264  1
  H+  H94  1  0.30736936  0.49259887  0.00438842  1
  H+  H95  1  0.69949168  0.17402243  0.22787108  1
  H+  H96  1  0.49731576  0.52709431  0.03021206  1
  H+  H97  1  0.55013977  0.76700214  0.85692206  1
  H+  H98  1  0.53070279  0.70988177  1.00252313  1
  H+  H99  1  0.68133146  0.14146817  0.50188739  1
  H+  H100  1  0.18978274  0.81805383  0.75995154  1
  H+  H101  1  0.50891148  0.13867165  1.01154047  1
  H+  H102  1  0.83392094  0.63518352  0.75212120  1
  H+  H103  1  0.45201863  0.34332460  0.52341165  1
  H+  H104  1  0.13838990  0.66611394  0.98920966  1
  H+  H105  1  0.35952608  0.85282915  0.74969412  1
  H+  H106  1  0.57523783  0.79934800  0.55857563  1
  H+  H107  1  0.48134287  0.84399456  0.26063466  1
  H+  H108  1  0.21706943  0.76953729  0.85061223  1
  H+  H109  1  0.45469380  0.56400565  0.11707415  1
  H+  H110  1  0.14046344  0.63329850  0.26062893  1
  H+  H111  1  0.63026269  0.14572370  1.00211577  1
  H+  H112  1  0.37096606  0.30778049  0.61001725  1
  H+  H113  1  0.07037777  0.86878969  0.16329309  1
  H+  H114  1  0.77849141  0.23325133  0.09313214  1
  H+  H115  1  0.23886158  0.10264574  0.86434788  1
  H+  H116  1  0.47456092  0.63798488  0.48044788  1
  H+  H117  1  0.56654789  0.78692965  0.36822522  1
  H+  H118  1  0.87092669  0.13934690  0.86213856  1
  H+  H119  1  0.09820025  0.55474467  0.09998071  1
  H+  H120  1  0.10503821  0.19929771  0.59527250  1
  H+  H121  1  0.45192072  0.54100092  0.67464142  1
  H+  H122  1  0.11956055  0.55964017  0.64506206  1
  H+  H123  1  0.11736642  0.87565641  0.58763077  1
  H+  H124  1  0.35777918  0.86494563  0.49696849  1
  H+  H125  1  0.51592659  0.47771135  0.26234062  1
  H+  H126  1  0.10895885  0.25727951  0.59675649  1
  H+  H127  1  0.12437189  0.22682237  0.10086690  1
  H+  H128  1  0.17922983  0.37161330  0.25342159  1
  H+  H129  1  0.30193479  0.13056776  0.25610384  1
  H+  H130  1  0.43705782  0.87812994  0.17333115  1
  H+  H131  1  0.02784338  0.16988838  0.23518966  1
  H+  H132  1  0.87826303  0.44053144  0.33149738  1
  H+  H133  1  0.57436009  0.44633648  0.39462662  1
  H+  H134  1  0.87579675  0.08582621  0.31970963  1
  H+  H135  1  0.81643846  0.29369848  0.22963257  1
  H+  H136  1  0.51629748  0.02200143  0.26144773  1
  H+  H137  1  0.82358334  0.20535408  1.00225264  1
  H+  H138  1  0.58255216  0.42676232  0.90990971  1
  H+  H139  1  0.83139415  0.92997569  0.24932218  1
  H+  H140  1  0.43218131  0.89681595  0.65309562  1
  H+  H141  1  0.58045647  0.10840961  0.34210214  1
  H+  H142  1  0.44299161  0.21709134  0.10982528  1
  H+  H143  1  0.21216094  0.44712958  0.34359949  1
  O2-  O144  1  0.11256111  0.21756383  0.24381152  1
  O2-  O145  1  0.11275130  0.21735952  0.77444744  1
  O2-  O146  1  0.10352780  0.56107162  0.22570442  1
  O2-  O147  1  0.11594979  0.55385632  0.71274499  1
  O2-  O148  1  0.05485418  0.87186580  0.22864346  1
  O2-  O149  1  0.12414385  0.88699723  0.71689906  1
  O2-  O150  1  0.44248697  0.21042730  0.22572328  1
  O2-  O151  1  0.46137935  0.20843822  0.74113182  1
  O2-  O152  1  0.44533196  0.55585656  0.24152319  1
  O2-  O153  1  0.45200303  0.53887466  0.74103496  1
  O2-  O154  1  0.43589151  0.87951457  0.24137016  1
  O2-  O155  1  0.44027603  0.89583716  0.72108566  1
  O2-  O156  1  0.77987088  0.21429432  0.20482295  1
  O2-  O157  1  0.82420628  0.31604765  0.73566145  1
  O2-  O158  1  0.77620262  0.56031364  0.19460061  1
  O2-  O159  1  0.79049615  0.54979535  0.73335924  1
  O2-  O160  1  0.78516887  0.84594228  0.23624302  1
  O2-  O161  1  0.82238931  0.90228174  0.72499861  1
  O2-  O162  1  0.22135016  0.08936096  0.27930362  1
  O2-  O163  1  0.24342372  0.10885692  0.79576387  1
  O2-  O164  1  0.21945113  0.45211391  0.27548452  1
  O2-  O165  1  0.22477928  0.44743285  0.79629499  1
  O2-  O166  1  0.21661456  0.76633931  0.33555463  1
  O2-  O167  1  0.23191060  0.77914327  0.78340096  1
  O2-  O168  1  0.56386240  0.10581058  0.27650483  1
  O2-  O169  1  0.55855397  0.08559214  0.78469072  1
  O2-  O170  1  0.55837167  0.43768473  0.27969088  1
  O2-  O171  1  0.57922324  0.44070977  0.78965805  1
  O2-  O172  1  0.56384839  0.77725627  0.30176762  1
  O2-  O173  1  0.53844587  0.75079841  0.79013761  1
  O2-  O174  1  0.88023165  0.08336290  0.25228930  1
  O2-  O175  1  0.87632887  0.15379523  0.79492669  1
  O2-  O176  1  0.87743490  0.43994876  0.26425103  1
  O2-  O177  1  0.89414960  0.43524867  0.77002871  1
  O2-  O178  1  0.84797726  0.79230035  0.27976712  1
  O2-  O179  1  0.89855564  0.76322624  0.78384797  1
  O2-  O180  1  0.21562287  0.09292424  0.46121071  1
  O2-  O181  1  0.22758135  0.10828358  0.97769572  1
  O2-  O182  1  0.20854011  0.43827660  0.46071009  1
  O2-  O183  1  0.22735674  0.44918715  0.98252381  1
  O2-  O184  1  0.22767477  0.77296499  0.43645395  1
  O2-  O185  1  0.17657820  0.75023669  0.96599659  1
  O2-  O186  1  0.60724380  0.10523756  0.46882102  1
  O2-  O187  1  0.54703532  0.09551499  0.99132089  1
  O2-  O188  1  0.58086749  0.46102190  0.46245792  1
  O2-  O189  1  0.60019909  0.41808034  0.97411955  1
  O2-  O190  1  0.53691861  0.78386810  0.49947639  1
  O2-  O191  1  0.57001552  0.78698005  0.97422906  1
  O2-  O192  1  0.88257265  0.08821004  0.43842709  1
  O2-  O193  1  0.89087037  0.13005389  0.97803777  1
  O2-  O194  1  0.89483547  0.45040256  0.46113888  1
  O2-  O195  1  0.78312581  0.41685199  0.95891410  1
  O2-  O196  1  0.89717580  0.77542024  0.46391835  1
  O2-  O197  1  0.82409331  0.66911648  0.95825110  1
  O2-  O198  1  0.12208564  0.22682908  0.03415659  1
  O2-  O199  1  0.11377906  0.21513553  0.42504770  1
  O2-  O200  1  0.09493767  0.54813598  0.03273818  1
  O2-  O201  1  0.10993617  0.55823590  0.52187002  1
  O2-  O202  1  0.09824424  0.88539670  0.03858351  1
  O2-  O203  1  0.11402215  0.87520656  0.52004603  1
  O2-  O204  1  0.44565406  0.21809864  0.04160028  1
  O2-  O205  1  0.37633718  0.28658952  0.54769460  1
  O2-  O206  1  0.45604468  0.56599651  0.04921896  1
  O2-  O207  1  0.44664288  0.55740228  0.46100239  1
  O2-  O208  1  0.46742403  0.89511670  0.05557006  1
  O2-  O209  1  0.42959136  0.89854310  0.53374991  1
  O2-  O210  1  0.77598859  0.23839286  0.02473080  1
  O2-  O211  1  0.81369013  0.23826775  0.56586417  1
  O2-  O212  1  0.88514499  0.62981150  0.02035620  1
  O2-  O213  1  0.79303649  0.56068869  0.51098924  1
  O2-  O214  1  0.79492874  0.90302041  0.03488738  1
  O2-  O215  1  0.79597915  0.88907548  0.52774847  1
