# generated using pymatgen
data_H2O
_symmetry_space_group_name_H-M   'P 1'
_cell_length_a   13.53880359
_cell_length_b   13.53234007
_cell_length_c   14.69642827
_cell_angle_alpha   89.92486168
_cell_angle_beta   90.06073245
_cell_angle_gamma   120.08937950
_symmetry_Int_Tables_number   1
_chemical_formula_structural   H2O
_chemical_formula_sum   'H144 O72'
_cell_volume   2329.71797543
_cell_formula_units_Z   72
loop_
 _symmetry_equiv_pos_site_id
 _symmetry_equiv_pos_as_xyz
  1  'x, y, z'
loop_
 _atom_type_symbol
 _atom_type_oxidation_number
  H+  1.0
  O2-  -2.0
loop_
 _atom_site_type_symbol
 _atom_site_label
 _atom_site_symmetry_multiplicity
 _atom_site_fract_x
 _atom_site_fract_y
 _atom_site_fract_z
 _atom_site_occupancy
  H+  H0  1  0.82162344  0.96502606  0.24033099  1
  H+  H1  1  0.54821040  0.46677007  0.82569222  1
  H+  H2  1  0.70982816  0.16085753  0.23948467  1
  H+  H3  1  0.16284910  0.67140066  0.53157633  1
  H+  H4  1  0.12796466  0.67354807  1.01668149  1
  H+  H5  1  0.12595542  0.84766958  0.20729951  1
  H+  H6  1  0.00788245  0.16271726  0.74275103  1
  H+  H7  1  0.85857570  0.81541648  0.47828013  1
  H+  H8  1  0.52022676  0.38517605  0.96557904  1
  H+  H9  1  0.29644757  0.16439786  0.48857520  1
  H+  H10  1  -0.09780504  0.47358485  0.81969941  1
  H+  H11  1  0.85703834  0.01923717  0.48480017  1
  H+  H12  1  0.85681725  0.13251360  0.24914357  1
  H+  H13  1  1.01149881  0.82205132  0.50944205  1
  H+  H14  1  0.37181399  0.52257631  0.23298292  1
  H+  H15  1  0.37238991  0.20502252  0.98532563  1
  H+  H16  1  1.01395426  0.48917755  0.48981602  1
  H+  H17  1  0.55742104  0.78242142  0.34969689  1
  H+  H18  1  0.82947454  0.68947894  0.74651563  1
  H+  H19  1  1.02310187  0.18737432  0.51150942  1
  H+  H20  1  0.80074192  0.12827540  0.73641770  1
  H+  H21  1  0.84087010  0.12762486  0.48561337  1
  H+  H22  1  0.80202736  0.38476355  0.46192143  1
  H+  H23  1  0.54085187  0.85121048  0.74573625  1
  H+  H24  1  0.40171178  0.89499232  0.27427822  1
  H+  H25  1  0.80705754  0.65817625  1.00586684  1
  H+  H26  1  0.18403903  0.15808259  0.23799175  1
  H+  H27  1  0.45680934  0.25521202  0.07063485  1
  H+  H28  1  0.15201599  0.49609359  0.23735696  1
  H+  H29  1  0.43491023  0.83587578  0.48581356  1
  H+  H30  1  0.94789951  0.51160778  0.97685287  1
  H+  H31  1  0.19127951  0.48274304  0.47879531  1
  H+  H32  1  -0.04157050  0.82207016  -0.01870463  1
  H+  H33  1  0.15354590  0.78182721  0.55790185  1
  H+  H34  1  0.47856348  0.19287002  0.49800023  1
  H+  H35  1  0.30470265  0.83984180  0.99230056  1
  H+  H36  1  0.68345317  0.83472944  0.72446800  1
  H+  H37  1  0.17191463  0.48399826  0.76121673  1
  H+  H38  1  0.56034663  0.79623995  0.83487777  1
  H+  H39  1  0.52262886  0.49830223  0.25085102  1
  H+  H40  1  0.63359750  0.24608038  0.78319108  1
  H+  H41  1  0.81900629  0.26537774  0.52304975  1
  H+  H42  1  -0.01088102  0.17652161  -0.00369387  1
  H+  H43  1  0.50023245  0.51780154  0.50767950  1
  H+  H44  1  0.18081232  0.04828625  0.98191179  1
  H+  H45  1  0.15405177  0.97553677  0.74769563  1
  H+  H46  1  0.14232713  0.19316960  0.52523769  1
  H+  H47  1  0.51781260  0.50322473  0.97217308  1
  H+  H48  1  0.13399547  0.96948887  0.21856405  1
  H+  H49  1  0.37214231  0.20799147  0.19553714  1
  H+  H50  1  0.15924784  0.19599495  0.00796107  1
  H+  H51  1  0.62327333  0.13797668  0.49588174  1
  H+  H52  1  0.37186816  0.52903717  -0.00190133  1
  H+  H53  1  0.26331604  0.12595302  0.30097167  1
  H+  H54  1  0.82082450  0.20089393  1.00873084  1
  H+  H55  1  0.48887033  0.86667302  0.00407718  1
  H+  H56  1  0.14572231  0.86726804  -0.00418292  1
  H+  H57  1  0.18886639  0.36718595  0.48994266  1
  H+  H58  1  0.71045406  0.83892236  0.49828186  1
  H+  H59  1  0.46729031  0.19985616  0.73338826  1
  H+  H60  1  0.51885484  0.17040532  0.98292291  1
  H+  H61  1  0.14094746  0.72185354  0.13965390  1
  H+  H62  1  0.82195107  0.98541594  0.01173881  1
  H+  H63  1  0.84251563  0.82701251  -0.01120619  1
  H+  H64  1  0.19207879  0.49217836  0.98729368  1
  H+  H65  1  0.13262380  0.93668466  0.51819110  1
  H+  H66  1  0.16538879  0.15681813  0.75861860  1
  H+  H67  1  0.88069818  0.45172212  0.37762186  1
  H+  H68  1  0.15571538  0.35918906  0.76904264  1
  H+  H69  1  -0.03837654  0.47544091  0.24841514  1
  H+  H70  1  0.28658653  0.16299843  0.75302019  1
  H+  H71  1  0.48879782  0.32416168  0.21413374  1
  H+  H72  1  0.63758811  0.82591373  0.26111522  1
  H+  H73  1  0.54939361  0.80550358  0.53584440  1
  H+  H74  1  0.51481072  0.68019299  0.50484479  1
  H+  H75  1  0.16461445  0.70059274  0.78814331  1
  H+  H76  1  0.51840466  0.71560936  0.98332496  1
  H+  H77  1  0.68735680  0.13499266  0.73069597  1
  H+  H78  1  0.08448831  0.57018109  0.09173655  1
  H+  H79  1  0.68111599  0.53113124  -0.00194373  1
  H+  H80  1  0.83640592  0.68470729  0.48210287  1
  H+  H81  1  0.03715495  0.17947830  0.24072476  1
  H+  H82  1  0.46066794  0.31275004  0.72396665  1
  H+  H83  1  0.14248551  0.60840118  0.22849528  1
  H+  H84  1  0.85470117  0.38063890  -0.03048775  1
  H+  H85  1  0.08837983  0.51277529  0.58041396  1
  H+  H86  1  0.79959162  0.82349826  0.72893806  1
  H+  H87  1  0.81098493  0.53663392  0.49749320  1
  H+  H88  1  0.19512784  0.36293523  0.25875655  1
  H+  H89  1  0.63551379  0.83415149  0.98645235  1
  H+  H90  1  0.70250606  0.19975889  0.00560512  1
  H+  H91  1  0.65566810  0.51047329  0.48100087  1
  H+  H92  1  0.86054362  0.51440864  0.73221628  1
  H+  H93  1  0.95156796  0.81227835  0.25070706  1
  H+  H94  1  0.18219884  0.82522716  0.77151254  1
  H+  H95  1  0.83017616  0.98258876  0.74341734  1
  H+  H96  1  0.53171881  0.38678710  0.47586555  1
  H+  H97  1  0.52963729  0.07099082  0.25113334  1
  H+  H98  1  0.26584587  0.79910406  0.17998581  1
  H+  H99  1  0.21723688  0.44776736  0.89342567  1
  H+  H100  1  0.21789167  0.12894538  0.89456745  1
  H+  H101  1  0.18760872  0.11419502  0.42197828  1
  H+  H102  1  0.80964809  0.63770332  0.22830701  1
  H+  H103  1  0.16183053  0.31626715  0.01031179  1
  H+  H104  1  0.50174672  0.00176198  0.71958934  1
  H+  H105  1  0.32900081  0.82936664  0.53845285  1
  H+  H106  1  0.43693720  0.23556721  0.58264386  1
  H+  H107  1  0.37935691  0.51136710  0.52042986  1
  H+  H108  1  0.48140862  0.52357935  0.66829474  1
  H+  H109  1  0.48411382  0.85127722  0.24277990  1
  H+  H110  1  0.49655905  0.03157161  0.48790596  1
  H+  H111  1  0.77096598  0.57005008  0.62087944  1
  H+  H112  1  0.23767624  0.44377043  0.34692648  1
  H+  H113  1  0.77834584  0.90149062  0.09795591  1
  H+  H114  1  0.85886067  0.76296877  0.83933691  1
  H+  H115  1  0.45114841  0.56786013  0.08688335  1
  H+  H116  1  0.51815022  0.05022071  0.98518297  1
  H+  H117  1  0.24563561  0.82584032  0.35017059  1
  H+  H118  1  0.03140484  0.53345315  0.71721498  1
  H+  H119  1  0.56384835  0.45837426  0.33964282  1
  H+  H120  1  0.48670775  0.64406706  0.23404281  1
  H+  H121  1  0.09319675  0.90026631  0.07994177  1
  H+  H122  1  0.10298383  0.88311843  0.66820290  1
  H+  H123  1  0.80634819  0.84010230  0.23761051  1
  H+  H124  1  0.45337501  0.90835796  0.09334271  1
  H+  H125  1  0.56810694  0.12357934  0.34966426  1
  H+  H126  1  0.08909855  0.22510381  0.65731019  1
  H+  H127  1  0.11644839  0.22972918  0.15056384  1
  H+  H128  1  0.78036783  0.87626089  0.59108446  1
  H+  H129  1  0.48099660  0.92794897  0.63095622  1
  H+  H130  1  0.92194344  0.18067436  0.91059078  1
  H+  H131  1  0.69070556  0.51794574  0.22768681  1
  H+  H132  1  0.15087743  0.63403406  0.66950964  1
  H+  H133  1  0.87984995  0.76664111  0.34431721  1
  H+  H134  1  0.69131134  0.52382648  0.71101607  1
  H+  H135  1  0.22382779  0.79570233  0.90284771  1
  H+  H136  1  0.90068160  0.10350375  0.34342623  1
  H+  H137  1  0.86589723  0.04300601  0.84147848  1
  H+  H138  1  0.85093984  0.48935497  0.24229707  1
  H+  H139  1  0.76523039  0.17666000  0.60440758  1
  H+  H140  1  0.56126822  0.14848180  0.85315389  1
  H+  H141  1  0.23740585  0.81004594  0.39978832  1
  H+  H142  1  0.78129419  0.20243777  0.14688150  1
  H+  H143  1  0.76000556  0.56736059  0.10136507  1
  O2-  O144  1  0.11934664  0.22461341  0.21850638  1
  O2-  O145  1  0.08814672  0.21831209  0.72513175  1
  O2-  O146  1  0.10459718  0.52715922  0.21135020  1
  O2-  O147  1  0.11301115  0.55634905  0.69548796  1
  O2-  O148  1  0.08365915  0.88957098  0.19724394  1
  O2-  O149  1  0.12589230  0.89443931  0.73269745  1
  O2-  O150  1  0.45261522  0.25299279  0.17715852  1
  O2-  O151  1  0.42316808  0.23167982  0.70351491  1
  O2-  O152  1  0.45107126  0.56608783  0.20740923  1
  O2-  O153  1  0.47975224  0.51874981  0.73617327  1
  O2-  O154  1  0.43963063  0.88797222  0.22030570  1
  O2-  O155  1  0.52787026  0.95633536  0.68701997  1
  O2-  O156  1  0.77455906  0.16311929  0.20521948  1
  O2-  O157  1  0.76633059  0.17131439  0.70888970  1
  O2-  O158  1  0.76932671  0.55982659  0.19873309  1
  O2-  O159  1  0.77170140  0.56462685  0.69176422  1
  O2-  O160  1  0.77094656  0.88566125  0.21559385  1
  O2-  O161  1  0.76432783  0.86840338  0.69917040  1
  O2-  O162  1  0.22540711  0.11201319  0.24227806  1
  O2-  O163  1  0.20991265  0.12120676  0.78218338  1
  O2-  O164  1  0.23601925  0.44465290  0.27854890  1
  O2-  O165  1  0.20023323  0.43840108  0.79285657  1
  O2-  O166  1  0.18456656  0.76132288  0.19580325  1
  O2-  O167  1  0.21777585  0.78133441  0.79946489  1
  O2-  O168  1  0.58614287  0.13843994  0.28397590  1
  O2-  O169  1  0.56759848  0.16904248  0.78605567  1
  O2-  O170  1  0.56194395  0.45624366  0.27083384  1
  O2-  O171  1  0.54109033  0.45733262  0.75749110  1
  O2-  O172  1  0.55582689  0.78637867  0.28274688  1
  O2-  O173  1  0.56165056  0.79459291  0.76773587  1
  O2-  O174  1  0.90625760  0.10120491  0.27588057  1
  O2-  O175  1  0.87151315  0.06139317  0.77680976  1
  O2-  O176  1  0.88421665  0.44834020  0.27358946  1
  O2-  O177  1  0.91000668  0.48358880  0.75234307  1
  O2-  O178  1  0.87240878  0.76728293  0.27521208  1
  O2-  O179  1  0.85877648  0.76768714  0.77258276  1
  O2-  O180  1  0.21026853  0.11825626  0.48531323  1
  O2-  O181  1  0.22346790  0.13038543  0.96319718  1
  O2-  O182  1  0.23720662  0.44554556  0.46408443  1
  O2-  O183  1  0.22940193  0.45177681  0.96414434  1
  O2-  O184  1  0.19997838  0.74364042  0.56731823  1
  O2-  O185  1  0.22342261  0.80168722  0.97273442  1
  O2-  O186  1  0.54608545  0.11250415  0.46977336  1
  O2-  O187  1  0.56108822  0.13068754  0.96273114  1
  O2-  O188  1  0.56967361  0.46653364  0.45375914  1
  O2-  O189  1  0.56213730  0.46819918  0.94635579  1
  O2-  O190  1  0.54985796  0.76300994  0.48237485  1
  O2-  O191  1  0.55566968  0.79716648  0.96361306  1
  O2-  O192  1  0.89280318  0.10057756  0.46300852  1
  O2-  O193  1  0.90938152  0.14120772  0.96876786  1
  O2-  O194  1  0.87734551  0.44847694  0.44809176  1
  O2-  O195  1  0.89151363  0.45355886  0.93544442  1
  O2-  O196  1  0.89171968  0.76920208  0.45504683  1
  O2-  O197  1  0.87416209  0.77822884  0.96774188  1
  O2-  O198  1  0.11945304  0.23603925  0.03419274  1
  O2-  O199  1  0.10075341  0.23437747  0.53990083  1
  O2-  O200  1  0.06278381  0.61778292  0.05560163  1
  O2-  O201  1  0.09352784  0.52154830  0.51273110  1
  O2-  O202  1  0.09843082  0.90297325  0.01197675  1
  O2-  O203  1  0.08753901  0.85956909  0.54327727  1
  O2-  O204  1  0.45524345  0.24937159  0.00124148  1
  O2-  O205  1  0.43803022  0.23474888  0.51471206  1
  O2-  O206  1  0.45314822  0.57102012  0.01890463  1
  O2-  O207  1  0.45944913  0.55172345  0.54287633  1
  O2-  O208  1  0.45001492  0.90897292  0.02646836  1
  O2-  O209  1  0.41351058  0.88181587  0.52318869  1
  O2-  O210  1  0.78248370  0.24287295  0.02881135  1
  O2-  O211  1  0.76449233  0.18499266  0.53445019  1
  O2-  O212  1  0.75969214  0.57455588  0.02915491  1
  O2-  O213  1  0.76781046  0.57306587  0.51771028  1
  O2-  O214  1  0.78000148  0.90426341  0.02957354  1
  O2-  O215  1  0.78901324  0.88353580  0.52212153  1
