# generated using pymatgen
data_H2O
_symmetry_space_group_name_H-M   'P 1'
_cell_length_a   13.52159930
_cell_length_b   13.51481288
_cell_length_c   14.71538556
_cell_angle_alpha   89.97746833
_cell_angle_beta   90.02879058
_cell_angle_gamma   120.04275659
_symmetry_Int_Tables_number   1
_chemical_formula_structural   H2O
_chemical_formula_sum   'H144 O72'
_cell_volume   2327.83954306
_cell_formula_units_Z   72
loop_
 _symmetry_equiv_pos_site_id
 _symmetry_equiv_pos_as_xyz
  1  'x, y, z'
loop_
 _atom_type_symbol
 _atom_type_oxidation_number
  H+  1.0
  O2-  -2.0
loop_
 _atom_site_type_symbol
 _atom_site_label
 _atom_site_symmetry_multiplicity
 _atom_site_fract_x
 _atom_site_fract_y
 _atom_site_fract_z
 _atom_site_occupancy
  H+  H0  1  0.82845586  0.69445877  0.76530029  1
  H+  H1  1  0.14883697  0.63316970  0.24235858  1
  H+  H2  1  0.81766634  0.29797743  0.01975150  1
  H+  H3  1  0.81681848  0.52383805  0.74107982  1
  H+  H4  1  0.81702911  0.17576965  0.02710232  1
  H+  H5  1  0.95974101  0.15707174  1.00641883  1
  H+  H6  1  0.18185547  0.69190089  0.99359390  1
  H+  H7  1  0.47848979  0.31625673  0.00475748  1
  H+  H8  1  0.22101036  0.77833026  0.34963316  1
  H+  H9  1  0.84131878  0.15993520  0.75010111  1
  H+  H10  1  0.16474254  0.31138410  0.24314351  1
  H+  H11  1  0.20173477  0.10349355  0.68098953  1
  H+  H12  1  0.11921894  0.23083741  0.10009254  1
  H+  H13  1  0.51505710  0.37846378  0.74918298  1
  H+  H14  1  0.49605965  0.53394149  0.74533749  1
  H+  H15  1  -0.04147088  0.48732500  0.74712336  1
  H+  H16  1  0.32537353  0.17550547  0.49721436  1
  H+  H17  1  0.01113106  0.19031115  0.74952239  1
  H+  H18  1  0.82447243  0.63341566  -0.00391639  1
  H+  H19  1  0.84614516  0.36415639  0.48530835  1
  H+  H20  1  0.10591617  0.55164002  0.09832392  1
  H+  H21  1  0.20097883  0.38268719  0.76849753  1
  H+  H22  1  0.51445343  0.58241003  0.49871464  1
  H+  H23  1  0.37811524  0.19221702  0.24720077  1
  H+  H24  1  0.92422152  0.82736532  0.76721468  1
  H+  H25  1  0.20730667  0.81056685  0.76555604  1
  H+  H26  1  0.87371039  0.83640115  0.26438966  1
  H+  H27  1  0.14793240  0.19089734  0.00656805  1
  H+  H28  1  -0.02283677  0.81792311  -0.00581473  1
  H+  H29  1  0.80936186  0.30104635  0.24691795  1
  H+  H30  1  0.48968213  0.65567552  0.75772840  1
  H+  H31  1  0.48546715  0.52454876  0.00160876  1
  H+  H32  1  0.63122152  0.48881689  0.96884573  1
  H+  H33  1  0.88388440  0.43237936  0.34876194  1
  H+  H34  1  0.44935778  0.23698798  0.15556533  1
  H+  H35  1  0.85891154  0.15112681  0.26634956  1
  H+  H36  1  0.52326607  0.15714590  0.25236714  1
  H+  H37  1  0.48861132  -0.03981047  0.50905014  1
  H+  H38  1  0.35673172  0.19305996  0.74564958  1
  H+  H39  1  0.15056594  0.15228126  0.74933694  1
  H+  H40  1  0.96443131  0.48361706  0.48281444  1
  H+  H41  1  0.18655612  0.37354587  0.99461553  1
  H+  H42  1  0.46975170  0.18235241  0.74183039  1
  H+  H43  1  0.95032973  0.12275151  0.50256077  1
  H+  H44  1  0.52335143  0.37428831  0.26664856  1
  H+  H45  1  0.82753297  0.00994588  0.49404776  1
  H+  H46  1  0.97013317  0.47368166  0.98459956  1
  H+  H47  1  0.49947229  0.20708086  0.51985906  1
  H+  H48  1  0.13955398  0.61946951  0.73620808  1
  H+  H49  1  0.51971590  0.49114246  0.25874094  1
  H+  H50  1  0.47886363  0.19937682  0.02306547  1
  H+  H51  1  0.04681728  0.87301761  0.50954291  1
  H+  H52  1  0.61231631  0.77676345  0.50122149  1
  H+  H53  1  0.87424933  0.72000688  0.28525313  1
  H+  H54  1  0.15032077  0.51589047  1.01032853  1
  H+  H55  1  0.36578724  0.83785093  0.73914862  1
  H+  H56  1  0.32335868  0.52540323  0.49300331  1
  H+  H57  1  0.36741781  0.85530805  0.25268804  1
  H+  H58  1  0.85287646  0.47345272  0.97187235  1
  H+  H59  1  0.50772374  0.82069105  0.76419133  1
  H+  H60  1  0.19138450  0.82208047  0.25730268  1
  H+  H61  1  0.04830975  0.19134051  0.24535628  1
  H+  H62  1  0.37040987  0.51162025  0.23219808  1
  H+  H63  1  0.63866653  0.15872584  1.02767493  1
  H+  H64  1  0.51523941  0.82141228  -0.00227103  1
  H+  H65  1  0.78529294  0.56968839  0.65056213  1
  H+  H66  1  0.81469701  0.17745248  0.50773785  1
  H+  H67  1  0.30608549  0.49337322  0.99698648  1
  H+  H68  1  0.69170308  0.19379130  0.71998756  1
  H+  H69  1  0.63788233  0.49573101  0.74801564  1
  H+  H70  1  0.63764494  0.15202581  0.49674190  1
  H+  H71  1  0.81607799  0.84922566  0.01216407  1
  H+  H72  1  0.75392742  0.87567027  0.59948851  1
  H+  H73  1  0.69717358  0.84881803  0.01064465  1
  H+  H74  1  0.88437722  0.43933388  0.83886732  1
  H+  H75  1  0.18871194  0.82804325  0.48793544  1
  H+  H76  1  0.78857991  0.84839533  0.74419962  1
  H+  H77  1  0.36209464  0.84288996  0.01884981  1
  H+  H78  1  0.19021201  0.81515444  0.98573874  1
  H+  H79  1  0.30155809  0.81760853  0.49065616  1
  H+  H80  1  0.80511792  0.84180245  0.51380581  1
  H+  H81  1  0.13737425  0.90640478  0.08607470  1
  H+  H82  1  0.69771154  0.52206727  0.26235188  1
  H+  H83  1  0.50070148  0.02112653  0.73115888  1
  H+  H84  1  0.82084709  0.52538446  0.50613627  1
  H+  H85  1  0.67439704  0.17173566  0.24354964  1
  H+  H86  1  0.36254919  0.52098959  0.75999014  1
  H+  H87  1  0.51461953  0.70278534  0.99137851  1
  H+  H88  1  0.14274332  0.63919474  0.50247665  1
  H+  H89  1  0.03285719  0.51141640  0.24236556  1
  H+  H90  1  0.67783782  0.85678533  0.74103585  1
  H+  H91  1  0.17899574  0.98723242  0.23529935  1
  H+  H92  1  0.06393356  0.81741059  0.72779186  1
  H+  H93  1  0.16378186  -0.02335941  0.99365199  1
  H+  H94  1  0.10165897  0.24157450  0.44770522  1
  H+  H95  1  0.52512634  0.40475975  0.50007750  1
  H+  H96  1  0.18930713  0.48925000  0.25966956  1
  H+  H97  1  0.20704872  0.05316869  0.49372322  1
  H+  H98  1  0.84617993  0.47535509  0.26186995  1
  H+  H99  1  0.47672529  0.96486721  0.02886603  1
  H+  H100  1  0.84035304  0.97298351  0.23970968  1
  H+  H101  1  0.14555379  0.95129198  0.74603804  1
  H+  H102  1  0.15002417  0.52549044  0.50488924  1
  H+  H103  1  0.21641683  0.39851653  0.50138743  1
  H+  H104  1  0.50116454  0.80230066  0.26938729  1
  H+  H105  1  0.30289562  0.16694754  0.98012461  1
  H+  H106  1  0.20057604  0.16500234  0.26317037  1
  H+  H107  1  0.77440846  0.22235498  0.14943055  1
  H+  H108  1  0.45480892  0.24510047  0.60623230  1
  H+  H109  1  0.55569356  0.11556093  0.41141084  1
  H+  H110  1  0.09154100  0.55348907  0.64227230  1
  H+  H111  1  0.09746287  0.24357242  0.66572361  1
  H+  H112  1  0.24218695  0.12715493  0.35226687  1
  H+  H113  1  0.55902818  0.09876256  0.81429778  1
  H+  H114  1  0.52575382  0.74317536  0.35319850  1
  H+  H115  1  0.89442413  0.10874554  0.35468651  1
  H+  H116  1  0.23660475  0.76258599  0.85396208  1
  H+  H117  1  0.84038575  0.04189059  0.75080836  1
  H+  H118  1  0.05994582  0.87227552  0.23334330  1
  H+  H119  1  0.90912931  0.80524992  0.41064936  1
  H+  H120  1  0.44362755  0.88733967  0.16334367  1
  H+  H121  1  0.16682336  0.19345822  0.50228116  1
  H+  H122  1  0.86865041  0.72005599  0.49622880  1
  H+  H123  1  0.23706376  0.45961000  0.34880673  1
  H+  H124  1  0.71019436  0.53969085  0.50903314  1
  H+  H125  1  0.45169251  0.56124785  0.09561542  1
  H+  H126  1  0.88683000  0.77760741  0.91211932  1
  H+  H127  1  0.54856046  0.78590807  0.85834952  1
  H+  H128  1  0.44055722  0.87600857  0.64568724  1
  H+  H129  1  0.78973757  0.59917698  0.18866347  1
  H+  H130  1  0.55652807  0.12794678  0.94500835  1
  H+  H131  1  0.24340796  0.45832716  0.85969049  1
  H+  H132  1  0.81021852  0.31364746  0.73074272  1
  H+  H133  1  0.78153884  0.22828410  0.59353254  1
  H+  H134  1  0.56169149  0.47081215  0.40634886  1
  H+  H135  1  0.84307223  0.03573133  1.00686207  1
  H+  H136  1  0.52076415  0.03384353  0.25663538  1
  H+  H137  1  0.13363123  0.90392812  0.59291614  1
  H+  H138  1  0.79272132  0.88962254  0.15484104  1
  H+  H139  1  0.76590834  0.52510598  0.06237313  1
  H+  H140  1  0.54543918  0.45019735  0.88616181  1
  H+  H141  1  0.48419067  0.63177093  0.23687601  1
  H+  H142  1  0.47733540  0.83480395  0.50908765  1
  H+  H143  1  0.22422387  0.12775454  0.89130824  1
  O2-  O144  1  0.12785035  0.23035892  0.22111139  1
  O2-  O145  1  0.09734489  0.23323939  0.73153917  1
  O2-  O146  1  0.11223323  0.55297235  0.21869550  1
  O2-  O147  1  0.08307198  0.54554249  0.70932266  1
  O2-  O148  1  0.13920281  0.90833774  0.20910420  1
  O2-  O149  1  0.13936981  0.88282226  0.71564809  1
  O2-  O150  1  0.45844159  0.23139042  0.22225649  1
  O2-  O151  1  0.43723598  0.23208862  0.72550074  1
  O2-  O152  1  0.45080118  0.55150757  0.20999529  1
  O2-  O153  1  0.44976640  0.57294899  0.73313500  1
  O2-  O154  1  0.44866495  0.89769136  0.23084931  1
  O2-  O155  1  0.44534443  0.88583109  0.71354690  1
  O2-  O156  1  0.76652649  0.21832301  0.22176188  1
  O2-  O157  1  0.77403203  0.23353657  0.70532011  1
  O2-  O158  1  0.78248470  0.56175202  0.24674272  1
  O2-  O159  1  0.77865478  0.56742755  0.71857604  1
  O2-  O160  1  0.80671057  0.89238466  0.22123849  1
  O2-  O161  1  0.75654998  0.89164658  0.71431770  1
  O2-  O162  1  0.24261000  0.12561581  0.28450424  1
  O2-  O163  1  0.19267735  0.10661500  0.74669150  1
  O2-  O164  1  0.23095403  0.45005016  0.28170385  1
  O2-  O165  1  0.25393763  0.46032650  0.79188519  1
  O2-  O166  1  0.22437011  0.77578153  0.28167315  1
  O2-  O167  1  0.23902143  0.76238038  0.78559125  1
  O2-  O168  1  0.56656933  0.11836066  0.27407019  1
  O2-  O169  1  0.53989848  0.10452051  0.75158054  1
  O2-  O170  1  0.56155772  0.45502160  0.28851288  1
  O2-  O171  1  0.55648130  0.45969792  0.76971377  1
  O2-  O172  1  0.52933875  0.75001608  0.28650838  1
  O2-  O173  1  0.54752033  0.78064221  0.78954237  1
  O2-  O174  1  0.90704259  0.12037498  0.28772317  1
  O2-  O175  1  0.88378692  0.12215358  0.77182782  1
  O2-  O176  1  0.88127183  0.42849238  0.27964661  1
  O2-  O177  1  0.87663467  0.44679800  0.77230548  1
  O2-  O178  1  0.91909645  0.80320524  0.29512295  1
  O2-  O179  1  0.85383513  0.77079326  0.79641912  1
  O2-  O180  1  0.24485516  0.13462133  0.47310855  1
  O2-  O181  1  0.22210367  0.12133476  0.95749806  1
  O2-  O182  1  0.24332408  0.47358562  0.47259280  1
  O2-  O183  1  0.22617746  0.45445843  0.97223560  1
  O2-  O184  1  0.22171435  0.78055173  0.46692397  1
  O2-  O185  1  0.22939134  0.77165107  0.96897468  1
  O2-  O186  1  0.55466701  0.11240397  0.47837339  1
  O2-  O187  1  0.55465642  0.12181867  1.01088686  1
  O2-  O188  1  0.56625408  0.48271847  0.47369862  1
  O2-  O189  1  0.54833365  0.45005569  0.95416457  1
  O2-  O190  1  0.53087678  0.73619656  0.47739564  1
  O2-  O191  1  0.55558328  0.78416687  0.96936840  1
  O2-  O192  1  0.87483111  0.09176220  0.47358367  1
  O2-  O193  1  0.87639768  0.11899418  0.99471081  1
  O2-  O194  1  0.88340915  0.44351537  0.46000244  1
  O2-  O195  1  0.89014680  0.42746326  0.96017036  1
  O2-  O196  1  0.90589554  0.80258700  0.47913922  1
  O2-  O197  1  0.89384883  0.77345414  0.97918756  1
  O2-  O198  1  0.11236261  0.23336716  0.03266015  1
  O2-  O199  1  0.11763942  0.22988696  0.51031785  1
  O2-  O200  1  0.10548119  0.55294865  0.03044585  1
  O2-  O201  1  0.10063297  0.55751387  0.52241603  1
  O2-  O202  1  0.12815678  0.89751191  0.01872723  1
  O2-  O203  1  0.13031280  0.91176953  0.52638051  1
  O2-  O204  1  0.43450215  0.23867928  0.03350788  1
  O2-  O205  1  0.46084456  0.25009549  0.53872118  1
  O2-  O206  1  0.44721461  0.56504162  0.02740708  1
  O2-  O207  1  0.47369093  0.62238297  0.52158684  1
  O2-  O208  1  0.44116861  0.88315457  0.04551079  1
  O2-  O209  1  0.44252986  0.87989263  0.53128435  1
  O2-  O210  1  0.77638943  0.22150185  0.05084565  1
  O2-  O211  1  0.77827865  0.22306756  0.52509274  1
  O2-  O212  1  0.77651340  0.54673625  -0.00150837  1
  O2-  O213  1  0.79034460  0.57308214  0.53188427  1
  O2-  O214  1  0.77728861  0.89039840  0.03389742  1
  O2-  O215  1  0.75192262  0.86992931  0.53133848  1
