# generated using pymatgen
data_H2O
_symmetry_space_group_name_H-M   'P 1'
_cell_length_a   13.52467692
_cell_length_b   13.52994202
_cell_length_c   14.70682635
_cell_angle_alpha   90.05830740
_cell_angle_beta   89.99726480
_cell_angle_gamma   119.97503528
_symmetry_Int_Tables_number   1
_chemical_formula_structural   H2O
_chemical_formula_sum   'H144 O72'
_cell_volume   2331.20969904
_cell_formula_units_Z   72
loop_
 _symmetry_equiv_pos_site_id
 _symmetry_equiv_pos_as_xyz
  1  'x, y, z'
loop_
 _atom_type_symbol
 _atom_type_oxidation_number
  H+  1.0
  O2-  -2.0
loop_
 _atom_site_type_symbol
 _atom_site_label
 _atom_site_symmetry_multiplicity
 _atom_site_fract_x
 _atom_site_fract_y
 _atom_site_fract_z
 _atom_site_occupancy
  H+  H0  1  0.85042246  0.47880868  0.75779835  1
  H+  H1  1  0.15456226  0.18976228  0.23614754  1
  H+  H2  1  0.52744749  0.03617739  0.98826646  1
  H+  H3  1  0.82583871  0.85920568  0.23955485  1
  H+  H4  1  0.84563757  0.15673880  0.48995779  1
  H+  H5  1  0.85714144  0.48917249  0.98468714  1
  H+  H6  1  0.15621870  0.64386279  0.24219723  1
  H+  H7  1  0.80348922  0.18398494  0.22731874  1
  H+  H8  1  0.68094619  0.15998843  0.50774165  1
  H+  H9  1  0.29341052  0.14330710  0.79017952  1
  H+  H10  1  0.15500248  0.85711995  0.75530425  1
  H+  H11  1  0.15713969  0.52087061  0.73975251  1
  H+  H12  1  0.85363660  0.04417378  0.25164573  1
  H+  H13  1  0.12430077  0.15517075  0.00757499  1
  H+  H14  1  0.07806216  0.95231749  0.54827056  1
  H+  H15  1  0.71616529  0.50505162  0.22291085  1
  H+  H16  1  0.83975228  0.78728619  0.98951913  1
  H+  H17  1  0.14100573  0.51769613  0.24759747  1
  H+  H18  1  0.10659587  0.89155651  0.62524613  1
  H+  H19  1  0.64661483  0.16925536  -0.01920422  1
  H+  H20  1  0.35707614  0.50364201  0.00906820  1
  H+  H21  1  0.93488142  0.57400200  0.34744718  1
  H+  H22  1  1.03676794  0.51710173  0.74194086  1
  H+  H23  1  0.88968133  0.77065254  0.33973839  1
  H+  H24  1  0.64684364  0.48871158  -0.03318109  1
  H+  H25  1  0.35538195  0.84046908  0.51232226  1
  H+  H26  1  0.04691566  0.51629368  0.00712364  1
  H+  H27  1  0.17822411  0.14633737  0.79271067  1
  H+  H28  1  0.68156609  0.81690368  0.52083606  1
  H+  H29  1  0.53651831  0.35323963  0.25805521  1
  H+  H30  1  0.84958274  0.36071207  0.75787938  1
  H+  H31  1  0.44039510  0.23356615  0.14801598  1
  H+  H32  1  0.20425673  0.16486193  0.49262353  1
  H+  H33  1  0.48791737  0.86438375  0.23907184  1
  H+  H34  1  0.18779972  0.82381370  0.26055167  1
  H+  H35  1  0.19002233  0.37578196  0.98174213  1
  H+  H36  1  0.14791741  0.97242266  0.76745930  1
  H+  H37  1  0.88094253  0.10671936  0.84956731  1
  H+  H38  1  0.47304310  0.17155695  0.76161743  1
  H+  H39  1  0.22638040  0.05923661  0.48706474  1
  H+  H40  1  0.81030247  0.17617839  0.74307190  1
  H+  H41  1  0.30580499  0.16264628  0.25163728  1
  H+  H42  1  0.03552246  0.19099243  0.23302217  1
  H+  H43  1  0.81230142  0.62311002  0.52453203  1
  H+  H44  1  0.50396044  0.03259925  0.25275157  1
  H+  H45  1  0.82942027  0.92884526  -0.02059842  1
  H+  H46  1  0.19480567  0.84883921  -0.02263700  1
  H+  H47  1  0.16222170  0.97861800  0.23777828  1
  H+  H48  1  0.04624334  0.50496483  0.51421871  1
  H+  H49  1  0.55777287  0.47801103  0.25889625  1
  H+  H50  1  0.36610758  0.50843977  0.50696953  1
  H+  H51  1  0.87755794  0.06420186  0.45651917  1
  H+  H52  1  0.17869194  0.68868545  0.49445821  1
  H+  H53  1  0.95047834  0.14697083  0.99889858  1
  H+  H54  1  0.82054477  0.63341812  0.74652178  1
  H+  H55  1  0.17316186  0.80380163  0.49423428  1
  H+  H56  1  0.03337102  0.18418736  0.74868725  1
  H+  H57  1  0.69701521  0.84260678  -0.00023149  1
  H+  H58  1  0.81635588  0.62167373  -0.00555284  1
  H+  H59  1  0.52969521  0.36698249  0.49561522  1
  H+  H60  1  0.50095985  0.19250835  0.50561372  1
  H+  H61  1  0.19306248  0.49594030  0.99120763  1
  H+  H62  1  0.31764513  0.85738286  0.97708898  1
  H+  H63  1  0.16984352  0.30484112  0.51589532  1
  H+  H64  1  0.69422354  0.83758060  0.75732271  1
  H+  H65  1  0.79994023  0.92777472  0.54120169  1
  H+  H66  1  0.50800457  0.01881666  0.76232717  1
  H+  H67  1  0.51893579  0.70671456  0.99233036  1
  H+  H68  1  0.62404254  0.14977216  0.25428283  1
  H+  H69  1  0.39229966  0.20686718  0.50476728  1
  H+  H70  1  0.37188013  0.51557756  0.73742728  1
  H+  H71  1  0.51080244  0.69050411  0.49345161  1
  H+  H72  1  0.04421161  0.86095835  0.23860642  1
  H+  H73  1  0.18811568  0.71021289  0.76261378  1
  H+  H74  1  0.81251397  0.32124681  0.00061555  1
  H+  H75  1  0.52803973  0.50225339  0.74115029  1
  H+  H76  1  0.53738369  0.50520297  0.96163529  1
  H+  H77  1  0.28736585  0.14516656  0.94050878  1
  H+  H78  1  0.84929905  0.02402794  0.76424078  1
  H+  H79  1  -0.03886573  0.79528657  0.49174832  1
  H+  H80  1  0.62852853  0.13976701  0.76052106  1
  H+  H81  1  0.77575697  0.55261377  0.65144969  1
  H+  H82  1  1.02951219  0.84075227  1.00678383  1
  H+  H83  1  0.84324498  0.79380865  0.48958940  1
  H+  H84  1  0.97474743  0.81403513  0.76761000  1
  H+  H85  1  0.66953674  0.50973496  0.74396288  1
  H+  H86  1  0.36035986  0.85072439  0.74355830  1
  H+  H87  1  0.19009305  0.48247811  0.49941006  1
  H+  H88  1  0.48198689  0.18050764  0.23036898  1
  H+  H89  1  0.50390986  0.02177167  0.48520015  1
  H+  H90  1  0.05245111  0.19069977  0.51240039  1
  H+  H91  1  0.64527593  0.83981201  0.26701829  1
  H+  H92  1  0.48736899  0.51200274  0.50784247  1
  H+  H93  1  0.19022840  0.36864252  0.76095727  1
  H+  H94  1  0.96277297  0.34314850  0.44246369  1
  H+  H95  1  0.99169423  0.52677728  0.27720775  1
  H+  H96  1  0.47490864  0.84287622  0.51576387  1
  H+  H97  1  0.28422789  0.49396944  0.25918641  1
  H+  H98  1  0.45150260  0.29328911  0.98710451  1
  H+  H99  1  0.51071295  0.69860906  0.75992794  1
  H+  H100  1  0.12023146  0.55481409  0.09734459  1
  H+  H101  1  0.47314811  0.28665915  0.74089470  1
  H+  H102  1  0.81878163  1.05519314  0.01518316  1
  H+  H103  1  0.52017765  0.73111348  0.26123325  1
  H+  H104  1  0.85708868  0.70450277  0.24458605  1
  H+  H105  1  0.49709166  0.86735629  0.00672791  1
  H+  H106  1  0.17739795  0.36618016  0.25637695  1
  H+  H107  1  0.45974748  0.55659983  0.24009657  1
  H+  H108  1  0.90017453  0.44909996  0.89871537  1
  H+  H109  1  0.42703148  0.45801174  0.06283301  1
  H+  H110  1  0.44825071  0.55885622  0.64651578  1
  H+  H111  1  0.84033056  0.52596879  0.22284094  1
  H+  H112  1  0.23371099  0.79888626  0.84924402  1
  H+  H113  1  0.91906280  0.42221534  0.39968705  1
  H+  H114  1  0.56789812  0.46027509  0.83340172  1
  H+  H115  1  0.51014270  0.81740355  0.76157176  1
  H+  H116  1  0.42946476  0.58453116  0.14532352  1
  H+  H117  1  0.55136090  0.77716288  0.89925250  1
  H+  H118  1  0.21679484  0.44019095  0.40496728  1
  H+  H119  1  0.54595878  0.10191655  0.39547709  1
  H+  H120  1  0.75642092  0.22614374  0.14640745  1
  H+  H121  1  0.78353928  0.89475338  0.15152451  1
  H+  H122  1  0.55872004  0.78209643  0.41103493  1
  H+  H123  1  0.57606181  0.44743609  0.40799833  1
  H+  H124  1  0.22301984  0.77811153  0.34901064  1
  H+  H125  1  0.77346661  0.53900387  0.08078376  1
  H+  H126  1  0.11850640  0.55942626  0.60635665  1
  H+  H127  1  0.11470169  0.89413931  0.08942711  1
  H+  H128  1  0.10114085  0.20774887  0.09533443  1
  H+  H129  1  0.76881650  0.85809798  0.66931759  1
  H+  H130  1  0.55802223  0.10794127  0.88639048  1
  H+  H131  1  0.76449810  0.21025457  0.65568743  1
  H+  H132  1  0.11909440  0.22164931  0.66459221  1
  H+  H133  1  0.80869581  0.20150350  0.00362973  1
  H+  H134  1  0.44009125  0.88939613  0.65452930  1
  H+  H135  1  0.89004097  0.76070239  0.89915646  1
  H+  H136  1  0.89346821  0.13739542  0.33140375  1
  H+  H137  1  0.80340459  0.27538889  0.51145578  1
  H+  H138  1  0.36287631  0.85028819  0.23497595  1
  H+  H139  1  0.23231467  0.12662101  0.34200943  1
  H+  H140  1  0.69271551  0.50761172  0.52717362  1
  H+  H141  1  0.23689586  0.45714361  0.84347542  1
  H+  H142  1  0.45706770  0.90942531  0.09467258  1
  H+  H143  1  0.85071113  0.80560450  0.76895087  1
  O2-  O144  1  0.11627643  0.23122086  0.21084048  1
  O2-  O145  1  0.11568676  0.22541481  0.73181639  1
  O2-  O146  1  0.10617775  0.56211509  0.22313949  1
  O2-  O147  1  0.11674214  0.56149828  0.71879140  1
  O2-  O148  1  0.12483797  0.89696659  0.21854439  1
  O2-  O149  1  0.10984295  0.89507140  0.73698295  1
  O2-  O150  1  0.44793943  0.23020590  0.21457924  1
  O2-  O151  1  0.42361729  0.20523345  0.75224325  1
  O2-  O152  1  0.42581456  0.59787437  0.21219873  1
  O2-  O153  1  0.45307276  0.55989312  0.71478348  1
  O2-  O154  1  0.44221608  0.89489990  0.20989369  1
  O2-  O155  1  0.44309878  0.88872759  0.72249657  1
  O2-  O156  1  0.75389746  0.21638900  0.21310433  1
  O2-  O157  1  0.76828387  0.21559857  0.72351137  1
  O2-  O158  1  0.79227004  0.55374158  0.19412653  1
  O2-  O159  1  0.77277084  0.55188889  0.72432255  1
  O2-  O160  1  0.78589402  0.90057766  0.21859173  1
  O2-  O161  1  0.77517847  0.87194425  0.73601164  1
  O2-  O162  1  0.22554312  0.12271960  0.27452953  1
  O2-  O163  1  0.21484094  0.10478429  0.81818392  1
  O2-  O164  1  0.20825685  0.44328510  0.28591931  1
  O2-  O165  1  0.23479436  0.45220930  0.77576254  1
  O2-  O166  1  0.22613190  0.78035528  0.28127087  1
  O2-  O167  1  0.22926036  0.79240501  0.77869879  1
  O2-  O168  1  0.54245523  0.11213433  0.27736178  1
  O2-  O169  1  0.54991916  0.09968388  0.78735045  1
  O2-  O170  1  0.58974968  0.43304151  0.28269811  1
  O2-  O171  1  0.57206488  0.46341173  0.76331875  1
  O2-  O172  1  0.56630349  0.80603780  0.29184408  1
  O2-  O173  1  0.55002631  0.77719410  0.78654681  1
  O2-  O174  1  0.89328964  0.12789880  0.26477223  1
  O2-  O175  1  0.88584922  0.10580567  0.78244808  1
  O2-  O176  1  0.91914767  0.50561114  0.31350711  1
  O2-  O177  1  0.89357877  0.44168246  0.77899178  1
  O2-  O178  1  0.89290283  0.78160268  0.27265197  1
  O2-  O179  1  0.89204059  0.76444937  0.78660718  1
  O2-  O180  1  0.24963239  0.13427753  0.46123370  1
  O2-  O181  1  0.31310254  0.14267228  1.00352265  1
  O2-  O182  1  0.22421702  0.43815222  0.47254947  1
  O2-  O183  1  0.23623907  0.45668649  0.96457442  1
  O2-  O184  1  0.21581771  0.76887653  0.46938808  1
  O2-  O185  1  0.24077313  0.81623249  0.95059008  1
  O2-  O186  1  0.55081045  0.10202285  0.46348244  1
  O2-  O187  1  0.56365205  0.11601955  0.95778681  1
  O2-  O188  1  0.56612411  0.45051713  0.47433628  1
  O2-  O189  1  0.56911412  0.45918574  0.93710090  1
  O2-  O190  1  0.55575291  0.77424860  0.47869185  1
  O2-  O191  1  0.56038139  0.78433190  0.96787036  1
  O2-  O192  1  0.90694084  0.14612519  0.45832901  1
  O2-  O193  1  0.87029201  0.11740742  0.97507094  1
  O2-  O194  1  0.92884993  0.38986315  0.45833175  1
  O2-  O195  1  0.89924927  0.44843745  0.96654104  1
  O2-  O196  1  0.88486502  0.75733601  0.46284630  1
  O2-  O197  1  0.88525335  0.75343865  0.96745259  1
  O2-  O198  1  0.08913223  0.19952886  0.02761032  1
  O2-  O199  1  0.13011821  0.22356199  0.53795016  1
  O2-  O200  1  0.12572030  0.54867122  0.03078764  1
  O2-  O201  1  0.12426532  0.55799593  0.53772418  1
  O2-  O202  1  0.11003500  0.89416813  0.02251052  1
  O2-  O203  1  0.09938693  0.89382565  0.55632857  1
  O2-  O204  1  0.38844191  0.26317425  0.03155475  1
  O2-  O205  1  0.47115664  0.24186100  0.52833714  1
  O2-  O206  1  0.43427951  0.52969007  0.04069181  1
  O2-  O207  1  0.44638924  0.55228307  0.53004245  1
  O2-  O208  1  0.46673843  0.91713541  0.02684545  1
  O2-  O209  1  0.43541496  0.88451681  0.53564176  1
  O2-  O210  1  0.76384091  0.23844747  0.02125329  1
  O2-  O211  1  0.75989927  0.19657479  0.53589868  1
  O2-  O212  1  0.77083764  0.53839245  0.01254252  1
  O2-  O213  1  0.77145234  0.54773574  0.55481342  1
  O2-  O214  1  0.77709057  0.87540234  0.02460422  1
  O2-  O215  1  0.76098285  0.84524317  0.54797476  1
