# generated using pymatgen
data_H2O
_symmetry_space_group_name_H-M   'P 1'
_cell_length_a   13.47062093
_cell_length_b   13.49673084
_cell_length_c   14.67951956
_cell_angle_alpha   90.06195261
_cell_angle_beta   90.03758887
_cell_angle_gamma   120.05024830
_symmetry_Int_Tables_number   1
_chemical_formula_structural   H2O
_chemical_formula_sum   'H144 O72'
_cell_volume   2310.13779127
_cell_formula_units_Z   72
loop_
 _symmetry_equiv_pos_site_id
 _symmetry_equiv_pos_as_xyz
  1  'x, y, z'
loop_
 _atom_type_symbol
 _atom_type_oxidation_number
  H+  1.0
  O2-  -2.0
loop_
 _atom_site_type_symbol
 _atom_site_label
 _atom_site_symmetry_multiplicity
 _atom_site_fract_x
 _atom_site_fract_y
 _atom_site_fract_z
 _atom_site_occupancy
  H+  H0  1  0.30765602  0.48620487  0.74412970  1
  H+  H1  1  0.46358239  0.49858788  -0.01632426  1
  H+  H2  1  0.81934211  0.63046737  0.99570117  1
  H+  H3  1  0.82281466  0.30244420  0.52343252  1
  H+  H4  1  0.18040798  0.48446110  0.27267789  1
  H+  H5  1  0.61906310  0.76636694  0.87807193  1
  H+  H6  1  0.52205641  0.04082480  1.00857131  1
  H+  H7  1  0.10369931  0.55321765  0.65011529  1
  H+  H8  1  0.14552694  0.79603053  0.48760471  1
  H+  H9  1  0.51135570  0.86760550  0.73690050  1
  H+  H10  1  0.83211897  0.64032382  0.22084788  1
  H+  H11  1  0.63654933  0.46250905  0.75488596  1
  H+  H12  1  0.72804124  0.85813593  0.00357942  1
  H+  H13  1  0.88680764  0.11031371  0.85131498  1
  H+  H14  1  0.35270144  0.17087038  0.76033587  1
  H+  H15  1  0.79226544  0.83994187  0.55370193  1
  H+  H16  1  0.03080116  0.84014933  0.01181988  1
  H+  H17  1  0.46029880  0.84209964  0.03243910  1
  H+  H18  1  0.05171260  0.19553024  0.21500487  1
  H+  H19  1  0.18907929  0.48517632  0.74514274  1
  H+  H20  1  1.00781253  0.85365065  0.51577994  1
  H+  H21  1  0.82244463  0.82114518  0.77527982  1
  H+  H22  1  0.13806337  0.30268890  0.50904377  1
  H+  H23  1  0.48631202  0.54060221  0.50423775  1
  H+  H24  1  0.48971652  -0.02915386  0.75165011  1
  H+  H25  1  0.50935955  0.52472025  0.73581514  1
  H+  H26  1  0.34909772  0.84960234  0.01552599  1
  H+  H27  1  0.17152424  0.14515309  0.76046371  1
  H+  H28  1  0.05067958  0.86303696  0.23481541  1
  H+  H29  1  0.17634743  0.81350015  0.98917880  1
  H+  H30  1  0.47246954  0.53834603  0.21824764  1
  H+  H31  1  0.52341131  0.40011737  0.23756026  1
  H+  H32  1  0.36602973  0.20329200  0.23459958  1
  H+  H33  1  0.55367888  0.77730156  0.36236983  1
  H+  H34  1  0.82318250  0.52360720  0.49360431  1
  H+  H35  1  0.84613664  0.97551156  0.01091951  1
  H+  H36  1  0.16439556  0.49325818  1.00004847  1
  H+  H37  1  0.84696761  0.47967563  0.25114714  1
  H+  H38  1  0.19592327  0.82421228  0.25665422  1
  H+  H39  1  0.18650035  0.81808090  0.75771303  1
  H+  H40  1  0.55594108  0.34906899  0.53332690  1
  H+  H41  1  0.88075063  0.43877466  0.39806981  1
  H+  H42  1  0.44573491  0.88960758  0.16928049  1
  H+  H43  1  0.55727695  0.82068278  0.92785943  1
  H+  H44  1  0.60672008  0.70814967  0.74231068  1
  H+  H45  1  0.84096637  0.14433900  0.24069457  1
  H+  H46  1  0.96503466  0.48071234  0.25787796  1
  H+  H47  1  0.12795609  0.62437536  0.50769275  1
  H+  H48  1  0.32735182  0.11291551  0.52623732  1
  H+  H49  1  0.83278362  -0.02994375  0.28877993  1
  H+  H50  1  0.18334099  0.15117373  0.48558537  1
  H+  H51  1  0.30391789  0.49711533  0.27069695  1
  H+  H52  1  0.80613704  0.28870269  0.23935701  1
  H+  H53  1  0.88332183  0.17172025  1.00089513  1
  H+  H54  1  0.62686217  0.81510043  0.50318061  1
  H+  H55  1  0.83287903  0.80627946  0.42748623  1
  H+  H56  1  0.17231865  0.02637549  0.76124225  1
  H+  H57  1  0.71570298  0.85503119  0.30934607  1
  H+  H58  1  0.15237917  0.63794150  0.24357006  1
  H+  H59  1  0.51516577  0.11202924  0.29460283  1
  H+  H60  1  1.01464997  0.15802326  0.50458089  1
  H+  H61  1  0.14540382  0.35620170  0.98543626  1
  H+  H62  1  0.51028866  -0.03622216  0.51168088  1
  H+  H63  1  0.13391093  0.50715856  0.51259800  1
  H+  H64  1  0.19825331  0.04728572  0.25113694  1
  H+  H65  1  0.52040156  0.34306067  -0.01057822  1
  H+  H66  1  0.66573269  0.54145043  0.46034455  1
  H+  H67  1  0.49474951  0.22566940  0.22826055  1
  H+  H68  1  0.51033744  0.14432843  0.77648852  1
  H+  H69  1  0.19359354  0.16536563  0.25087210  1
  H+  H70  1  0.81371273  0.61195021  0.73429309  1
  H+  H71  1  0.83816418  0.14295055  0.76431434  1
  H+  H72  1  0.21415898  0.43440592  0.40851990  1
  H+  H73  1  0.50867240  0.81706101  0.50116886  1
  H+  H74  1  0.55277303  0.12634268  0.48464616  1
  H+  H75  1  0.49643265  0.19159565  1.01127812  1
  H+  H76  1  0.14731911  0.30411903  0.72942507  1
  H+  H77  1  1.03318192  0.51716491  1.00655678  1
  H+  H78  1  0.28617020  0.47042762  0.50233645  1
  H+  H79  1  0.53210198  0.82705010  0.27060701  1
  H+  H80  1  0.14863996  0.63272469  0.73947127  1
  H+  H81  1  0.26049474  0.15071554  0.99535808  1
  H+  H82  1  0.82926626  0.30027771  0.01583610  1
  H+  H83  1  0.08201880  0.16137032  -0.00782997  1
  H+  H84  1  0.65289804  0.48022627  0.98468590  1
  H+  H85  1  0.85647139  0.48129855  0.98692848  1
  H+  H86  1  0.68622444  0.16503658  0.24340013  1
  H+  H87  1  0.11272248  0.55666199  0.15623790  1
  H+  H88  1  0.85515640  1.01195560  0.51802468  1
  H+  H89  1  0.46718042  0.61597691  0.96725038  1
  H+  H90  1  0.95862273  0.48033265  0.48896152  1
  H+  H91  1  0.96968831  0.47983207  0.75749123  1
  H+  H92  1  0.28337686  0.47070830  -0.02060706  1
  H+  H93  1  0.86047341  0.81666341  0.99804967  1
  H+  H94  1  0.14199426  -0.03587748  1.00716960  1
  H+  H95  1  0.82876920  0.70301652  0.48903227  1
  H+  H96  1  0.13170903  0.96335518  0.50637336  1
  H+  H97  1  0.15494224  0.63773276  0.00565729  1
  H+  H98  1  0.81976976  0.49792633  0.73393173  1
  H+  H99  1  0.03209415  0.86006718  0.74331368  1
  H+  H100  1  0.50122365  -0.03205267  0.25917236  1
  H+  H101  1  0.47430664  0.64757942  0.51656240  1
  H+  H102  1  0.69935611  0.18189612  0.74763027  1
  H+  H103  1  0.02390186  0.18494172  0.73750370  1
  H+  H104  1  0.31007864  0.81672047  0.26902598  1
  H+  H105  1  0.85067209  0.35833233  0.76095649  1
  H+  H106  1  0.51152511  0.34796281  0.76081782  1
  H+  H107  1  0.50600373  0.35659185  0.54870564  1
  H+  H108  1  0.22025783  0.11230781  0.39441719  1
  H+  H109  1  0.73517988  0.94581841  0.76312464  1
  H+  H110  1  0.45537122  0.89047457  0.60216384  1
  H+  H111  1  0.89397031  0.02731036  0.41631747  1
  H+  H112  1  0.09371674  0.21759145  0.60549386  1
  H+  H113  1  0.22186931  0.77719996  0.90038071  1
  H+  H114  1  0.78232666  0.22115455  0.65788538  1
  H+  H115  1  0.54402812  0.43880719  0.44619703  1
  H+  H116  1  0.89974623  0.78649042  0.90616498  1
  H+  H117  1  0.77860376  0.55594630  0.58370235  1
  H+  H118  1  0.59205187  0.08979000  0.39241696  1
  H+  H119  1  0.55983433  0.11078324  0.86280663  1
  H+  H120  1  0.19616481  0.76143473  0.40235763  1
  H+  H121  1  0.42018832  0.18048356  0.66971530  1
  H+  H122  1  0.57875010  0.49928563  0.31347928  1
  H+  H123  1  0.70680870  0.53053977  0.21545006  1
  H+  H124  1  0.92606907  0.76089452  0.33890479  1
  H+  H125  1  0.78377351  0.21758596  0.10401437  1
  H+  H126  1  0.56809660  0.43058695  0.89009315  1
  H+  H127  1  0.78285081  0.55362868  0.08588951  1
  H+  H128  1  0.47736247  0.65222976  0.24583172  1
  H+  H129  1  0.47654343  0.57685722  0.64967035  1
  H+  H130  1  0.89684383  0.43983246  0.90021500  1
  H+  H131  1  0.19141103  0.10188489  0.90372311  1
  H+  H132  1  0.10278157  0.88757253  0.65094324  1
  H+  H133  1  0.45463417  0.20604701  0.53015887  1
  H+  H134  1  0.86697826  0.82074958  0.28664442  1
  H+  H135  1  0.12650249  0.89914281  0.14546354  1
  H+  H136  1  0.16463899  0.31168897  0.23878821  1
  H+  H137  1  0.72599279  0.17295046  0.51782844  1
  H+  H138  1  0.44848783  0.24121102  0.09069256  1
  H+  H139  1  0.92302544  0.92927725  0.81939692  1
  H+  H140  1  0.64717977  0.15495576  1.00470332  1
  H+  H141  1  0.30384783  0.81479945  0.75878346  1
  H+  H142  1  0.73318227  0.88291998  0.62949812  1
  H+  H143  1  0.91874062  0.16105336  0.32300822  1
  O2-  O144  1  0.13574987  0.23608662  0.20829547  1
  O2-  O145  1  0.10097298  0.22082342  0.70842131  1
  O2-  O146  1  0.10889720  0.55552834  0.22354080  1
  O2-  O147  1  0.10761025  0.55154038  0.71850004  1
  O2-  O148  1  0.13147542  0.90593596  0.21363566  1
  O2-  O149  1  0.11042886  0.89020214  0.71921576  1
  O2-  O150  1  0.44476354  0.25291399  0.20512685  1
  O2-  O151  1  0.43208230  0.20551200  0.73499347  1
  O2-  O152  1  0.42529864  0.57529623  0.21898776  1
  O2-  O153  1  0.49505509  0.58685561  0.71667003  1
  O2-  O154  1  0.45056529  0.88373170  0.23578557  1
  O2-  O155  1  0.45353919  0.89062073  0.72742370  1
  O2-  O156  1  0.76707730  0.20970081  0.21403319  1
  O2-  O157  1  0.78087357  0.22048897  0.72786387  1
  O2-  O158  1  0.78915091  0.56093968  0.19659033  1
  O2-  O159  1  0.77490586  0.53468876  0.70905900  1
  O2-  O160  1  0.80150077  0.89478999  0.32058381  1
  O2-  O161  1  0.66888988  0.87694982  0.73389400  1
  O2-  O162  1  0.23667141  0.12714543  0.27643436  1
  O2-  O163  1  0.20790904  0.10481638  0.78956922  1
  O2-  O164  1  0.22338360  0.44766193  0.29651127  1
  O2-  O165  1  0.22602176  0.43858004  0.75857844  1
  O2-  O166  1  0.22548939  0.77594594  0.28254769  1
  O2-  O167  1  0.22381928  0.77612653  0.78242848  1
  O2-  O168  1  0.57268354  0.08873808  0.29331648  1
  O2-  O169  1  0.55561408  0.10740594  0.79507014  1
  O2-  O170  1  0.57300299  0.48390095  0.24656618  1
  O2-  O171  1  0.55900188  0.42890535  0.78375528  1
  O2-  O172  1  0.57168041  0.78640296  0.29552348  1
  O2-  O173  1  0.67501358  0.77865103  0.77285489  1
  O2-  O174  1  0.89491800  0.11898911  0.26558292  1
  O2-  O175  1  0.87171987  0.09429140  0.78525626  1
  O2-  O176  1  0.88315812  0.43796031  0.27828941  1
  O2-  O177  1  0.88885228  0.44076597  0.78159228  1
  O2-  O178  1  0.90869679  0.77665774  0.27781321  1
  O2-  O179  1  0.90293985  0.85336540  0.79677880  1
  O2-  O180  1  0.21153796  0.10142985  0.46231813  1
  O2-  O181  1  0.18260842  0.10216510  0.97184537  1
  O2-  O182  1  0.20664328  0.42465739  0.47752075  1
  O2-  O183  1  0.19632750  0.43959972  0.97340262  1
  O2-  O184  1  0.17696659  0.74740725  0.46803945  1
  O2-  O185  1  0.21848570  0.77327375  0.96873359  1
  O2-  O186  1  0.59797446  0.09215376  0.46458920  1
  O2-  O187  1  0.56470793  0.12074432  0.98525838  1
  O2-  O188  1  0.59024975  0.51965313  0.43007161  1
  O2-  O189  1  0.56861618  0.43194539  0.96067840  1
  O2-  O190  1  0.54843430  0.77286792  0.47708136  1
  O2-  O191  1  0.58638865  0.76867540  0.93908920  1
  O2-  O192  1  0.90740050  0.07142725  0.47278265  1
  O2-  O193  1  0.92443410  0.13324003  0.97284618  1
  O2-  O194  1  0.87744079  0.44397582  0.46584305  1
  O2-  O195  1  0.90004130  0.44266004  0.96856804  1
  O2-  O196  1  0.86158259  0.78825541  0.48292590  1
  O2-  O197  1  0.89477536  0.77003400  0.97232492  1
  O2-  O198  1  0.04625161  0.21041652  -0.00216168  1
  O2-  O199  1  0.09660998  0.21823235  0.53409239  1
  O2-  O200  1  0.11514735  0.55668936  0.02976078  1
  O2-  O201  1  0.09083569  0.54372370  0.53511845  1
  O2-  O202  1  0.11367183  0.88484497  0.03048303  1
  O2-  O203  1  0.08878158  0.88647742  0.53529685  1
  O2-  O204  1  0.45667372  0.23754401  0.02276914  1
  O2-  O205  1  0.40078728  0.13215902  0.55728978  1
  O2-  O206  1  0.41539713  0.53373321  -0.02069187  1
  O2-  O207  1  0.43799552  0.56418991  0.53773986  1
  O2-  O208  1  0.42936085  0.89287235  0.04157816  1
  O2-  O209  1  0.45722014  0.88512253  0.53523259  1
  O2-  O210  1  0.79125107  0.21868449  0.03515406  1
  O2-  O211  1  0.79762595  0.22693218  0.55142083  1
  O2-  O212  1  0.77703798  0.54819074  0.01681239  1
  O2-  O213  1  0.78518246  0.56795062  0.51682176  1
  O2-  O214  1  0.80658012  0.89404228  0.02846248  1
  O2-  O215  1  0.75971943  0.89033656  0.56541051  1
