# generated using pymatgen
data_H2O
_symmetry_space_group_name_H-M   'P 1'
_cell_length_a   13.52420336
_cell_length_b   13.52187488
_cell_length_c   14.68242620
_cell_angle_alpha   89.96791023
_cell_angle_beta   90.01568352
_cell_angle_gamma   120.06409014
_symmetry_Int_Tables_number   1
_chemical_formula_structural   H2O
_chemical_formula_sum   'H144 O72'
_cell_volume   2323.78615197
_cell_formula_units_Z   72
loop_
 _symmetry_equiv_pos_site_id
 _symmetry_equiv_pos_as_xyz
  1  'x, y, z'
loop_
 _atom_type_symbol
 _atom_type_oxidation_number
  H+  1.0
  O2-  -2.0
loop_
 _atom_site_type_symbol
 _atom_site_label
 _atom_site_symmetry_multiplicity
 _atom_site_fract_x
 _atom_site_fract_y
 _atom_site_fract_z
 _atom_site_occupancy
  H+  H0  1  0.80654680  0.34310316  0.00485958  1
  H+  H1  1  0.70125951  0.86864668  0.24631569  1
  H+  H2  1  0.81328502  0.30542949  0.49936715  1
  H+  H3  1  0.84907155  0.16777681  0.25522242  1
  H+  H4  1  0.89024668  0.12114245  0.39833154  1
  H+  H5  1  0.70518637  0.52111626  0.21812865  1
  H+  H6  1  0.64678257  0.15550172  0.99146369  1
  H+  H7  1  0.51940145  0.80731447  0.48354037  1
  H+  H8  1  0.50876663  0.52843964  0.50145972  1
  H+  H9  1  0.51489410  0.84213676  0.25135048  1
  H+  H10  1  0.83553967  0.77277649  -0.00161228  1
  H+  H11  1  0.13097581  0.88576134  0.50462555  1
  H+  H12  1  0.09888724  0.91606754  0.74894636  1
  H+  H13  1  0.00800869  0.86949163  0.50677948  1
  H+  H14  1  0.52337569  0.73199940  0.23140601  1
  H+  H15  1  0.01611721  0.52647930  0.01029536  1
  H+  H16  1  0.01488961  0.81772165  0.23863506  1
  H+  H17  1  0.88433958  0.78053478  0.40059242  1
  H+  H18  1  0.04334230  0.19256477  0.01566017  1
  H+  H19  1  0.44967424  0.88748089  0.65407544  1
  H+  H20  1  0.70312876  0.18381402  0.73925865  1
  H+  H21  1  0.29384276  0.17590041  0.50141247  1
  H+  H22  1  0.48707436  0.97095521  0.74181234  1
  H+  H23  1  0.41850819  0.18024652  0.71280865  1
  H+  H24  1  0.48578432  0.52631331  0.73767722  1
  H+  H25  1  0.51036583  0.36584101  -0.01219015  1
  H+  H26  1  0.82691265  0.53280404  0.22430881  1
  H+  H27  1  1.01855248  0.19499797  0.23651615  1
  H+  H28  1  0.63305175  0.81722485  0.99175444  1
  H+  H29  1  0.47229821  0.21060271  0.48174166  1
  H+  H30  1  0.93997821  0.92148239  0.08886950  1
  H+  H31  1  0.28092750  1.09234535  0.28491766  1
  H+  H32  1  0.84057100  0.82309925  0.48742106  1
  H+  H33  1  0.70079983  0.19627476  0.23955054  1
  H+  H34  1  0.85674049  0.26420191  0.00200542  1
  H+  H35  1  0.48233118  0.85040914  1.00920695  1
  H+  H36  1  0.02151852  0.18724321  0.49921339  1
  H+  H37  1  0.17615768  0.49057546  0.47155863  1
  H+  H38  1  0.18225855  0.80934656  0.98824352  1
  H+  H39  1  0.70344587  0.52854461  0.50025251  1
  H+  H40  1  0.77723622  0.22941536  0.59119233  1
  H+  H41  1  0.84470908  0.81906616  0.26931252  1
  H+  H42  1  0.51387551  0.17836727  1.05698679  1
  H+  H43  1  0.32461405  0.46907917  -0.01890581  1
  H+  H44  1  0.46818299  0.56891934  0.27029090  1
  H+  H45  1  0.17759520  0.79995925  0.25294152  1
  H+  H46  1  0.30062796  0.21337995  0.80380785  1
  H+  H47  1  0.50043690  0.65343560  0.73563502  1
  H+  H48  1  0.03389595  0.51974439  0.23712481  1
  H+  H49  1  0.14641638  0.32487273  0.23949628  1
  H+  H50  1  0.16117534  0.18226969  0.50189522  1
  H+  H51  1  0.63897341  0.82656218  0.76102377  1
  H+  H52  1  0.52859502  0.48987423  -0.01653245  1
  H+  H53  1  0.93373688  0.77608808  0.76160826  1
  H+  H54  1  0.52283438  1.05131652  0.25493525  1
  H+  H55  1  0.30777609  0.50876349  0.74480963  1
  H+  H56  1  0.49819436  0.94700415  0.50458150  1
  H+  H57  1  0.39767589  0.38550176  0.80964188  1
  H+  H58  1  0.82231719  0.50106322  0.72676406  1
  H+  H59  1  0.49123662  0.31249186  0.73527210  1
  H+  H60  1  0.36626175  0.85645065  0.23482548  1
  H+  H61  1  0.34470219  0.48244173  0.23663575  1
  H+  H62  1  0.30059105  0.81672373  0.75477036  1
  H+  H63  1  0.85054630  0.02298232  0.72839575  1
  H+  H64  1  0.52041166  0.10332093  0.52699682  1
  H+  H65  1  0.64484301  0.14193053  0.49259540  1
  H+  H66  1  0.36583541  0.85360541  0.00599074  1
  H+  H67  1  0.83705922  0.69618357  0.25964871  1
  H+  H68  1  0.52091438  0.38399275  0.47907858  1
  H+  H69  1  0.50331813  0.43856461  0.24314459  1
  H+  H70  1  0.69768233  0.85195962  0.50069463  1
  H+  H71  1  0.84655637  0.48783433  0.48471907  1
  H+  H72  1  0.18863432  0.39161810  0.74248771  1
  H+  H73  1  0.12838756  0.94187065  0.01081334  1
  H+  H74  1  0.96271236  0.48431527  0.48341143  1
  H+  H75  1  0.21136292  0.44559227  0.33895221  1
  H+  H76  1  0.18303127  0.37791657  0.47098367  1
  H+  H77  1  0.85155887  0.04867755  0.25993192  1
  H+  H78  1  -0.03290635  0.48942752  0.74447161  1
  H+  H79  1  0.17556825  0.48466206  0.24412296  1
  H+  H80  1  0.84982846  0.15766177  0.48806850  1
  H+  H81  1  0.18882109  0.68812876  0.24767005  1
  H+  H82  1  1.02845706  0.20343577  0.71547649  1
  H+  H83  1  0.80091741  0.61615614  0.73711507  1
  H+  H84  1  0.14974159  0.63113530  0.49708104  1
  H+  H85  1  0.51888528  0.82474890  0.76387047  1
  H+  H86  1  0.14308042  0.62993392  0.00959020  1
  H+  H87  1  0.54671204  0.16654610  0.76593492  1
  H+  H88  1  0.37980830  0.82866192  0.50025104  1
  H+  H89  1  0.20199909  0.09492677  0.77479049  1
  H+  H90  1  0.17710735  0.80684755  0.75313379  1
  H+  H91  1  0.22778231  0.82006787  0.46703058  1
  H+  H92  1  0.85070152  0.37962762  0.25288882  1
  H+  H93  1  0.84768491  0.36744075  0.74611108  1
  H+  H94  1  0.17220533  0.30140449  1.00602120  1
  H+  H95  1  0.17167152  0.13367868  1.01798455  1
  H+  H96  1  0.50756017  0.65327596  0.49935752  1
  H+  H97  1  0.49238181  0.63644494  1.01418434  1
  H+  H98  1  0.53908899  0.34395452  0.25073514  1
  H+  H99  1  0.83404925  0.10589078  1.05130382  1
  H+  H100  1  0.80635116  0.83480040  0.73737797  1
  H+  H101  1  0.16855681  0.05360445  0.50244071  1
  H+  H102  1  0.52731974  1.03336696  -0.00631823  1
  H+  H103  1  0.15071280  0.21930953  0.73356731  1
  H+  H104  1  0.87323699  -0.03275827  1.03278828  1
  H+  H105  1  0.82004333  0.18589943  0.72042227  1
  H+  H106  1  0.82178139  0.64738547  0.50761392  1
  H+  H107  1  0.14326284  0.63641663  0.73256849  1
  H+  H108  1  0.80708246  0.61644764  0.07461450  1
  H+  H109  1  0.55868497  0.78003317  0.90125498  1
  H+  H110  1  0.10453395  0.55309190  0.14281308  1
  H+  H111  1  0.22487748  0.77335271  0.89978046  1
  H+  H112  1  0.24061001  0.43778823  0.89436129  1
  H+  H113  1  0.10524383  0.55672572  0.58884148  1
  H+  H114  1  0.56455605  0.45323049  0.38642579  1
  H+  H115  1  0.88831839  0.45831999  0.34076631  1
  H+  H116  1  0.77713518  0.55105463  0.63488270  1
  H+  H117  1  0.87609265  0.46551966  0.88867046  1
  H+  H118  1  0.81462214  0.97316639  0.50598690  1
  H+  H119  1  0.78064762  0.24490619  0.14982240  1
  H+  H120  1  0.51496751  0.42345234  0.86359034  1
  H+  H121  1  0.10639318  0.24134567  0.58913408  1
  H+  H122  1  0.47437715  0.57541310  0.60062799  1
  H+  H123  1  0.11027907  0.23551202  0.14553730  1
  H+  H124  1  0.44686358  0.90145398  0.14671466  1
  H+  H125  1  0.16403835  0.99251893  0.25514666  1
  H+  H126  1  0.45313034  0.54915150  0.09909254  1
  H+  H127  1  0.35080180  0.18578845  1.03945962  1
  H+  H128  1  0.08816845  0.84660316  0.14557567  1
  H+  H129  1  0.77251075  0.87725589  0.64515476  1
  H+  H130  1  0.07521366  0.87071213  0.64807933  1
  H+  H131  1  1.01664740  0.81402271  0.99967746  1
  H+  H132  1  0.84051198  0.52216443  0.96941334  1
  H+  H133  1  0.55559200  0.77302983  0.38854276  1
  H+  H134  1  0.85262740  0.73132844  0.85014188  1
  H+  H135  1  0.84506060  0.09485321  0.94753012  1
  H+  H136  1  0.46604959  0.24993440  0.58414643  1
  H+  H137  1  0.79654500  0.89825328  0.16878991  1
  H+  H138  1  0.89874092  0.11268054  0.80742921  1
  H+  H139  1  0.56758420  0.11369920  0.85680215  1
  H+  H140  1  0.24151841  0.76441600  0.37721982  1
  H+  H141  1  0.14568320  0.52116543  0.73255801  1
  H+  H142  1  0.56332083  0.11740582  0.34745824  1
  H+  H143  1  0.21633030  0.10583053  0.92998422  1
  O2-  O144  1  0.10176323  0.23877849  0.21478173  1
  O2-  O145  1  0.11096708  0.25238829  0.69920255  1
  O2-  O146  1  0.11327559  0.55386904  0.21226732  1
  O2-  O147  1  0.10080181  0.55631018  0.70854151  1
  O2-  O148  1  0.09297524  0.84716320  0.21323965  1
  O2-  O149  1  0.06912405  0.84609590  0.71335848  1
  O2-  O150  1  0.48575209  0.20744980  0.10714947  1
  O2-  O151  1  0.49101914  0.24859521  0.69812604  1
  O2-  O152  1  0.42832383  0.51389735  0.22177030  1
  O2-  O153  1  0.46199951  0.57624563  0.70517286  1
  O2-  O154  1  0.44810727  0.90189103  0.21510102  1
  O2-  O155  1  0.44516621  0.88948719  0.72159660  1
  O2-  O156  1  0.78284207  0.23705764  0.21685531  1
  O2-  O157  1  0.77929101  0.22862861  0.70824609  1
  O2-  O158  1  0.78595473  0.57229968  0.20071389  1
  O2-  O159  1  0.77369622  0.53944644  0.70441145  1
  O2-  O160  1  0.78520210  0.90610509  0.23466531  1
  O2-  O161  1  0.77606866  0.88336673  0.71332608  1
  O2-  O162  1  0.19979872  0.06698042  0.28702930  1
  O2-  O163  1  0.21766921  0.16388180  0.80777810  1
  O2-  O164  1  0.21159542  0.43943882  0.26883740  1
  O2-  O165  1  0.22984740  0.46854265  0.77115743  1
  O2-  O166  1  0.22826529  0.76877381  0.27245575  1
  O2-  O167  1  0.22013152  0.77132805  0.77718238  1
  O2-  O168  1  0.56973517  0.12868893  0.28128580  1
  O2-  O169  1  0.57090851  0.11300557  0.78781949  1
  O2-  O170  1  0.55984174  0.42099658  0.27110452  1
  O2-  O171  1  0.47676879  0.40798292  0.79498251  1
  O2-  O172  1  0.55574058  0.79853414  0.27151104  1
  O2-  O173  1  0.55960764  0.78441224  0.78605239  1
  O2-  O174  1  0.89362349  0.13120066  0.27859391  1
  O2-  O175  1  0.89034393  0.10817794  0.74143511  1
  O2-  O176  1  0.89189309  0.46136181  0.27286979  1
  O2-  O177  1  0.88383058  0.45006685  0.76405653  1
  O2-  O178  1  0.88063295  0.77386853  0.28890391  1
  O2-  O179  1  0.85240496  0.73795227  0.78206335  1
  O2-  O180  1  0.21106697  0.13665487  0.48454441  1
  O2-  O181  1  0.20823588  0.08954332  0.99558014  1
  O2-  O182  1  0.21839167  0.45499994  0.44424480  1
  O2-  O183  1  0.25238205  0.40918482  0.95286362  1
  O2-  O184  1  0.24976647  0.76513888  0.44734765  1
  O2-  O185  1  0.22920976  0.77564936  0.96740593  1
  O2-  O186  1  0.56058264  0.09165802  0.47674792  1
  O2-  O187  1  0.56613330  0.11434189  0.97082560  1
  O2-  O188  1  0.56610325  0.46337608  0.45437009  1
  O2-  O189  1  0.55214982  0.43901422  0.95271717  1
  O2-  O190  1  0.56067764  0.76868706  0.45632516  1
  O2-  O191  1  0.55440614  0.77710722  0.96988182  1
  O2-  O192  1  0.89042323  0.11679190  0.46646025  1
  O2-  O193  1  0.88264078  0.09913101  1.00528595  1
  O2-  O194  1  0.88152980  0.44343436  0.46124592  1
  O2-  O195  1  0.87080803  0.46969019  0.95561988  1
  O2-  O196  1  0.88582452  0.78552673  0.46961754  1
  O2-  O197  1  0.86555223  0.72639431  0.96914901  1
  O2-  O198  1  0.12115280  0.22529624  0.04024521  1
  O2-  O199  1  0.10481883  0.23143429  0.52061063  1
  O2-  O200  1  0.09300242  0.55276200  0.03552465  1
  O2-  O201  1  0.10149306  0.55225245  0.52082057  1
  O2-  O202  1  0.09321620  0.85938310  0.02771124  1
  O2-  O203  1  0.08830881  0.91653238  0.53535297  1
  O2-  O204  1  0.42453939  0.25443664  0.05665934  1
  O2-  O205  1  0.44060236  0.24801643  0.51919560  1
  O2-  O206  1  0.45834536  0.55489675  0.03192364  1
  O2-  O207  1  0.47387134  0.57311001  0.52990978  1
  O2-  O208  1  0.44659774  0.89522491  0.02975130  1
  O2-  O209  1  0.45677055  0.86801404  0.53036155  1
  O2-  O210  1  0.78998627  0.26488981  0.02632981  1
  O2-  O211  1  0.77699923  0.22467324  0.52306522  1
  O2-  O212  1  0.79300777  0.61062594  0.00719215  1
  O2-  O213  1  0.78104722  0.56548635  0.52868698  1
  O2-  O214  1  0.86390717  0.89850880  0.06499593  1
  O2-  O215  1  0.77568902  0.89238941  0.52836513  1
