# generated using pymatgen
data_H2O
_symmetry_space_group_name_H-M   'P 1'
_cell_length_a   13.49797697
_cell_length_b   13.49177651
_cell_length_c   14.67980424
_cell_angle_alpha   89.98958409
_cell_angle_beta   89.87660331
_cell_angle_gamma   119.91731401
_symmetry_Int_Tables_number   1
_chemical_formula_structural   H2O
_chemical_formula_sum   'H144 O72'
_cell_volume   2317.11988726
_cell_formula_units_Z   72
loop_
 _symmetry_equiv_pos_site_id
 _symmetry_equiv_pos_as_xyz
  1  'x, y, z'
loop_
 _atom_type_symbol
 _atom_type_oxidation_number
  H+  1.0
  O2-  -2.0
loop_
 _atom_site_type_symbol
 _atom_site_label
 _atom_site_symmetry_multiplicity
 _atom_site_fract_x
 _atom_site_fract_y
 _atom_site_fract_z
 _atom_site_occupancy
  H+  H0  1  0.87035714  0.16893487  1.00851873  1
  H+  H1  1  0.85132186  0.85629899  0.74102356  1
  H+  H2  1  0.18366461  0.48572242  0.50637419  1
  H+  H3  1  0.17600482  0.13236572  0.98087159  1
  H+  H4  1  0.89861815  0.76492889  0.33201612  1
  H+  H5  1  0.14488508  0.29755749  0.51772942  1
  H+  H6  1  0.48073003  0.50556721  0.23516434  1
  H+  H7  1  0.36780666  0.19260190  0.50664040  1
  H+  H8  1  0.52810766  1.04628526  0.50947066  1
  H+  H9  1  0.63317713  0.81817916  0.48750738  1
  H+  H10  1  0.80773032  0.63938534  0.72050023  1
  H+  H11  1  0.81843644  0.36857927  0.77983514  1
  H+  H12  1  0.50629221  0.34913395  0.24116118  1
  H+  H13  1  0.32463284  0.82704517  0.99017811  1
  H+  H14  1  0.73137107  0.02852095  0.83176723  1
  H+  H15  1  0.29426374  0.14553569  0.25867092  1
  H+  H16  1  -0.03995548  0.14355748  0.26287440  1
  H+  H17  1  0.39444267  1.03247950  -0.09217983  1
  H+  H18  1  0.23065681  0.78367147  0.40546393  1
  H+  H19  1  0.14534756  0.17865083  0.51216934  1
  H+  H20  1  0.48990704  0.30786169  0.49699419  1
  H+  H21  1  0.15588750  0.64047658  0.51414753  1
  H+  H22  1  0.31805549  0.15333593  0.74938430  1
  H+  H23  1  0.51349094  0.30353898  0.74517507  1
  H+  H24  1  0.94554214  0.51185550  1.00641781  1
  H+  H25  1  0.83894053  0.35275621  0.49634759  1
  H+  H26  1  0.19009553  0.82196599  0.49423760  1
  H+  H27  1  0.82338479  0.48778478  0.76561632  1
  H+  H28  1  0.36589702  0.84840561  0.51782270  1
  H+  H29  1  0.19603547  0.35639648  0.76510821  1
  H+  H30  1  0.84039548  0.73634143  0.98765424  1
  H+  H31  1  0.42295866  0.55775496  0.16713969  1
  H+  H32  1  0.84607100  0.15301475  0.49148731  1
  H+  H33  1  0.18454381  0.03529738  0.49525770  1
  H+  H34  1  0.77415815  0.54936529  0.58653273  1
  H+  H35  1  0.19587907  0.14803993  0.74841119  1
  H+  H36  1  0.64066086  0.81061483  0.99331151  1
  H+  H37  1  0.15944309  -0.03637054  0.73670376  1
  H+  H38  1  1.01514038  0.14295776  1.02657623  1
  H+  H39  1  0.20085324  0.53315496  0.74672074  1
  H+  H40  1  0.83537556  0.48383215  0.49414666  1
  H+  H41  1  0.03980643  0.18172659  0.74329175  1
  H+  H42  1  0.31929588  0.53227378  0.02807971  1
  H+  H43  1  0.51751000  0.88040638  0.73999509  1
  H+  H44  1  0.81689448  -0.04576920  0.24252094  1
  H+  H45  1  0.56649341  0.42919825  0.89073034  1
  H+  H46  1  0.50723596  0.00147240  0.72726669  1
  H+  H47  1  0.18316277  0.97867631  0.00182936  1
  H+  H48  1  0.53351245  0.48511322  0.45632463  1
  H+  H49  1  0.82072318  0.31182353  0.24487839  1
  H+  H50  1  0.14711621  0.96918684  0.23772928  1
  H+  H51  1  0.48020423  0.84771709  0.23745644  1
  H+  H52  1  0.17806260  0.15003934  0.26807681  1
  H+  H53  1  -0.02268031  0.49998304  0.27449897  1
  H+  H54  1  0.85849385  0.32964276  1.01911519  1
  H+  H55  1  0.14576646  0.30633233  0.25837281  1
  H+  H56  1  0.51642057  0.15695295  0.73304561  1
  H+  H57  1  0.35997341  0.18669956  -0.00036167  1
  H+  H58  1  0.29581328  0.48023981  0.27568251  1
  H+  H59  1  0.03789850  0.52281519  0.52407490  1
  H+  H60  1  0.97249294  0.80722792  0.75668075  1
  H+  H61  1  0.51143856  1.03575637  0.24398109  1
  H+  H62  1  0.21168932  0.70598621  0.76578786  1
  H+  H63  1  0.82273085  0.01551420  0.77838787  1
  H+  H64  1  0.48535430  0.84663154  0.51293706  1
  H+  H65  1  0.15795695  0.84491847  0.74036345  1
  H+  H66  1  0.18110094  0.35011676  -0.00278265  1
  H+  H67  1  0.85324281  0.81153863  0.47758255  1
  H+  H68  1  0.81959342  0.19238418  0.24253686  1
  H+  H69  1  0.45875798  0.89635930  0.63825671  1
  H+  H70  1  0.70160524  0.50572255  0.49084539  1
  H+  H71  1  0.14959303  0.52145257  0.25889331  1
  H+  H72  1  0.50896614  0.46641719  0.76268085  1
  H+  H73  1  0.62076892  0.46253670  0.21629807  1
  H+  H74  1  0.80460365  0.24505254  0.10149227  1
  H+  H75  1  0.64566181  0.82979943  0.75925200  1
  H+  H76  1  0.29946236  0.48014093  0.49002390  1
  H+  H77  1  0.20069593  0.84992332  0.00039524  1
  H+  H78  1  0.34705530  0.64197194  0.08364876  1
  H+  H79  1  0.03743818  0.84849187  0.50572144  1
  H+  H80  1  0.63606849  0.81614038  0.25778771  1
  H+  H81  1  0.80107234  0.61955380  0.18932696  1
  H+  H82  1  0.81744866  0.19644172  0.74903937  1
  H+  H83  1  0.70069103  0.19520483  0.51971478  1
  H+  H84  1  0.52465343  0.16320944  0.50754728  1
  H+  H85  1  0.03556038  0.84419481  0.22185009  1
  H+  H86  1  0.09971099  0.47035587  1.02503924  1
  H+  H87  1  0.50738893  0.70713131  0.99126995  1
  H+  H88  1  0.43921671  0.54850880  0.38770507  1
  H+  H89  1  0.62788912  0.15522525  0.24155850  1
  H+  H90  1  0.50422349  0.86203931  0.00194337  1
  H+  H91  1  0.51700625  0.69915617  0.26256016  1
  H+  H92  1  0.21945715  0.11142148  0.40542372  1
  H+  H93  1  0.32394953  0.45659492  0.77820546  1
  H+  H94  1  0.70412226  0.19783690  0.73317376  1
  H+  H95  1  0.65964175  0.50470193  1.05594137  1
  H+  H96  1  0.69436542  0.51220356  0.72487673  1
  H+  H97  1  0.29943928  0.82026801  0.25894698  1
  H+  H98  1  0.18264700  0.82270623  0.26137990  1
  H+  H99  1  0.65596917  0.39679943  0.80909503  1
  H+  H100  1  0.50445495  0.47764073  0.95614523  1
  H+  H101  1  0.85564479  0.69477008  0.47817100  1
  H+  H102  1  0.81365092  0.95745441  0.01612124  1
  H+  H103  1  0.15074885  0.64158560  0.25087270  1
  H+  H104  1  0.47958540  0.30423293  -0.00067418  1
  H+  H105  1  0.81361347  0.83276968  0.23835195  1
  H+  H106  1  0.47571677  0.17588863  0.22938596  1
  H+  H107  1  -0.03815749  0.14871769  0.49182520  1
  H+  H108  1  0.48252738  0.97007247  -0.00292957  1
  H+  H109  1  0.58081327  0.81466642  0.85449177  1
  H+  H110  1  0.45701441  0.23401234  0.64613223  1
  H+  H111  1  0.88057582  0.64653199  0.96436775  1
  H+  H112  1  0.55677273  0.78979652  0.39731149  1
  H+  H113  1  0.87598213  0.10059027  0.34717575  1
  H+  H114  1  0.91220031  0.97172181  0.68677874  1
  H+  H115  1  0.79434707  0.24428775  0.60147131  1
  H+  H116  1  0.77363191  0.87146994  0.09839862  1
  H+  H117  1  0.14556415  0.90101150  0.09733113  1
  H+  H118  1  0.11270857  0.88478819  0.59752641  1
  H+  H119  1  0.44344452  0.88627810  0.14675782  1
  H+  H120  1  0.06587022  0.08672296  0.09191498  1
  H+  H121  1  0.47568570  0.13925651  0.96576588  1
  H+  H122  1  0.88326710  0.10523282  0.92187711  1
  H+  H123  1  0.57579043  0.43705118  0.37636215  1
  H+  H124  1  0.88720450  0.44593252  0.40161072  1
  H+  H125  1  0.11106890  0.22639758  0.16935165  1
  H+  H126  1  0.78019543  0.88261947  0.59019724  1
  H+  H127  1  0.49019114  0.63568411  0.46748459  1
  H+  H128  1  0.31760171  0.83296505  0.76539700  1
  H+  H129  1  0.88704417  0.75363598  0.84234804  1
  H+  H130  1  0.07636484  0.52084766  0.11610086  1
  H+  H131  1  0.47386314  0.51328596  0.67903825  1
  H+  H132  1  0.21409736  0.44241525  0.36468794  1
  H+  H133  1  0.15181432  0.57132183  0.66257802  1
  H+  H134  1  0.43148088  0.21611138  0.14312654  1
  H+  H135  1  0.81367873  -0.03448274  0.50471094  1
  H+  H136  1  0.10769467  0.21492690  0.64821851  1
  H+  H137  1  0.23943474  0.78916458  0.90067316  1
  H+  H138  1  0.85561920  0.47389479  0.92275764  1
  H+  H139  1  0.22555533  0.10816544  0.88614917  1
  H+  H140  1  0.54198379  0.10822486  0.82455828  1
  H+  H141  1  0.87084524  0.52013260  0.27953949  1
  H+  H142  1  0.21589010  0.42530314  0.90644461  1
  H+  H143  1  0.77264124  0.50183906  0.06684136  1
  O2-  O144  1  0.10739601  0.22497079  0.23660899  1
  O2-  O145  1  0.11618033  0.21461941  0.71708794  1
  O2-  O146  1  0.10682172  0.55824696  0.23461308  1
  O2-  O147  1  0.17258894  0.58497898  0.72765686  1
  O2-  O148  1  0.11833113  0.89277360  0.20749196  1
  O2-  O149  1  0.11542188  0.88229654  0.71624372  1
  O2-  O150  1  0.43027221  0.21514684  0.21097364  1
  O2-  O151  1  0.45690840  0.22224446  0.71339942  1
  O2-  O152  1  0.43795857  0.54893381  0.23232429  1
  O2-  O153  1  0.46229644  0.50152142  0.74445222  1
  O2-  O154  1  0.43593039  0.88339166  0.21422974  1
  O2-  O155  1  0.46797699  0.91049170  0.71071378  1
  O2-  O156  1  0.78327091  0.23492352  0.21726584  1
  O2-  O157  1  0.78755234  0.24152393  0.71867207  1
  O2-  O158  1  0.83614095  0.63444929  0.25141288  1
  O2-  O159  1  0.76992693  0.56150790  0.69279228  1
  O2-  O160  1  0.77328662  0.87388869  0.21931381  1
  O2-  O161  1  0.83691148  0.91722352  0.71107612  1
  O2-  O162  1  0.21493363  0.10434100  0.28516083  1
  O2-  O163  1  0.23659613  0.10892623  0.77201163  1
  O2-  O164  1  0.21471262  0.44399044  0.29631326  1
  O2-  O165  1  0.24276898  0.43210989  0.79440446  1
  O2-  O166  1  0.22096184  0.78163502  0.28650532  1
  O2-  O167  1  0.23911180  0.78775937  0.78894899  1
  O2-  O168  1  0.54650951  0.11769913  0.25967486  1
  O2-  O169  1  0.55823098  0.11364545  0.75732810  1
  O2-  O170  1  0.55442318  0.43343092  0.25771425  1
  O2-  O171  1  0.59116314  0.40730055  0.79165030  1
  O2-  O172  1  0.55550807  0.78077630  0.28125445  1
  O2-  O173  1  0.59972748  0.85452132  0.79347150  1
  O2-  O174  1  0.87732021  0.09898904  0.27931147  1
  O2-  O175  1  0.81207465  0.07282097  0.81374128  1
  O2-  O176  1  0.89545172  0.46486826  0.29749207  1
  O2-  O177  1  0.81528487  0.43127550  0.81240946  1
  O2-  O178  1  0.89398707  0.75972319  0.26350595  1
  O2-  O179  1  0.89026234  0.77135038  0.77463866  1
  O2-  O180  1  0.22103006  0.11618384  0.47347080  1
  O2-  O181  1  0.22620090  0.10474347  0.95481424  1
  O2-  O182  1  0.21532861  0.43776005  0.48169964  1
  O2-  O183  1  0.20476949  0.42671731  0.97458234  1
  O2-  O184  1  0.23160608  0.78144472  0.47376693  1
  O2-  O185  1  0.24272257  0.79482185  0.96965127  1
  O2-  O186  1  0.57467617  0.12906635  0.49878700  1
  O2-  O187  1  0.47389535  0.07497204  0.92810656  1
  O2-  O188  1  0.57443670  0.44191056  0.44441185  1
  O2-  O189  1  0.54957076  0.43958513  0.95837341  1
  O2-  O190  1  0.55229438  0.78133886  0.46554998  1
  O2-  O191  1  0.56237889  0.78219689  0.96458103  1
  O2-  O192  1  0.88122396  0.10773272  0.46942293  1
  O2-  O193  1  0.89689397  0.11321939  0.98847409  1
  O2-  O194  1  0.88133116  0.44026540  0.47227997  1
  O2-  O195  1  0.87111999  0.50408853  0.98632370  1
  O2-  O196  1  0.89653807  0.77465121  0.45484140  1
  O2-  O197  1  0.89049458  0.72241879  0.94824261  1
  O2-  O198  1  0.08993583  0.15647079  0.05646697  1
  O2-  O199  1  0.10201389  0.21549613  0.53732426  1
  O2-  O200  1  0.05370534  0.50102552  0.05164556  1
  O2-  O201  1  0.11933730  0.56135007  0.54042535  1
  O2-  O202  1  0.15519284  0.90040755  0.02900330  1
  O2-  O203  1  0.11708131  0.89018190  0.52949267  1
  O2-  O204  1  0.44044923  0.22295680  0.02188473  1
  O2-  O205  1  0.44836058  0.23263240  0.52876625  1
  O2-  O206  1  0.38222613  0.59781404  0.06295390  1
  O2-  O207  1  0.44966088  0.55125858  0.45382635  1
  O2-  O208  1  0.45692969  0.89462146  0.02645855  1
  O2-  O209  1  0.44669379  0.88626290  0.54195503  1
  O2-  O210  1  0.81860728  0.24821957  0.03443678  1
  O2-  O211  1  0.78796537  0.24077336  0.53324041  1
  O2-  O212  1  0.71854201  0.51781776  0.10163675  1
  O2-  O213  1  0.78154845  0.54493702  0.51735804  1
  O2-  O214  1  0.77247270  0.87462714  0.03066746  1
  O2-  O215  1  0.77480208  0.88274860  0.52303978  1
