# generated using pymatgen
data_H2O
_symmetry_space_group_name_H-M   'P 1'
_cell_length_a   13.51121694
_cell_length_b   13.51794358
_cell_length_c   14.69038095
_cell_angle_alpha   90.00454478
_cell_angle_beta   90.03158356
_cell_angle_gamma   119.98248436
_symmetry_Int_Tables_number   1
_chemical_formula_structural   H2O
_chemical_formula_sum   'H144 O72'
_cell_volume   2324.04915615
_cell_formula_units_Z   72
loop_
 _symmetry_equiv_pos_site_id
 _symmetry_equiv_pos_as_xyz
  1  'x, y, z'
loop_
 _atom_type_symbol
 _atom_type_oxidation_number
  H+  1.0
  O2-  -2.0
loop_
 _atom_site_type_symbol
 _atom_site_label
 _atom_site_symmetry_multiplicity
 _atom_site_fract_x
 _atom_site_fract_y
 _atom_site_fract_z
 _atom_site_occupancy
  H+  H0  1  0.73164588  0.89302654  0.23094859  1
  H+  H1  1  0.15936943  0.52590962  0.00622130  1
  H+  H2  1  0.50878940  0.14934642  0.99071526  1
  H+  H3  1  0.49118098  1.02789196  0.48926640  1
  H+  H4  1  0.04029531  0.89109318  0.50047688  1
  H+  H5  1  0.15784478  0.20428816  0.25094633  1
  H+  H6  1  0.49487791  0.51631186  0.74718394  1
  H+  H7  1  0.85566635  0.80940120  0.77347440  1
  H+  H8  1  0.03583710  0.85658503  0.74122865  1
  H+  H9  1  0.29102024  1.14747894  -0.00429923  1
  H+  H10  1  0.36591317  0.85364015  0.72803406  1
  H+  H11  1  0.83084496  0.51170350  0.71515997  1
  H+  H12  1  0.37241859  0.50831369  0.74957579  1
  H+  H13  1  0.52190136  0.33712793  0.76151955  1
  H+  H14  1  0.51688792  0.03516770  0.99202705  1
  H+  H15  1  0.47551423  0.45160637  0.21580014  1
  H+  H16  1  0.58590914  0.72545275  0.45364277  1
  H+  H17  1  0.80658100  0.63609119  1.02142555  1
  H+  H18  1  0.86211940  0.71009273  0.46748972  1
  H+  H19  1  0.53583898  0.11019949  0.35362586  1
  H+  H20  1  0.54405749  0.86813886  0.25597135  1
  H+  H21  1  0.51388160  0.36960489  0.49610796  1
  H+  H22  1  0.13350663  0.48049137  0.51055671  1
  H+  H23  1  0.02383425  0.49678646  0.50385781  1
  H+  H24  1  0.18441088  0.05552745  0.28172060  1
  H+  H25  1  0.79601407  0.18489057  0.49375401  1
  H+  H26  1  0.19334099  0.71641242  0.99988401  1
  H+  H27  1  0.70856946  0.84455262  0.75761601  1
  H+  H28  1  0.20943165  0.10838614  -0.09164728  1
  H+  H29  1  0.82256138  0.76236569  0.22208594  1
  H+  H30  1  0.86734519  1.06074302  0.24722952  1
  H+  H31  1  0.11897068  0.54230022  0.64309054  1
  H+  H32  1  0.05276976  0.86186379  0.27565219  1
  H+  H33  1  0.85159193  0.18059549  0.02824280  1
  H+  H34  1  0.43381037  0.21579649  0.10220331  1
  H+  H35  1  0.48499298  0.98198413  0.24258232  1
  H+  H36  1  0.19310347  0.48185307  0.75237218  1
  H+  H37  1  0.43867367  0.55034543  0.61010555  1
  H+  H38  1  1.04628381  0.50816293  0.73292049  1
  H+  H39  1  0.64884196  0.49295331  0.26741761  1
  H+  H40  1  0.88991234  0.11939394  0.89878620  1
  H+  H41  1  0.43728806  0.61431650  0.27301143  1
  H+  H42  1  0.10582551  0.91410922  0.64830305  1
  H+  H43  1  0.29721066  0.79910949  0.49399196  1
  H+  H44  1  1.04861436  0.20999543  1.02577000  1
  H+  H45  1  0.19142325  0.83138758  1.01522593  1
  H+  H46  1  0.20462567  0.83496161  0.27441556  1
  H+  H47  1  0.56071982  0.76121282  0.25759514  1
  H+  H48  1  0.29491161  0.14639951  0.76739704  1
  H+  H49  1  0.51495441  0.48725580  0.49046108  1
  H+  H50  1  0.48101536  0.50680614  0.99078652  1
  H+  H51  1  0.68632523  0.19253209  0.01545534  1
  H+  H52  1  0.80395903  0.52026583  1.04599199  1
  H+  H53  1  0.85910256  1.06671042  0.03603512  1
  H+  H54  1  0.28635146  0.50216419  0.28324455  1
  H+  H55  1  0.35354331  0.20556771  0.52337360  1
  H+  H56  1  0.80934551  0.17722495  0.24329274  1
  H+  H57  1  0.51977525  0.70146149  0.76521180  1
  H+  H58  1  0.67096138  0.16556749  0.25187011  1
  H+  H59  1  0.19077040  0.71053668  0.73141071  1
  H+  H60  1  0.80501927  0.94051040  -0.06284167  1
  H+  H61  1  0.50625780  0.15345195  0.25995150  1
  H+  H62  1  0.19416700  0.36833061  0.98706948  1
  H+  H63  1  0.18493213  0.67614914  0.48631998  1
  H+  H64  1  0.16515061  0.17705658  0.73384084  1
  H+  H65  1  0.29440780  0.45941583  0.50067994  1
  H+  H66  1  0.36848317  0.85926599  1.01508113  1
  H+  H67  1  0.17397289  0.02978310  0.76234761  1
  H+  H68  1  0.63726390  0.38197289  0.81245052  1
  H+  H69  1  0.48573145  0.85257376  0.73941369  1
  H+  H70  1  0.48982070  0.85668415  0.50890193  1
  H+  H71  1  0.84932326  0.33719799  0.72829273  1
  H+  H72  1  0.70712931  0.52659656  0.49379133  1
  H+  H73  1  0.84645477  0.80945076  0.98516331  1
  H+  H74  1  0.05303437  0.18228327  0.70892878  1
  H+  H75  1  0.34276731  0.49669532  -0.01060173  1
  H+  H76  1  0.84022895  0.36715486  0.47157556  1
  H+  H77  1  0.97466801  0.18736498  0.25280755  1
  H+  H78  1  0.33998449  0.38632998  0.19694560  1
  H+  H79  1  0.83666563  0.12865550  0.80582263  1
  H+  H80  1  0.43315727  0.21845045  0.65495410  1
  H+  H81  1  0.14973405  0.53573436  0.24523539  1
  H+  H82  1  0.84545043  0.87781206  0.48024730  1
  H+  H83  1  0.49015517  0.30085393  0.24256811  1
  H+  H84  1  0.97836452  0.49671609  1.01349986  1
  H+  H85  1  0.62893537  0.48764646  -0.00161119  1
  H+  H86  1  0.37516758  0.85651212  0.24693685  1
  H+  H87  1  0.44896149  0.62846666  0.52658339  1
  H+  H88  1  0.22100587  0.14417875  0.36615348  1
  H+  H89  1  0.18517381  0.28871554  0.49590313  1
  H+  H90  1  0.19559446  0.36355998  0.75083077  1
  H+  H91  1  0.36367774  0.19208786  0.24946175  1
  H+  H92  1  0.82605868  0.95720236  0.77742854  1
  H+  H93  1  0.85740033  0.49246334  0.47268158  1
  H+  H94  1  0.86418341  0.69586779  0.75949508  1
  H+  H95  1  0.73163844  0.88060439  0.49656609  1
  H+  H96  1  0.80359815  0.31564335  1.02706722  1
  H+  H97  1  1.02511513  0.84661702  1.03029547  1
  H+  H98  1  0.14722608  0.01626802  0.51474713  1
  H+  H99  1  0.21363746  0.42172377  0.41097671  1
  H+  H100  1  0.47161918  0.16835798  0.73971006  1
  H+  H101  1  0.68159367  0.15329696  0.73843493  1
  H+  H102  1  0.51248025  0.82505238  -0.00239357  1
  H+  H103  1  0.47420416  0.29629775  1.01473738  1
  H+  H104  1  0.44109494  0.63575576  0.22450864  1
  H+  H105  1  0.17661207  0.37869380  0.26919435  1
  H+  H106  1  0.50912441  0.02397407  0.75693113  1
  H+  H107  1  0.18959522  0.82883307  0.73124104  1
  H+  H108  1  0.89230337  0.44989826  0.32359836  1
  H+  H109  1  0.88969288  0.14400565  0.40098130  1
  H+  H110  1  0.15953259  0.19452545  0.01343578  1
  H+  H111  1  0.71630394  0.51551174  0.72005448  1
  H+  H112  1  0.60611434  0.14903083  0.48337498  1
  H+  H113  1  0.69567575  0.85734433  -0.00745415  1
  H+  H114  1  0.85770772  0.06001005  0.48430475  1
  H+  H115  1  0.87977805  0.40439771  0.81895968  1
  H+  H116  1  0.17026795  0.66230233  0.23703537  1
  H+  H117  1  0.46080157  0.18374661  0.51458112  1
  H+  H118  1  0.86404445  0.76152816  0.37248901  1
  H+  H119  1  0.15381601  0.20214982  0.58674591  1
  H+  H120  1  0.45354052  0.90027912  0.10075645  1
  H+  H121  1  0.79303132  0.56876067  0.57722922  1
  H+  H122  1  0.13103611  0.24832166  0.15607334  1
  H+  H123  1  0.23218172  0.44370064  0.89151214  1
  H+  H124  1  0.44981083  0.89213279  0.59919390  1
  H+  H125  1  0.75329471  0.21859741  0.15480642  1
  H+  H126  1  0.76514859  0.12691962  0.67799976  1
  H+  H127  1  0.89215794  0.76246302  0.90586031  1
  H+  H128  1  0.89619619  0.49947381  0.93954907  1
  H+  H129  1  0.10854623  0.89958231  0.17701940  1
  H+  H130  1  0.13640540  0.96956000  0.02928877  1
  H+  H131  1  0.55212888  0.78097909  0.85285339  1
  H+  H132  1  0.12892560  0.56991216  0.09863478  1
  H+  H133  1  0.55898904  0.44170230  0.34968518  1
  H+  H134  1  0.42516484  0.50938801  0.08641531  1
  H+  H135  1  0.51320031  0.70603603  0.99787285  1
  H+  H136  1  0.55038161  0.10682612  0.84580611  1
  H+  H137  1  0.75168888  0.23065214  0.57639108  1
  H+  H138  1  0.77457511  0.59651481  0.16902125  1
  H+  H139  1  -0.03008929  0.50515531  0.24006593  1
  H+  H140  1  0.58240267  0.81660959  0.39117237  1
  H+  H141  1  0.56123554  0.43841836  0.90313769  1
  H+  H142  1  0.23512132  0.77595053  0.35729438  1
  H+  H143  1  0.80412996  0.91745129  0.14077460  1
  O2-  O144  1  0.12653035  0.25181001  0.22378985  1
  O2-  O145  1  0.13511159  0.22112813  0.69621285  1
  O2-  O146  1  0.12901144  0.58403933  0.20875300  1
  O2-  O147  1  0.12614456  0.54737485  0.71162497  1
  O2-  O148  1  0.12497241  0.90930311  0.24421308  1
  O2-  O149  1  0.11398821  0.90580040  0.71604851  1
  O2-  O150  1  0.43992961  0.22082870  0.21993694  1
  O2-  O151  1  0.43447978  0.21433967  0.72382860  1
  O2-  O152  1  0.41324003  0.44726173  0.17482395  1
  O2-  O153  1  0.45294844  0.55324342  0.72549257  1
  O2-  O154  1  0.45450037  0.90186692  0.21995348  1
  O2-  O155  1  0.45180621  0.89692831  0.71325472  1
  O2-  O156  1  0.75144527  0.20286206  0.22289804  1
  O2-  O157  1  0.76342463  0.18548198  0.71580944  1
  O2-  O158  1  0.78203654  0.60148419  0.23717041  1
  O2-  O159  1  0.79609831  0.55865498  0.69851197  1
  O2-  O160  1  0.81116777  0.92594263  0.20694866  1
  O2-  O161  1  0.79233664  0.88058290  0.75004208  1
  O2-  O162  1  0.22378068  0.13834780  0.29717187  1
  O2-  O163  1  0.21392109  0.11114817  0.78810542  1
  O2-  O164  1  0.20709543  0.45369454  0.30280912  1
  O2-  O165  1  0.23273582  0.44105037  0.77880282  1
  O2-  O166  1  0.24286447  0.79044229  0.28823230  1
  O2-  O167  1  0.23525819  0.79205357  0.74705081  1
  O2-  O168  1  0.54733338  0.11429081  0.28507863  1
  O2-  O169  1  0.55154551  0.10700691  0.77785728  1
  O2-  O170  1  0.56652249  0.43793989  0.28225378  1
  O2-  O171  1  0.58670920  0.40963564  0.79147706  1
  O2-  O172  1  0.59797499  0.84060759  0.27858748  1
  O2-  O173  1  0.55672245  0.78213035  0.78516670  1
  O2-  O174  1  0.89274461  0.14017657  0.26992270  1
  O2-  O175  1  0.87639987  0.09252395  0.83442218  1
  O2-  O176  1  0.89041597  0.45122558  0.25666003  1
  O2-  O177  1  0.88611508  0.41607540  0.75323999  1
  O2-  O178  1  0.77262171  0.70138965  0.26451855  1
  O2-  O179  1  0.89980955  0.76988282  0.79210215  1
  O2-  O180  1  0.22382605  0.15619437  0.48100126  1
  O2-  O181  1  0.20932595  0.11191422  0.97644825  1
  O2-  O182  1  0.21542204  0.40601382  0.47791612  1
  O2-  O183  1  0.23842431  0.44918165  0.96045309  1
  O2-  O184  1  0.22270505  0.75527573  0.46277813  1
  O2-  O185  1  0.23706052  0.79968082  0.98909842  1
  O2-  O186  1  0.52344772  0.10754573  0.46503145  1
  O2-  O187  1  0.55557722  0.11591614  0.96812840  1
  O2-  O188  1  0.55469739  0.44759695  0.46786966  1
  O2-  O189  1  0.55082885  0.44645020  0.96948641  1
  O2-  O190  1  0.57335654  0.79051924  0.45648061  1
  O2-  O191  1  0.55350370  0.78433810  0.97386337  1
  O2-  O192  1  0.87874138  0.14033978  0.46737875  1
  O2-  O193  1  0.90149606  0.14674818  1.01553712  1
  O2-  O194  1  0.89517831  0.44782491  0.45551197  1
  O2-  O195  1  0.89439882  0.46217449  0.99678391  1
  O2-  O196  1  0.89553774  0.78422297  0.43448551  1
  O2-  O197  1  0.88476218  0.76432473  0.97441466  1
  O2-  O198  1  0.13249450  0.24749768  0.03749918  1
  O2-  O199  1  0.15192603  0.20231229  0.51699305  1
  O2-  O200  1  0.11758151  0.56258584  0.03022484  1
  O2-  O201  1  0.10308314  0.52971311  0.53061364  1
  O2-  O202  1  0.10152843  0.89325302  0.05886857  1
  O2-  O203  1  0.10733098  0.93644948  0.53893250  1
  O2-  O204  1  0.43325705  0.21527946  0.03392930  1
  O2-  O205  1  0.43544069  0.23416964  0.54379517  1
  O2-  O206  1  0.43289014  0.53863568  0.01983664  1
  O2-  O207  1  0.42969658  0.55047146  0.54221494  1
  O2-  O208  1  0.45319127  0.89868843  0.03279888  1
  O2-  O209  1  0.44499878  0.89101447  0.53066799  1
  O2-  O210  1  0.76322169  0.23442494  0.04703188  1
  O2-  O211  1  0.74811581  0.22270729  0.51015526  1
  O2-  O212  1  0.75957299  0.55999526  0.05313202  1
  O2-  O213  1  0.78964441  0.56784427  0.50972663  1
  O2-  O214  1  0.78162108  0.90360852  -0.00292802  1
  O2-  O215  1  0.81421304  0.92360054  0.50770643  1
