# generated using pymatgen
data_H2O
_symmetry_space_group_name_H-M   'P 1'
_cell_length_a   13.51788509
_cell_length_b   13.51078994
_cell_length_c   14.65366672
_cell_angle_alpha   89.85853084
_cell_angle_beta   90.13752096
_cell_angle_gamma   120.03456623
_symmetry_Int_Tables_number   1
_chemical_formula_structural   H2O
_chemical_formula_sum   'H144 O72'
_cell_volume   2316.93228700
_cell_formula_units_Z   72
loop_
 _symmetry_equiv_pos_site_id
 _symmetry_equiv_pos_as_xyz
  1  'x, y, z'
loop_
 _atom_type_symbol
 _atom_type_oxidation_number
  H+  1.0
  O2-  -2.0
loop_
 _atom_site_type_symbol
 _atom_site_label
 _atom_site_symmetry_multiplicity
 _atom_site_fract_x
 _atom_site_fract_y
 _atom_site_fract_z
 _atom_site_occupancy
  H+  H0  1  1.03531345  0.84541177  1.01211593  1
  H+  H1  1  -0.01106293  0.82210891  0.27305841  1
  H+  H2  1  0.17044204  0.86890501  0.25879400  1
  H+  H3  1  0.65352964  0.49516857  0.49541091  1
  H+  H4  1  0.45757003  0.49409885  0.01295041  1
  H+  H5  1  0.22103298  0.12025496  0.35137384  1
  H+  H6  1  0.02982061  0.85901580  0.52003871  1
  H+  H7  1  0.17585221  0.82911377  0.52969358  1
  H+  H8  1  0.11972552  0.57642056  0.33972209  1
  H+  H9  1  0.74647237  0.74723785  0.01890790  1
  H+  H10  1  0.30156003  0.16127962  0.49339957  1
  H+  H11  1  0.44393705  0.60478559  0.00440578  1
  H+  H12  1  0.64529415  0.15202895  -0.03249598  1
  H+  H13  1  0.93573065  0.14424927  0.70675461  1
  H+  H14  1  0.14930573  0.29174337  0.22460639  1
  H+  H15  1  0.17323154  0.14862866  1.00102504  1
  H+  H16  1  0.17871185  0.15183066  0.25741678  1
  H+  H17  1  0.18202495  1.02212725  0.00070871  1
  H+  H18  1  0.30469927  0.14566977  1.00084532  1
  H+  H19  1  -0.06330840  0.44895741  -0.00444751  1
  H+  H20  1  0.44633072  0.19870482  0.74984898  1
  H+  H21  1  0.84694653  0.12219499  0.24373756  1
  H+  H22  1  0.03054000  0.17157374  0.23196923  1
  H+  H23  1  0.90191621  0.78124587  0.87870098  1
  H+  H24  1  0.24765275  0.76254693  0.30496912  1
  H+  H25  1  0.86756743  0.69922105  0.74584269  1
  H+  H26  1  0.80829117  0.31840032  0.74234755  1
  H+  H27  1  0.80489946  0.95795089  0.73137049  1
  H+  H28  1  0.87476760  0.70164134  0.26309105  1
  H+  H29  1  0.89799597  0.86090335  0.95491306  1
  H+  H30  1  0.19516155  0.41191859  0.91125986  1
  H+  H31  1  0.67652547  0.07665860  0.18068292  1
  H+  H32  1  0.79356097  0.19217819  0.73321372  1
  H+  H33  1  0.81504993  0.51409565  0.52716090  1
  H+  H34  1  0.64185470  0.80482740  0.28143526  1
  H+  H35  1  0.78793316  0.36331043  0.29878012  1
  H+  H36  1  0.48443010  0.14919649  0.27486026  1
  H+  H37  1  0.85025757  0.69046713  0.50789491  1
  H+  H38  1  0.45736099  0.65987226  0.67620553  1
  H+  H39  1  0.85900240  0.50696017  0.74901027  1
  H+  H40  1  0.14429547  0.62785051  0.54187851  1
  H+  H41  1  0.09430838  0.43366586  0.03014467  1
  H+  H42  1  0.61350610  0.47504184  0.98059038  1
  H+  H43  1  0.20021726  0.68158449  1.00623427  1
  H+  H44  1  0.58475012  0.75378328  -0.01987264  1
  H+  H45  1  0.82667047  0.29869788  0.52049056  1
  H+  H46  1  0.48960251  0.84573923  -0.01443737  1
  H+  H47  1  0.18092535  0.04448320  0.49401316  1
  H+  H48  1  0.27594992  0.45402628  0.00035082  1
  H+  H49  1  0.69577682  0.17624821  0.50570304  1
  H+  H50  1  0.49597120  0.93798643  0.76347888  1
  H+  H51  1  0.36657017  0.83513709  0.73863440  1
  H+  H52  1  0.30603215  0.46582397  0.24877404  1
  H+  H53  1  0.79561530  0.29265439  0.98400634  1
  H+  H54  1  0.23652269  0.79556853  0.60251195  1
  H+  H55  1  0.43771547  0.22631727  0.15845156  1
  H+  H56  1  0.62705710  0.78928532  0.74750381  1
  H+  H57  1  0.54574084  0.88343786  0.22474296  1
  H+  H58  1  0.80782298  0.63133754  -0.02361085  1
  H+  H59  1  0.70297242  0.84468923  0.50295008  1
  H+  H60  1  0.35274810  0.18983722  0.24628591  1
  H+  H61  1  0.97763741  0.47728120  0.53358864  1
  H+  H62  1  0.78542630  0.88198381  0.37896133  1
  H+  H63  1  0.15820817  0.19428659  0.50850183  1
  H+  H64  1  0.52733811  1.03898763  0.50533653  1
  H+  H65  1  0.88808805  -0.01611933  0.99705696  1
  H+  H66  1  0.51153935  0.49114733  0.25654003  1
  H+  H67  1  0.53642825  0.49724373  0.48791514  1
  H+  H68  1  0.55882875  0.44952831  0.35346958  1
  H+  H69  1  0.73204548  0.54385695  0.74062179  1
  H+  H70  1  0.03696415  0.19338911  0.50643134  1
  H+  H71  1  0.87397196  0.18677556  0.94226829  1
  H+  H72  1  0.83819580  0.51370789  0.20143606  1
  H+  H73  1  0.76380300  0.18872308  0.05874404  1
  H+  H74  1  0.14307475  0.50975671  0.75903166  1
  H+  H75  1  0.52756237  0.81942013  0.49676757  1
  H+  H76  1  0.75744266  0.21490647  0.19874254  1
  H+  H77  1  0.21611170  0.87591403  -0.03568637  1
  H+  H78  1  0.85696774  1.03749816  0.48575740  1
  H+  H79  1  0.47954824  0.17972403  1.01370632  1
  H+  H80  1  0.85871762  1.01862349  0.28337114  1
  H+  H81  1  0.51419902  0.79783317  0.74996902  1
  H+  H82  1  0.15116332  0.27813436  0.00425040  1
  H+  H83  1  0.04439825  0.88017058  0.74373228  1
  H+  H84  1  0.20169723  0.65643373  -0.03940378  1
  H+  H85  1  0.49388614  0.63271587  0.23743261  1
  H+  H86  1  0.47645591  0.29710140  0.01321685  1
  H+  H87  1  0.38596544  0.86160414  0.51931946  1
  H+  H88  1  0.84937812  0.97019364  -0.04412623  1
  H+  H89  1  0.42830659  0.34649101  0.77200495  1
  H+  H90  1  0.60304475  0.15775446  0.27828921  1
  H+  H91  1  0.82364921  0.17175843  0.49901505  1
  H+  H92  1  0.50693501  0.08475038  0.73711548  1
  H+  H93  1  0.85920093  0.81589231  0.75159451  1
  H+  H94  1  0.50225214  0.35846979  0.26304941  1
  H+  H95  1  0.33393113  0.87891634  0.96125720  1
  H+  H96  1  0.83045682  0.47246930  -0.02042864  1
  H+  H97  1  0.19719916  0.47661223  0.26526442  1
  H+  H98  1  0.17688725  0.47975558  0.53132598  1
  H+  H99  1  0.29569328  0.47601034  0.53205378  1
  H+  H100  1  0.52340154  0.73705346  0.88267770  1
  H+  H101  1  0.63893316  0.18722709  0.75603896  1
  H+  H102  1  0.52112949  0.70070607  0.50632300  1
  H+  H103  1  0.45368012  0.52045053  0.61997443  1
  H+  H104  1  0.50743818  -0.02232875  0.23102438  1
  H+  H105  1  0.48986214  0.31030341  0.51361062  1
  H+  H106  1  0.51981741  1.02082372  -0.03004732  1
  H+  H107  1  0.49141804  0.91198223  0.07835587  1
  H+  H108  1  0.24769069  0.83315510  0.38800444  1
  H+  H109  1  0.89817667  0.76532833  0.41614808  1
  H+  H110  1  0.11044864  0.55034072  0.63240268  1
  H+  H111  1  0.78142717  0.56699259  0.07045035  1
  H+  H112  1  0.48613949  0.19124971  0.52259658  1
  H+  H113  1  0.83074026  0.83812957  0.29863425  1
  H+  H114  1  0.78542207  0.56514743  0.61862556  1
  H+  H115  1  0.89529759  0.12001181  0.39738441  1
  H+  H116  1  0.22896851  0.09296573  0.73973222  1
  H+  H117  1  0.72150214  0.81647746  0.09048467  1
  H+  H118  1  0.40880538  0.22506677  0.65585818  1
  H+  H119  1  0.24598654  0.81702002  0.82132915  1
  H+  H120  1  0.10615884  0.19539558  0.09316537  1
  H+  H121  1  0.15489315  0.97601572  0.24602044  1
  H+  H122  1  0.02937996  0.52113387  0.75343889  1
  H+  H123  1  0.53960151  0.76553558  0.34649118  1
  H+  H124  1  0.89669786  0.13401811  0.80862141  1
  H+  H125  1  0.11138129  0.88443150  0.10564965  1
  H+  H126  1  0.93326192  0.62668896  0.15651758  1
  H+  H127  1  0.44842731  0.54802588  0.14850648  1
  H+  H128  1  0.82435197  0.84381339  0.50582243  1
  H+  H129  1  0.89680947  0.38585087  0.24572105  1
  H+  H130  1  0.09962998  0.54362518  0.06483097  1
  H+  H131  1  0.50220785  0.48261790  0.77127283  1
  H+  H132  1  0.11296601  0.91968828  0.60595498  1
  H+  H133  1  0.19846893  0.70154175  0.75987176  1
  H+  H134  1  0.46746722  0.89647725  0.60456861  1
  H+  H135  1  0.11470088  0.59261866  0.23514641  1
  H+  H136  1  0.90919701  0.44948714  0.44137692  1
  H+  H137  1  0.77691054  0.87953832  0.64555413  1
  H+  H138  1  0.88453118  0.45227823  0.83969507  1
  H+  H139  1  0.50757877  0.42344362  0.90805561  1
  H+  H140  1  0.98293089  0.17140406  0.94714465  1
  H+  H141  1  0.54682641  0.11532553  0.87944832  1
  H+  H142  1  0.16683621  0.33872371  0.52011887  1
  H+  H143  1  0.54933914  0.11566404  0.41618285  1
  O2-  O144  1  0.10860694  0.20876174  0.20477031  1
  O2-  O145  1  0.14651032  0.32778557  0.74309745  1
  O2-  O146  1  0.16624040  0.59894196  0.28448601  1
  O2-  O147  1  0.11268432  0.55876669  0.73475156  1
  O2-  O148  1  0.12001540  0.89362917  0.22798638  1
  O2-  O149  1  0.12423645  0.93174343  0.71981286  1
  O2-  O150  1  0.43648263  0.23175257  0.22661058  1
  O2-  O151  1  0.39070551  0.21684124  0.72221784  1
  O2-  O152  1  0.45920920  0.55105138  0.21717412  1
  O2-  O153  1  0.40316035  0.63102257  0.62260716  1
  O2-  O154  1  0.54602141  0.94842519  0.19133798  1
  O2-  O155  1  0.45472899  0.87675630  0.71967438  1
  O2-  O156  1  0.75372605  0.14646164  0.17142667  1
  O2-  O157  1  0.75411705  0.23682185  0.72468473  1
  O2-  O158  1  0.85452305  0.58950459  0.17878290  1
  O2-  O159  1  0.80676685  0.57909645  0.71144651  1
  O2-  O160  1  0.78614122  0.87804812  0.31160423  1
  O2-  O161  1  0.77159024  0.87608972  0.71271988  1
  O2-  O162  1  0.22328701  0.11653994  0.28306295  1
  O2-  O163  1  0.14531176  0.04489739  0.74912527  1
  O2-  O164  1  0.22411532  0.42131117  0.26433891  1
  O2-  O165  1  0.19199139  0.42044506  0.79053068  1
  O2-  O166  1  0.26198802  0.83896327  0.32231414  1
  O2-  O167  1  0.24747622  0.78650886  0.75918486  1
  O2-  O168  1  0.52506544  0.10959502  0.29997097  1
  O2-  O169  1  0.55172221  0.14647094  0.77999758  1
  O2-  O170  1  0.54779036  0.44260364  0.28417422  1
  O2-  O171  1  0.45257327  0.41723839  0.80911563  1
  O2-  O172  1  0.55707918  0.77167935  0.28014677  1
  O2-  O173  1  0.54431148  0.74515748  0.76438079  1
  O2-  O174  1  0.89590674  0.10427224  0.28317828  1
  O2-  O175  1  0.86682455  0.10756602  0.74423210  1
  O2-  O176  1  0.81805017  0.36927553  0.23714967  1
  O2-  O177  1  0.89241366  0.45718470  0.77236759  1
  O2-  O178  1  0.90840660  0.77431957  0.29705409  1
  O2-  O179  1  0.90606412  0.78258462  0.77332290  1
  O2-  O180  1  0.22173684  0.12481642  0.46951006  1
  O2-  O181  1  0.22274557  0.10468617  0.97876874  1
  O2-  O182  1  0.21635286  0.43841189  0.50687819  1
  O2-  O183  1  0.19487031  0.40543821  0.97919392  1
  O2-  O184  1  0.22061394  0.78745754  0.53661815  1
  O2-  O185  1  0.27866740  0.88750893  0.92322426  1
  O2-  O186  1  0.56604134  0.12080302  0.48317553  1
  O2-  O187  1  0.55432448  0.10659087  0.94963258  1
  O2-  O188  1  0.57366945  0.45624847  0.46469483  1
  O2-  O189  1  0.52910097  0.42754416  0.97502494  1
  O2-  O190  1  0.56163669  0.77380304  0.47304021  1
  O2-  O191  1  0.51278869  0.74023145  0.95011753  1
  O2-  O192  1  0.89321001  0.11973021  0.46628712  1
  O2-  O193  1  0.93779467  0.19145587  0.90663121  1
  O2-  O194  1  0.89632585  0.43364948  0.50651793  1
  O2-  O195  1  0.86369738  0.42425962  0.96105556  1
  O2-  O196  1  0.89108328  0.77154258  0.48324322  1
  O2-  O197  1  0.89698890  0.78791114  0.94921068  1
  O2-  O198  1  0.11330890  0.19414722  0.02433720  1
  O2-  O199  1  0.11584973  0.23336956  0.53172089  1
  O2-  O200  1  0.04705129  0.46132681  0.06179815  1
  O2-  O201  1  0.10707679  0.54650068  0.56133935  1
  O2-  O202  1  0.11357786  0.89074297  0.03765999  1
  O2-  O203  1  0.11199502  0.90733342  0.53783832  1
  O2-  O204  1  0.43814368  0.21619235  0.03898423  1
  O2-  O205  1  0.44312432  0.23102510  0.53686900  1
  O2-  O206  1  0.41448813  0.53075082  0.03797269  1
  O2-  O207  1  0.43499100  0.55671581  0.56982926  1
  O2-  O208  1  0.47377989  0.90551458  0.01180123  1
  O2-  O209  1  0.46790591  0.90135658  0.53610318  1
  O2-  O210  1  0.75788018  0.20603853  -0.00678276  1
  O2-  O211  1  0.78054369  0.21141614  0.52493169  1
  O2-  O212  1  0.76458992  0.55441188  0.00424111  1
  O2-  O213  1  0.77495700  0.55560087  0.54340466  1
  O2-  O214  1  0.68430053  0.74752532  0.05324315  1
  O2-  O215  1  0.78789526  0.89322494  0.51166306  1
