# generated using pymatgen
data_H2O
_symmetry_space_group_name_H-M   'P 1'
_cell_length_a   13.50175155
_cell_length_b   13.51710071
_cell_length_c   14.68065484
_cell_angle_alpha   89.95128499
_cell_angle_beta   90.09947095
_cell_angle_gamma   120.05777485
_symmetry_Int_Tables_number   1
_chemical_formula_structural   H2O
_chemical_formula_sum   'H144 O72'
_cell_volume   2318.97430036
_cell_formula_units_Z   72
loop_
 _symmetry_equiv_pos_site_id
 _symmetry_equiv_pos_as_xyz
  1  'x, y, z'
loop_
 _atom_type_symbol
 _atom_type_oxidation_number
  H+  1.0
  O2-  -2.0
loop_
 _atom_site_type_symbol
 _atom_site_label
 _atom_site_symmetry_multiplicity
 _atom_site_fract_x
 _atom_site_fract_y
 _atom_site_fract_z
 _atom_site_occupancy
  H+  H0  1  0.17654419  0.70212222  0.27510469  1
  H+  H1  1  0.88007981  0.46119061  0.83377188  1
  H+  H2  1  0.59527630  0.81720067  0.97568255  1
  H+  H3  1  0.03231982  0.16594712  0.25358205  1
  H+  H4  1  0.87666600  0.80221353  0.97345538  1
  H+  H5  1  0.48847037  0.19250756  0.02916181  1
  H+  H6  1  1.02960188  0.51393127  0.73991589  1
  H+  H7  1  0.81663479  0.16217515  0.48756258  1
  H+  H8  1  0.31150899  0.81449615  0.75070613  1
  H+  H9  1  0.96968751  0.14978495  0.73459988  1
  H+  H10  1  0.14440505  0.83095327  0.74572242  1
  H+  H11  1  0.81985723  0.97258479  0.74173384  1
  H+  H12  1  0.13196055  0.65277795  0.00831885  1
  H+  H13  1  0.29934590  0.49030388  0.24959698  1
  H+  H14  1  0.50088358  0.53464174  0.73732730  1
  H+  H15  1  0.81143370  0.62640665  1.01355451  1
  H+  H16  1  0.82963526  0.83594955  0.28402144  1
  H+  H17  1  0.78963826  0.28985157  0.49744265  1
  H+  H18  1  0.63477647  0.49683720  0.75877551  1
  H+  H19  1  0.89688698  0.75091846  0.88445659  1
  H+  H20  1  0.19589778  0.84896718  0.50006212  1
  H+  H21  1  0.03942144  0.32107865  0.09542731  1
  H+  H22  1  0.18083713  0.37640479  0.99068561  1
  H+  H23  1  0.51425959  0.82812635  0.72470481  1
  H+  H24  1  0.81098500  0.33059340  0.99022455  1
  H+  H25  1  0.25135079  -0.00215623  0.92351064  1
  H+  H26  1  0.30789682  0.48371204  0.72494164  1
  H+  H27  1  0.51152962  0.02458223  1.02686853  1
  H+  H28  1  0.62727850  0.51668248  0.49678636  1
  H+  H29  1  0.83823110  1.04135689  0.50371834  1
  H+  H30  1  0.50708344  0.63575857  0.49724207  1
  H+  H31  1  0.17734965  0.13874562  0.01115835  1
  H+  H32  1  0.47578365  0.30282999  0.01307061  1
  H+  H33  1  0.50036765  0.32051886  0.72175976  1
  H+  H34  1  0.84140469  0.37114676  0.75431149  1
  H+  H35  1  0.32869339  0.46132589  0.53066296  1
  H+  H36  1  0.82655570  0.87451456  0.51562180  1
  H+  H37  1  0.69187215  0.19296344  1.01533849  1
  H+  H38  1  0.76406327  0.55028606  0.10585708  1
  H+  H39  1  0.10027158  0.86529273  0.16618030  1
  H+  H40  1  0.29602084  0.19498740  0.50304612  1
  H+  H41  1  0.52062662  0.68290910  0.28249957  1
  H+  H42  1  0.79688239  0.50177446  0.25069089  1
  H+  H43  1  0.36053480  0.83730093  0.25201651  1
  H+  H44  1  0.03167790  0.82651945  0.00457138  1
  H+  H45  1  0.17956544  0.01153833  0.25443213  1
  H+  H46  1  0.51374448  1.01101111  0.28243604  1
  H+  H47  1  0.83829965  0.68869956  0.75186723  1
  H+  H48  1  0.63992324  0.82710402  0.49263704  1
  H+  H49  1  0.63601093  0.80402621  0.27191872  1
  H+  H50  1  0.12194577  0.95368226  0.03094538  1
  H+  H51  1  0.56134090  0.10221576  1.11129813  1
  H+  H52  1  0.84048618  0.67816756  0.28659536  1
  H+  H53  1  0.94541173  0.48600179  0.27359067  1
  H+  H54  1  0.96423037  0.80178952  0.75712874  1
  H+  H55  1  0.91833664  0.48792224  0.50652808  1
  H+  H56  1  0.20568684  0.43388329  0.50461764  1
  H+  H57  1  0.11544942  -0.10873966  0.66558022  1
  H+  H58  1  0.15336719  0.84222115  0.25645884  1
  H+  H59  1  0.86107744  1.02611416  0.28386491  1
  H+  H60  1  0.47883248  0.52044565  0.35289800  1
  H+  H61  1  0.13035247  0.52789068  0.23075025  1
  H+  H62  1  0.64024092  0.82654067  0.73925684  1
  H+  H63  1  0.17103804  0.71997356  0.50225476  1
  H+  H64  1  0.48960702  0.68805542  1.00287928  1
  H+  H65  1  0.70443291  0.16700437  0.26123086  1
  H+  H66  1  0.51321043  1.02186249  0.42453609  1
  H+  H67  1  0.31327098  0.14082919  0.24913852  1
  H+  H68  1  0.36742292  0.85449380  0.49648424  1
  H+  H69  1  0.14847442  0.28909189  0.70172107  1
  H+  H70  1  0.36403145  0.51099652  1.01948945  1
  H+  H71  1  0.80694933  0.51407059  0.72101618  1
  H+  H72  1  0.14644814  0.50774642  0.72853948  1
  H+  H73  1  0.51135901  0.48516073  -0.00568685  1
  H+  H74  1  0.48196593  0.97166657  0.71819434  1
  H+  H75  1  0.12264594  0.53524800  0.03161684  1
  H+  H76  1  0.88906476  0.11841967  0.41106245  1
  H+  H77  1  0.19489366  0.69369964  0.75955108  1
  H+  H78  1  0.18139186  0.13726469  0.24931261  1
  H+  H79  1  0.89068574  0.74841499  0.53931947  1
  H+  H80  1  0.84181824  0.06916835  0.97217531  1
  H+  H81  1  0.61232637  0.40389269  0.23569945  1
  H+  H82  1  0.80721572  0.18775761  0.74279390  1
  H+  H83  1  0.10023245  0.52998608  0.50588717  1
  H+  H84  1  0.05974890  0.88714729  0.52257167  1
  H+  H85  1  0.38213440  0.20460876  0.70897957  1
  H+  H86  1  0.62655036  0.48165868  0.99307404  1
  H+  H87  1  0.81589298  0.28759574  0.25818206  1
  H+  H88  1  0.50759506  0.15829041  0.73344723  1
  H+  H89  1  0.17716025  0.17773031  0.97458118  1
  H+  H90  1  0.94599807  0.49151147  0.98802062  1
  H+  H91  1  0.81897777  0.20505756  -0.01571701  1
  H+  H92  1  0.82352383  0.48298619  -0.00860503  1
  H+  H93  1  0.20003925  0.15869030  0.74177332  1
  H+  H94  1  0.34695000  0.12216533  0.95267520  1
  H+  H95  1  0.81427741  0.84886398  0.74486865  1
  H+  H96  1  0.17220567  0.00593890  0.53023404  1
  H+  H97  1  0.45141429  0.35439794  0.49768340  1
  H+  H98  1  0.85603837  0.14356948  0.27422228  1
  H+  H99  1  0.77618804  0.88728407  -0.00276925  1
  H+  H100  1  0.95983385  0.18728287  0.99030847  1
  H+  H101  1  0.34654086  0.83525512  0.01766729  1
  H+  H102  1  0.09032725  0.24292955  0.11430193  1
  H+  H103  1  0.19653737  0.44282235  0.31356979  1
  H+  H104  1  0.96496740  0.79170644  0.28483198  1
  H+  H105  1  0.22049205  0.49074360  0.93477085  1
  H+  H106  1  0.11098205  0.18607333  0.63140150  1
  H+  H107  1  0.18851579  0.82468863  0.98278800  1
  H+  H108  1  0.89838025  0.77521800  0.43106791  1
  H+  H109  1  0.44656373  0.26941585  0.57842283  1
  H+  H110  1  0.43727793  0.21125382  0.15667529  1
  H+  H111  1  0.44217788  0.55574496  0.11025967  1
  H+  H112  1  0.23295435  0.78127246  0.89574856  1
  H+  H113  1  0.08747182  0.56515912  0.60581859  1
  H+  H114  1  0.74597272  0.54654116  0.63952417  1
  H+  H115  1  0.47548117  0.56415870  0.63684699  1
  H+  H116  1  0.79007409  0.46474564  0.49482064  1
  H+  H117  1  0.73014875  0.93316447  0.07253765  1
  H+  H118  1  0.52643835  0.52372990  0.25676170  1
  H+  H119  1  0.23745413  0.42122351  0.81192542  1
  H+  H120  1  0.51540645  0.69696097  0.72619172  1
  H+  H121  1  0.80427085  0.87027682  0.19017961  1
  H+  H122  1  0.75589469  0.60842765  0.48347014  1
  H+  H123  1  0.48500998  0.08893178  0.82352307  1
  H+  H124  1  0.17858900  0.31475152  0.38117150  1
  H+  H125  1  0.15213577  0.28113949  0.24546123  1
  H+  H126  1  0.48486749  0.84980536  0.49582358  1
  H+  H127  1  0.68725818  0.17311262  0.45346570  1
  H+  H128  1  0.90133211  0.13040665  0.82733527  1
  H+  H129  1  0.47776096  0.83203932  0.24590664  1
  H+  H130  1  0.44853263  0.89566628  0.62684715  1
  H+  H131  1  0.07838336  0.57799095  0.15985124  1
  H+  H132  1  0.77658314  0.90208466  0.60338531  1
  H+  H133  1  0.55909290  0.78035142  0.40426402  1
  H+  H134  1  0.23938327  0.32681739  0.37898970  1
  H+  H135  1  0.18967419  0.26349842  0.51816543  1
  H+  H136  1  0.46920003  0.80988547  1.00884345  1
  H+  H137  1  0.47432822  0.16678074  0.24772210  1
  H+  H138  1  0.42369331  0.86268908  0.11427214  1
  H+  H139  1  0.68816639  0.18556938  0.75590577  1
  H+  H140  1  0.86029372  0.44161021  0.36025659  1
  H+  H141  1  0.26252983  0.10872832  0.80656326  1
  H+  H142  1  0.22421742  0.78638256  0.36296350  1
  H+  H143  1  0.55203014  0.45433824  0.84721900  1
  O2-  O144  1  0.10936382  0.20235156  0.22155061  1
  O2-  O145  1  0.10350220  0.20482111  0.69630509  1
  O2-  O146  1  0.08636610  0.56838796  0.22617344  1
  O2-  O147  1  0.10989029  0.55472455  0.71567578  1
  O2-  O148  1  0.10549432  0.87588908  0.23309167  1
  O2-  O149  1  0.09329283  0.86038479  0.72831408  1
  O2-  O150  1  0.43049983  0.20245239  0.22465538  1
  O2-  O151  1  0.46659946  0.24575294  0.69050409  1
  O2-  O152  1  0.46977315  0.53897882  0.28658369  1
  O2-  O153  1  0.46574768  0.57536871  0.70301545  1
  O2-  O154  1  0.43886948  0.87410099  0.22348419  1
  O2-  O155  1  0.44991402  0.89100957  0.69547025  1
  O2-  O156  1  0.78459273  0.20694952  0.23958598  1
  O2-  O157  1  0.77092360  0.23542853  0.74534747  1
  O2-  O158  1  0.76065683  0.54694441  0.22357502  1
  O2-  O159  1  0.76325859  0.55408449  0.70588810  1
  O2-  O160  1  0.79393025  0.87833313  0.25492439  1
  O2-  O161  1  0.77425428  0.88938161  0.72217690  1
  O2-  O162  1  0.22436228  0.09700303  0.26904821  1
  O2-  O163  1  0.25721525  0.13358515  0.74468204  1
  O2-  O164  1  0.21503760  0.45422014  0.24858997  1
  O2-  O165  1  0.22860434  0.43933584  0.74887188  1
  O2-  O166  1  0.22608162  0.78360027  0.29396661  1
  O2-  O167  1  0.23725630  0.77351564  0.78386953  1
  O2-  O168  1  0.55232704  0.09466012  0.29800691  1
  O2-  O169  1  0.52716305  0.10397707  0.76628706  1
  O2-  O170  1  0.64104679  0.48294624  0.25659135  1
  O2-  O171  1  0.55333020  0.46118937  0.77969397  1
  O2-  O172  1  0.55354644  0.76818707  0.28655757  1
  O2-  O173  1  0.55306925  0.78310317  0.74854110  1
  O2-  O174  1  0.90216267  0.10896464  0.29949801  1
  O2-  O175  1  0.89024994  0.11233720  0.76178948  1
  O2-  O176  1  0.86374369  0.44016012  0.29201808  1
  O2-  O177  1  0.88556361  0.45680713  0.76706108  1
  O2-  O178  1  0.88824152  0.75562224  0.31434178  1
  O2-  O179  1  0.88216723  0.76560735  0.78169785  1
  O2-  O180  1  0.21035424  0.13367957  0.48660507  1
  O2-  O181  1  0.32185871  0.06430118  0.90312433  1
  O2-  O182  1  0.24600817  0.40823668  0.54419596  1
  O2-  O183  1  0.24559409  0.43812043  0.95527145  1
  O2-  O184  1  0.22239039  0.79630280  0.47524163  1
  O2-  O185  1  0.22568646  0.77984664  0.96496036  1
  O2-  O186  1  0.55836393  0.10151803  0.39913724  1
  O2-  O187  1  0.55765505  0.10608598  1.04493835  1
  O2-  O188  1  0.51126751  0.49608077  0.45765037  1
  O2-  O189  1  0.54640483  0.44201902  0.96913570  1
  O2-  O190  1  0.55878721  0.77923582  0.47234200  1
  O2-  O191  1  0.51070680  0.76439548  0.97291282  1
  O2-  O192  1  0.87410063  0.12204070  0.47818427  1
  O2-  O193  1  0.88841932  0.14980312  0.95263878  1
  O2-  O194  1  0.84292187  0.43622948  0.47800032  1
  O2-  O195  1  0.86650511  0.44664847  0.96337475  1
  O2-  O196  1  0.90563190  0.80707068  0.49392577  1
  O2-  O197  1  0.90422013  0.75092209  0.95524718  1
  O2-  O198  1  0.07018230  0.27923314  0.06292632  1
  O2-  O199  1  0.13804611  0.17842309  0.51990737  1
  O2-  O200  1  0.08040262  0.57601213  0.03781884  1
  O2-  O201  1  0.07209128  0.57321674  0.53933620  1
  O2-  O202  1  0.10726981  0.87528666  0.03667991  1
  O2-  O203  1  0.13862116  0.92229776  0.54628294  1
  O2-  O204  1  0.43679413  0.22345853  0.03901970  1
  O2-  O205  1  0.41991613  0.27266509  0.51553507  1
  O2-  O206  1  0.44367930  0.56221864  0.04380619  1
  O2-  O207  1  0.47098170  0.55536975  0.52087618  1
  O2-  O208  1  0.42670932  0.86701985  0.04437682  1
  O2-  O209  1  0.45120779  0.89928736  0.51006734  1
  O2-  O210  1  0.77765712  0.24413339  0.01288805  1
  O2-  O211  1  0.75216716  0.20466812  0.49802938  1
  O2-  O212  1  0.76328773  0.54730198  0.03757228  1
  O2-  O213  1  0.70989361  0.53841340  0.51789990  1
  O2-  O214  1  0.73224787  0.92603243  0.00629220  1
  O2-  O215  1  0.77947411  0.90862087  0.53544651  1
