# generated using pymatgen
data_H2O
_symmetry_space_group_name_H-M   'P 1'
_cell_length_a   13.49323164
_cell_length_b   13.50450699
_cell_length_c   14.68604805
_cell_angle_alpha   90.04028899
_cell_angle_beta   90.02337400
_cell_angle_gamma   119.98908736
_symmetry_Int_Tables_number   1
_chemical_formula_structural   H2O
_chemical_formula_sum   'H144 O72'
_cell_volume   2317.80960487
_cell_formula_units_Z   72
loop_
 _symmetry_equiv_pos_site_id
 _symmetry_equiv_pos_as_xyz
  1  'x, y, z'
loop_
 _atom_type_symbol
 _atom_type_oxidation_number
  H+  1.0
  O2-  -2.0
loop_
 _atom_site_type_symbol
 _atom_site_label
 _atom_site_symmetry_multiplicity
 _atom_site_fract_x
 _atom_site_fract_y
 _atom_site_fract_z
 _atom_site_occupancy
  H+  H0  1  0.37778911  0.17905946  0.24808037  1
  H+  H1  1  0.64524623  0.50835062  0.51201606  1
  H+  H2  1  0.12092850  0.51241872  0.68945949  1
  H+  H3  1  0.19650201  0.03284878  0.24903624  1
  H+  H4  1  0.51034883  0.24717145  0.27809950  1
  H+  H5  1  0.84971749  1.02921884  0.50328328  1
  H+  H6  1  0.49837416  0.64705682  0.73085676  1
  H+  H7  1  0.24485937  0.48779773  0.95360618  1
  H+  H8  1  -0.03128048  0.79954513  -0.00818519  1
  H+  H9  1  0.81225568  0.17754525  0.73825783  1
  H+  H10  1  0.98365637  0.28647142  0.39114159  1
  H+  H11  1  0.88850012  0.77136756  0.85239781  1
  H+  H12  1  0.35228091  0.54036788  0.23350343  1
  H+  H13  1  0.30220184  0.13764523  0.48486589  1
  H+  H14  1  0.18820383  0.51041284  1.03823080  1
  H+  H15  1  0.52416645  0.86771151  0.53457580  1
  H+  H16  1  0.48266878  0.84191348  1.00639615  1
  H+  H17  1  -0.03852486  0.81294150  0.76058911  1
  H+  H18  1  0.37635073  0.52855776  0.72213077  1
  H+  H19  1  0.44596421  0.23098362  0.59441936  1
  H+  H20  1  0.02050974  0.17628586  0.48857530  1
  H+  H21  1  0.00497663  0.50873681  0.72322281  1
  H+  H22  1  0.51930837  0.81537746  0.76481777  1
  H+  H23  1  0.62498284  0.45869126  0.73573355  1
  H+  H24  1  0.57211044  0.56923008  0.22506844  1
  H+  H25  1  0.61645266  0.76579612  0.51476581  1
  H+  H26  1  0.69586276  0.19872195  0.50242769  1
  H+  H27  1  0.62535918  0.14239846  0.76345142  1
  H+  H28  1  0.82036466  0.84537246  0.75705245  1
  H+  H29  1  0.15534147  0.18360560  0.73260489  1
  H+  H30  1  -0.03624313  0.17005149  -0.00909355  1
  H+  H31  1  0.30006048  0.78595354  0.53630705  1
  H+  H32  1  0.18913495  0.12808249  1.00531572  1
  H+  H33  1  0.10316349  0.49650625  0.25475553  1
  H+  H34  1  0.56959611  0.69426466  0.21057990  1
  H+  H35  1  0.79512685  0.47841134  0.69634992  1
  H+  H36  1  0.78333838  0.55553103  0.14848172  1
  H+  H37  1  0.29044695  0.79876009  0.76160060  1
  H+  H38  1  0.51956378  1.11144647  0.24451220  1
  H+  H39  1  0.84098772  0.04019669  0.55219747  1
  H+  H40  1  0.15359876  0.83784933  1.00846403  1
  H+  H41  1  0.20960348  0.46429348  0.77924111  1
  H+  H42  1  0.16634709  0.68548675  0.74904215  1
  H+  H43  1  0.49164935  0.50228785  0.00288387  1
  H+  H44  1  0.80705196  0.18692518  0.00633928  1
  H+  H45  1  0.13513510  0.34232502  0.27653323  1
  H+  H46  1  0.16445468  0.69896627  0.26191452  1
  H+  H47  1  -0.02008532  0.16125927  0.23209186  1
  H+  H48  1  0.51410396  0.13898108  0.99251578  1
  H+  H49  1  0.96548718  0.48271092  0.98522203  1
  H+  H50  1  0.04005434  0.86252199  0.23445177  1
  H+  H51  1  0.28789631  0.80711674  0.25365224  1
  H+  H52  1  0.52016272  0.69328931  -0.01281275  1
  H+  H53  1  0.94962470  0.76409041  0.48467504  1
  H+  H54  1  -0.03097815  0.15034388  0.74995321  1
  H+  H55  1  0.84185276  -0.00568482  0.21855598  1
  H+  H56  1  0.14217091  0.23594801  -0.04140232  1
  H+  H57  1  0.69972950  0.50897998  1.00938328  1
  H+  H58  1  0.66682609  0.50848582  0.25999414  1
  H+  H59  1  0.14467488  0.83658016  0.74090346  1
  H+  H60  1  0.36036905  0.52355809  0.50998422  1
  H+  H61  1  0.63556466  0.14489852  0.99177844  1
  H+  H62  1  0.88245328  0.75820827  0.39484919  1
  H+  H63  1  0.14870568  0.26161428  0.49593127  1
  H+  H64  1  0.84783335  0.79761709  -0.00944306  1
  H+  H65  1  0.36903524  0.17369193  0.01370166  1
  H+  H66  1  0.84146231  0.35778598  0.75666574  1
  H+  H67  1  0.37098218  0.53486668  0.28052060  1
  H+  H68  1  0.51710218  0.35603318  -0.01713929  1
  H+  H69  1  0.47594076  0.29378681  0.73819013  1
  H+  H70  1  0.52170235  0.04953109  0.49260090  1
  H+  H71  1  0.52319342  0.48463970  0.75062473  1
  H+  H72  1  0.10117245  0.84659344  0.59234443  1
  H+  H73  1  0.47657107  0.17571837  0.73862395  1
  H+  H74  1  0.82347813  0.52890268  0.24574512  1
  H+  H75  1  0.14603185  0.95511962  0.73193833  1
  H+  H76  1  0.72228426  0.87765453  0.21867457  1
  H+  H77  1  0.17391380  0.11108600  0.48202113  1
  H+  H78  1  0.43460649  0.87005324  0.14483178  1
  H+  H79  1  0.48892837  0.31550105  0.50856628  1
  H+  H80  1  0.15455519  0.85293607  0.23534340  1
  H+  H81  1  0.47929055  0.49968791  0.50841443  1
  H+  H82  1  0.80865897  0.31779879  0.52198121  1
  H+  H83  1  0.30134678  0.80684378  0.98779891  1
  H+  H84  1  0.18824140  0.36949890  0.70906531  1
  H+  H85  1  0.59915776  0.98527506  0.58271300  1
  H+  H86  1  0.16522399  0.33273674  1.02657760  1
  H+  H87  1  0.79909475  0.29889098  0.00314695  1
  H+  H88  1  0.17140449  0.18644866  0.23722769  1
  H+  H89  1  0.70665096  0.83604502  0.00140658  1
  H+  H90  1  0.85222059  1.03025373  0.75625950  1
  H+  H91  1  0.85882483  0.71708082  0.24861792  1
  H+  H92  1  0.14625646  0.63538320  0.02408699  1
  H+  H93  1  0.85005302  0.48674747  0.98484368  1
  H+  H94  1  0.11600406  0.88400729  0.09642352  1
  H+  H95  1  0.51253528  0.82030629  0.23590991  1
  H+  H96  1  0.29698844  0.14426717  0.75617248  1
  H+  H97  1  0.82001467  0.62817266  0.01032714  1
  H+  H98  1  0.53407725  0.40576388  0.26046036  1
  H+  H99  1  0.18302884  0.48486413  0.49962026  1
  H+  H100  1  0.47359804  0.94077004  0.24035991  1
  H+  H101  1  0.23362559  0.10271177  0.34255034  1
  H+  H102  1  0.79449958  0.76919353  0.51324167  1
  H+  H103  1  0.86252429  0.83753448  0.25131150  1
  H+  H104  1  0.51267288  0.16278660  0.48238093  1
  H+  H105  1  0.81688992  0.53081991  0.55238498  1
  H+  H106  1  0.48291073  -0.03897025  1.00860685  1
  H+  H107  1  0.47479003  0.96079583  0.76128280  1
  H+  H108  1  0.55883667  0.43679029  0.89358351  1
  H+  H109  1  0.09235241  0.55773697  0.11593989  1
  H+  H110  1  0.88340111  0.44936319  0.83790017  1
  H+  H111  1  0.21478145  0.75823620  0.90194109  1
  H+  H112  1  0.89247898  0.12808279  0.89894824  1
  H+  H113  1  0.09052936  0.37171423  0.87095618  1
  H+  H114  1  0.44041691  0.54064118  0.60847941  1
  H+  H115  1  0.18687341  0.01082824  0.99265218  1
  H+  H116  1  0.45611723  0.22363147  0.09804449  1
  H+  H117  1  0.13398710  0.35204855  0.86882310  1
  H+  H118  1  0.02329503  0.52744524  0.57674679  1
  H+  H119  1  0.88326340  0.47095801  0.43011254  1
  H+  H120  1  0.21766067  0.10208697  0.84460583  1
  H+  H121  1  0.54985231  0.10574230  0.85464175  1
  H+  H122  1  0.50444229  0.71449091  0.45076811  1
  H+  H123  1  0.54561746  0.08543124  0.34403404  1
  H+  H124  1  0.38183201  0.51722065  0.03665191  1
  H+  H125  1  0.10565193  0.20263589  0.63899260  1
  H+  H126  1  0.13707868  0.22815653  0.14717114  1
  H+  H127  1  0.87406885  0.22131412  0.45551767  1
  H+  H128  1  0.77224694  0.86246143  0.66404992  1
  H+  H129  1  0.25657517  0.61214806  0.47377959  1
  H+  H130  1  0.52667652  0.59404251  0.12109503  1
  H+  H131  1  0.58884510  0.48464347  0.41007201  1
  H+  H132  1  0.79522497  0.88705581  0.08389343  1
  H+  H133  1  0.45294328  0.89179627  0.67069470  1
  H+  H134  1  0.79109959  0.88320556  0.51769267  1
  H+  H135  1  0.18093747  0.74338561  0.49391737  1
  H+  H136  1  0.14369485  0.90947407  0.49869257  1
  H+  H137  1  0.76891009  0.21883578  0.65233477  1
  H+  H138  1  0.00363584  0.52270655  0.25268246  1
  H+  H139  1  0.88942535  0.14171314  0.30634420  1
  H+  H140  1  0.64169184  0.81788378  0.76260804  1
  H+  H141  1  0.58394994  0.80366245  0.31941516  1
  H+  H142  1  0.18385648  0.43980741  0.35355609  1
  H+  H143  1  0.55666870  0.77218371  0.89915650  1
  O2-  O144  1  0.13392658  0.22933458  0.21388927  1
  O2-  O145  1  0.11774607  0.22432984  0.70456594  1
  O2-  O146  1  0.08168772  0.55140067  0.22815344  1
  O2-  O147  1  0.07875083  0.55442938  0.68755321  1
  O2-  O148  1  0.11979754  0.89925211  0.20968383  1
  O2-  O149  1  0.10549594  0.87436032  0.71145513  1
  O2-  O150  1  0.45993779  0.22299166  0.22520566  1
  O2-  O151  1  0.43552458  0.21419928  0.71325479  1
  O2-  O152  1  0.57752514  0.62940467  0.17962906  1
  O2-  O153  1  0.45893435  0.56584677  0.70541510  1
  O2-  O154  1  0.43358049  0.86059571  0.21281733  1
  O2-  O155  1  0.43810609  0.88006470  0.73711689  1
  O2-  O156  1  0.80330956  0.34297629  0.30573768  1
  O2-  O157  1  0.76804176  0.21586988  0.72023787  1
  O2-  O158  1  0.78452958  0.56718112  0.21654968  1
  O2-  O159  1  0.72496261  0.46144914  0.66065461  1
  O2-  O160  1  0.80319771  0.90927817  0.20193915  1
  O2-  O161  1  0.77719080  0.88332775  0.72905273  1
  O2-  O162  1  0.24068598  0.11301639  0.27480830  1
  O2-  O163  1  0.21544334  0.10581662  0.77727118  1
  O2-  O164  1  0.11826212  0.39399856  0.31356776  1
  O2-  O165  1  0.22491465  0.45531075  0.71577355  1
  O2-  O166  1  0.20949992  0.78184758  0.27550715  1
  O2-  O167  1  0.20920281  0.75940791  0.78255277  1
  O2-  O168  1  0.54469984  0.06561844  0.27856881  1
  O2-  O169  1  0.54467706  0.10337613  0.78591863  1
  O2-  O170  1  0.58545716  0.48180541  0.28596010  1
  O2-  O171  1  0.55516084  0.43728038  0.77336903  1
  O2-  O172  1  0.57305224  0.79546859  0.25379600  1
  O2-  O173  1  0.55823040  0.77123927  0.78090368  1
  O2-  O174  1  0.89652977  0.12407519  0.24233009  1
  O2-  O175  1  0.88971689  0.11282485  0.77376084  1
  O2-  O176  1  0.86777710  0.45449821  0.31385541  1
  O2-  O177  1  0.87920811  0.44172197  0.76982447  1
  O2-  O178  1  0.89986110  0.79463008  0.27595080  1
  O2-  O179  1  0.88328472  0.78087797  0.78563603  1
  O2-  O180  1  0.22520645  0.08408464  0.45941496  1
  O2-  O181  1  0.22885508  0.09471861  0.97300059  1
  O2-  O182  1  0.25511995  0.53673139  0.46915324  1
  O2-  O183  1  0.23965032  0.47621728  1.01937056  1
  O2-  O184  1  0.24558969  0.72857217  0.49476676  1
  O2-  O185  1  0.21851056  0.76332337  0.96990923  1
  O2-  O186  1  0.55334126  0.12278053  0.45941547  1
  O2-  O187  1  0.55188974  0.09713892  0.96899850  1
  O2-  O188  1  0.57190292  0.47581011  0.47640882  1
  O2-  O189  1  0.55566098  0.43743229  0.96156424  1
  O2-  O190  1  0.53665430  0.75401244  0.50782956  1
  O2-  O191  1  0.55487800  0.77375436  0.96722443  1
  O2-  O192  1  0.93354541  0.21309702  0.42175897  1
  O2-  O193  1  0.88644134  0.13395053  0.96554112  1
  O2-  O194  1  0.88648031  0.46625049  0.49853732  1
  O2-  O195  1  0.88977862  0.44927415  0.95521830  1
  O2-  O196  1  0.87128643  0.73204577  0.45928831  1
  O2-  O197  1  0.88843825  0.75436380  0.96990351  1
  O2-  O198  1  0.12802226  0.24703263  0.02191068  1
  O2-  O199  1  0.09208966  0.18630436  0.51830127  1
  O2-  O200  1  0.10595393  0.55524086  0.04861514  1
  O2-  O201  1  0.00964851  0.50700724  0.51040492  1
  O2-  O202  1  0.11513492  0.88145910  0.02769593  1
  O2-  O203  1  0.10092070  0.83260019  0.52549221  1
  O2-  O204  1  0.45149628  0.22146667  0.03094249  1
  O2-  O205  1  0.44623162  0.23401090  0.52620478  1
  O2-  O206  1  0.46683573  0.55290003  0.03560887  1
  O2-  O207  1  0.41408079  0.50315351  0.54342339  1
  O2-  O208  1  0.43934075  0.87897487  0.02967212  1
  O2-  O209  1  0.52113237  0.93486034  0.56137615  1
  O2-  O210  1  0.75899743  0.22016589  0.02705243  1
  O2-  O211  1  0.77318330  0.23376107  0.53114366  1
  O2-  O212  1  0.77800254  0.54693388  0.03574454  1
  O2-  O213  1  0.76278884  0.54712080  0.58719247  1
  O2-  O214  1  0.78716882  0.86473852  0.01863586  1
  O2-  O215  1  0.75006241  0.80533772  0.54190235  1
