# generated using pymatgen
data_H2O
_symmetry_space_group_name_H-M   'P 1'
_cell_length_a   13.53046506
_cell_length_b   13.52863750
_cell_length_c   14.70976518
_cell_angle_alpha   90.00562472
_cell_angle_beta   89.97415874
_cell_angle_gamma   119.99965856
_symmetry_Int_Tables_number   1
_chemical_formula_structural   H2O
_chemical_formula_sum   'H144 O72'
_cell_volume   2331.87142827
_cell_formula_units_Z   72
loop_
 _symmetry_equiv_pos_site_id
 _symmetry_equiv_pos_as_xyz
  1  'x, y, z'
loop_
 _atom_type_symbol
 _atom_type_oxidation_number
  H+  1.0
  O2-  -2.0
loop_
 _atom_site_type_symbol
 _atom_site_label
 _atom_site_symmetry_multiplicity
 _atom_site_fract_x
 _atom_site_fract_y
 _atom_site_fract_z
 _atom_site_occupancy
  H+  H0  1  0.50134131  0.50209984  0.49095066  1
  H+  H1  1  0.09562179  0.60920582  0.12503135  1
  H+  H2  1  0.50530689  0.66285400  0.25475147  1
  H+  H3  1  0.15328912  0.02638990  0.25860429  1
  H+  H4  1  0.48405140  0.84808040  0.01411902  1
  H+  H5  1  0.83751256  0.19712601  1.01118384  1
  H+  H6  1  0.84974567  0.18223331  0.26868258  1
  H+  H7  1  0.86423879  0.47570881  0.99115643  1
  H+  H8  1  0.97146248  0.15301740  0.95606444  1
  H+  H9  1  0.15668379  0.83380867  0.01919040  1
  H+  H10  1  0.39045861  0.51067663  0.04959902  1
  H+  H11  1  0.86524135  0.77160652  0.96657956  1
  H+  H12  1  0.81939292  0.32017440  0.23320972  1
  H+  H13  1  0.35766715  0.18406139  0.74887214  1
  H+  H14  1  0.49576087  1.02879936  -0.00941277  1
  H+  H15  1  0.09899339  0.87781949  0.61028881  1
  H+  H16  1  0.84549080  0.58472131  0.26673163  1
  H+  H17  1  0.83086638  0.73362832  0.26451205  1
  H+  H18  1  0.79959677  0.95070303  0.73260659  1
  H+  H19  1  0.03174276  0.22157683  0.31122219  1
  H+  H20  1  0.17477243  0.02082009  0.76167149  1
  H+  H21  1  0.26479727  0.66988634  0.30798751  1
  H+  H22  1  0.09022811  0.19274055  0.65835481  1
  H+  H23  1  0.42005442  0.18102615  0.25902083  1
  H+  H24  1  0.81198505  0.18947888  0.51194905  1
  H+  H25  1  0.28451349  0.47714307  0.72694458  1
  H+  H26  1  0.03360775  0.81399126  0.01274434  1
  H+  H27  1  0.48340874  0.86974074  0.49286571  1
  H+  H28  1  0.80999271  0.84571437  0.50771306  1
  H+  H29  1  0.78939473  0.52910586  0.10859168  1
  H+  H30  1  0.81303657  0.30888998  0.50424720  1
  H+  H31  1  0.16728754  0.19781033  -0.02990703  1
  H+  H32  1  0.79803009  0.16782498  0.73144754  1
  H+  H33  1  -0.00363528  0.50435050  -0.00895002  1
  H+  H34  1  0.13355926  0.84141171  0.51499886  1
  H+  H35  1  0.55442049  0.17310926  0.23718000  1
  H+  H36  1  0.64710299  0.84533622  0.26511750  1
  H+  H37  1  0.85541812  0.32330003  0.01477830  1
  H+  H38  1  0.48926543  0.36525211  0.48403922  1
  H+  H39  1  0.49295147  0.65799040  0.50340150  1
  H+  H40  1  0.30753337  0.48114118  0.92834073  1
  H+  H41  1  0.11045051  0.24441818  0.04205957  1
  H+  H42  1  0.14612312  0.53550950  0.50928687  1
  H+  H43  1  0.35361945  0.18993387  0.49187044  1
  H+  H44  1  0.62167431  0.14158280  0.75601648  1
  H+  H45  1  0.29461276  0.83011910  0.48372115  1
  H+  H46  1  0.47722694  0.19020536  0.74857798  1
  H+  H47  1  0.55994082  0.79638833  0.40057605  1
  H+  H48  1  0.17051083  1.01705203  0.50111671  1
  H+  H49  1  0.19090543  0.40462826  0.29403471  1
  H+  H50  1  0.01747908  0.84442100  0.74343567  1
  H+  H51  1  0.63602439  0.81329570  0.75956119  1
  H+  H52  1  0.52625913  0.50924788  0.27573101  1
  H+  H53  1  0.13692560  0.65003810  0.51059029  1
  H+  H54  1  0.83691548  1.03259904  0.49751122  1
  H+  H55  1  0.68817129  0.85579145  0.01608988  1
  H+  H56  1  0.37354202  0.84682919  0.24938616  1
  H+  H57  1  0.26100852  0.15268454  0.25739128  1
  H+  H58  1  0.95589942  0.49058312  0.47896175  1
  H+  H59  1  0.15375328  0.54111978  1.02262056  1
  H+  H60  1  0.29887190  0.52071236  0.49874142  1
  H+  H61  1  0.80259655  0.62276952  0.75678530  1
  H+  H62  1  0.87866735  0.12045657  0.41380479  1
  H+  H63  1  0.13669704  0.83770120  0.74411187  1
  H+  H64  1  1.01900164  0.16626298  0.52488214  1
  H+  H65  1  0.30001916  0.81051811  -0.01882802  1
  H+  H66  1  0.83495944  0.48516157  0.48278116  1
  H+  H67  1  0.15210481  0.51837554  0.71865976  1
  H+  H68  1  0.63588412  0.83150233  0.49102179  1
  H+  H69  1  0.18618307  0.37034312  0.94581499  1
  H+  H70  1  0.82867464  0.35483081  0.76548640  1
  H+  H71  1  0.31004771  0.17196976  0.98943887  1
  H+  H72  1  0.13252169  0.15694843  0.52519633  1
  H+  H73  1  0.95731755  0.81067536  0.50662701  1
  H+  H74  1  0.14083125  0.85043412  0.24381065  1
  H+  H75  1  0.80858556  0.86475593  0.02935314  1
  H+  H76  1  0.82701524  0.60722095  1.01747724  1
  H+  H77  1  0.52541287  0.84005581  0.26002307  1
  H+  H78  1  0.48354283  -0.01026915  0.48958898  1
  H+  H79  1  0.94699592  0.13087790  0.74810596  1
  H+  H80  1  0.48511995  -0.02376909  0.24102131  1
  H+  H81  1  0.79663817  0.50220046  0.77173779  1
  H+  H82  1  0.48990180  0.30485262  1.01989065  1
  H+  H83  1  0.47204791  0.51087527  0.73344121  1
  H+  H84  1  0.17583622  0.68815470  0.98635079  1
  H+  H85  1  0.14008048  0.20820435  0.30992443  1
  H+  H86  1  0.50801245  0.51764521  0.01926143  1
  H+  H87  1  0.50075213  1.02773471  0.75033096  1
  H+  H88  1  0.12641534  0.28052138  0.74000729  1
  H+  H89  1  0.49579990  0.36487832  0.76642921  1
  H+  H90  1  0.84937478  0.06420001  0.26798724  1
  H+  H91  1  0.31378516  0.51146147  0.27257493  1
  H+  H92  1  0.51252250  0.38454791  0.27522242  1
  H+  H93  1  0.84448371  0.90444415  0.24173201  1
  H+  H94  1  0.64010100  0.48045710  0.99038402  1
  H+  H95  1  0.63687454  0.16752235  0.48637939  1
  H+  H96  1  0.66313976  0.16395801  0.24762329  1
  H+  H97  1  0.48038210  0.20549086  0.48531783  1
  H+  H98  1  0.52541888  0.69644411  0.99996494  1
  H+  H99  1  0.80861102  0.62626449  0.51734622  1
  H+  H100  1  0.15626852  0.64642006  0.73497637  1
  H+  H101  1  0.28896319  0.81080083  0.75291583  1
  H+  H102  1  0.69130010  0.51041918  0.51386828  1
  H+  H103  1  0.01758424  0.56587203  0.21726276  1
  H+  H104  1  0.47839579  0.18027374  0.01735343  1
  H+  H105  1  0.85159559  1.04110619  -0.01874967  1
  H+  H106  1  0.80685308  0.83499342  0.73593472  1
  H+  H107  1  0.18090534  0.69291574  0.24965761  1
  H+  H108  1  0.93113956  0.88131173  0.81868614  1
  H+  H109  1  0.10849727  0.57206383  0.62975985  1
  H+  H110  1  0.21884230  0.76657980  0.84959975  1
  H+  H111  1  0.11549218  0.25709156  0.15629584  1
  H+  H112  1  0.96647124  0.78538584  0.26332233  1
  H+  H113  1  0.09580228  0.86815920  0.14910815  1
  H+  H114  1  0.20771446  0.44807015  0.81569434  1
  H+  H115  1  0.78265860  0.91956337  0.15491660  1
  H+  H116  1  0.56939457  0.13180997  0.39211723  1
  H+  H117  1  0.88526695  0.76125792  0.41568874  1
  H+  H118  1  0.42336291  0.89963189  0.62122257  1
  H+  H119  1  0.21622480  0.76750747  0.39976355  1
  H+  H120  1  0.16790716  0.13568753  0.76434520  1
  H+  H121  1  0.19840017  0.09187658  0.41022945  1
  H+  H122  1  0.76598115  0.87921911  0.59672148  1
  H+  H123  1  0.44075419  0.88693913  0.10037531  1
  H+  H124  1  0.88801271  0.43647594  0.85004678  1
  H+  H125  1  0.54710604  0.46048258  0.39410563  1
  H+  H126  1  0.61557553  0.48454939  0.77250061  1
  H+  H127  1  0.53630726  0.83665654  0.79176603  1
  H+  H128  1  0.56194165  0.76988549  0.90767736  1
  H+  H129  1  0.45286570  0.83112886  0.68879457  1
  H+  H130  1  0.55251763  0.44881357  0.90421427  1
  H+  H131  1  0.86437656  0.09388708  0.83274865  1
  H+  H132  1  0.53083257  0.10631799  0.90235701  1
  H+  H133  1  0.87389127  0.45869567  0.34435551  1
  H+  H134  1  0.76245387  0.22045915  0.64910001  1
  H+  H135  1  0.90381206  0.74580726  0.87656735  1
  H+  H136  1  0.07319906  0.19344956  0.15511243  1
  H+  H137  1  0.47159882  0.62879842  0.73420730  1
  H+  H138  1  0.43122482  0.23129078  0.15681520  1
  H+  H139  1  0.45070507  0.57326742  0.59136831  1
  H+  H140  1  0.22563737  0.48980909  0.40880317  1
  H+  H141  1  0.47721878  0.58103940  0.16858731  1
  H+  H142  1  0.23425788  0.12131644  0.89751013  1
  H+  H143  1  0.80044572  0.24111153  0.14296736  1
  O2-  O144  1  0.11514394  0.26370000  0.32234691  1
  O2-  O145  1  0.08788965  0.19760764  0.72834120  1
  O2-  O146  1  0.08106144  0.63363172  0.18885384  1
  O2-  O147  1  0.11734115  0.56824790  0.70166714  1
  O2-  O148  1  0.09159015  0.87751040  0.21923671  1
  O2-  O149  1  0.10188288  0.88123280  0.71916428  1
  O2-  O150  1  0.41927744  0.24176594  0.22392813  1
  O2-  O151  1  0.43890666  0.23349992  0.73134452  1
  O2-  O152  1  0.46838020  0.58082973  0.23552624  1
  O2-  O153  1  0.43480991  0.55307086  0.70493205  1
  O2-  O154  1  0.44993134  0.89567911  0.22026768  1
  O2-  O155  1  0.42227992  0.88282004  0.68850936  1
  O2-  O156  1  0.78846007  0.23956701  0.21374165  1
  O2-  O157  1  0.75709268  0.20981814  0.71635422  1
  O2-  O158  1  0.80584869  0.50542209  0.24191106  1
  O2-  O159  1  0.75044101  0.54213424  0.76803873  1
  O2-  O160  1  0.78671478  0.92318589  0.22320986  1
  O2-  O161  1  0.75735435  0.86783789  0.71365553  1
  O2-  O162  1  0.18902704  0.10186541  0.28937105  1
  O2-  O163  1  0.21454697  0.10118763  0.78453524  1
  O2-  O164  1  0.23667382  0.49041930  0.29398917  1
  O2-  O165  1  0.20354416  0.44267356  0.74743535  1
  O2-  O166  1  0.24989727  0.73245875  0.29519729  1
  O2-  O167  1  0.21198092  0.76314846  0.77940721  1
  O2-  O168  1  0.57929399  0.12573769  0.26829578  1
  O2-  O169  1  0.54122183  0.10301424  0.77976729  1
  O2-  O170  1  0.55771980  0.46167789  0.30209339  1
  O2-  O171  1  0.53107932  0.44731512  0.78795433  1
  O2-  O172  1  0.56659640  0.80124322  0.28574452  1
  O2-  O173  1  0.55610825  0.77658419  0.78910708  1
  O2-  O174  1  0.88246757  0.13821551  0.29971693  1
  O2-  O175  1  0.86336032  0.08863395  0.76484874  1
  O2-  O176  1  0.87899898  0.46065905  0.27409011  1
  O2-  O177  1  0.86916329  0.43567663  0.78452454  1
  O2-  O178  1  0.89235633  0.72904290  0.29485476  1
  O2-  O179  1  0.90356585  0.81024574  0.78480539  1
  O2-  O180  1  0.21077064  0.09713797  0.47698931  1
  O2-  O181  1  0.23226287  0.13955360  0.96323083  1
  O2-  O182  1  0.21999755  0.48969344  0.47675624  1
  O2-  O183  1  0.22606969  0.45399377  0.92795467  1
  O2-  O184  1  0.21265097  0.78391979  0.46570512  1
  O2-  O185  1  0.22185794  0.77245665  0.95556131  1
  O2-  O186  1  0.55792321  0.12956727  0.45886063  1
  O2-  O187  1  0.52684501  0.10833332  0.96956119  1
  O2-  O188  1  0.53786746  0.45491427  0.46834024  1
  O2-  O189  1  0.55864708  0.44954472  0.97274032  1
  O2-  O190  1  0.55456899  0.79468960  0.46859385  1
  O2-  O191  1  0.56277530  0.77587502  0.97543183  1
  O2-  O192  1  0.87717983  0.11527124  0.48173661  1
  O2-  O193  1  0.88685858  0.11365910  0.94720190  1
  O2-  O194  1  0.87750149  0.44847305  0.45324639  1
  O2-  O195  1  0.91364529  0.44758392  0.96705808  1
  O2-  O196  1  0.87720181  0.77069162  0.48146352  1
  O2-  O197  1  0.90164855  0.72946685  0.94594725  1
  O2-  O198  1  0.11641604  0.23710138  -0.02370765  1
  O2-  O199  1  0.09372076  0.19400292  0.55505274  1
  O2-  O200  1  0.11191472  0.58200458  0.02895932  1
  O2-  O201  1  0.09657032  0.56930211  0.53316749  1
  O2-  O202  1  0.10550257  0.85947650  0.04650748  1
  O2-  O203  1  0.09337184  0.87943814  0.54117124  1
  O2-  O204  1  0.44580529  0.22707643  0.04620055  1
  O2-  O205  1  0.43729042  0.24621466  0.49448432  1
  O2-  O206  1  0.47269816  0.56257657  0.04841958  1
  O2-  O207  1  0.45232256  0.57560170  0.52312237  1
  O2-  O208  1  0.44010261  0.88498410  0.03273315  1
  O2-  O209  1  0.43904545  0.90790212  0.51034955  1
  O2-  O210  1  0.81344324  0.24515410  0.04404859  1
  O2-  O211  1  0.76987227  0.23022888  0.52993782  1
  O2-  O212  1  0.77429713  0.53045996  0.04305536  1
  O2-  O213  1  0.77204490  0.54303449  0.52982573  1
  O2-  O214  1  0.76802094  0.90553636  0.04247344  1
  O2-  O215  1  0.76953062  0.88672659  0.52885201  1
