# generated using pymatgen
data_H2O
_symmetry_space_group_name_H-M   'P 1'
_cell_length_a   13.50834005
_cell_length_b   13.52829207
_cell_length_c   14.68238700
_cell_angle_alpha   90.04402278
_cell_angle_beta   90.01217816
_cell_angle_gamma   119.99845449
_symmetry_Int_Tables_number   1
_chemical_formula_structural   H2O
_chemical_formula_sum   'H144 O72'
_cell_volume   2323.69319830
_cell_formula_units_Z   72
loop_
 _symmetry_equiv_pos_site_id
 _symmetry_equiv_pos_as_xyz
  1  'x, y, z'
loop_
 _atom_type_symbol
 _atom_type_oxidation_number
  H+  1.0
  O2-  -2.0
loop_
 _atom_site_type_symbol
 _atom_site_label
 _atom_site_symmetry_multiplicity
 _atom_site_fract_x
 _atom_site_fract_y
 _atom_site_fract_z
 _atom_site_occupancy
  H+  H0  1  0.48000390  0.31120200  0.01675493  1
  H+  H1  1  0.67909305  0.18502828  0.74359882  1
  H+  H2  1  0.69122934  0.84566744  0.51189301  1
  H+  H3  1  0.91164627  0.12434955  0.74988946  1
  H+  H4  1  0.51136820  0.81318405  0.49872680  1
  H+  H5  1  0.76459933  0.22529219  0.65722611  1
  H+  H6  1  0.18751475  0.70369974  0.48740661  1
  H+  H7  1  0.96380803  0.80795673  0.76089945  1
  H+  H8  1  0.19990570  0.38902257  0.76748011  1
  H+  H9  1  0.36107502  0.52498789  0.74763876  1
  H+  H10  1  0.62658956  0.37562166  0.93005400  1
  H+  H11  1  0.84067626  0.81528434  0.49176282  1
  H+  H12  1  0.77188985  0.55662326  0.59699066  1
  H+  H13  1  0.18386980  0.49845516  0.77879811  1
  H+  H14  1  0.12231163  0.54182959  -0.03074314  1
  H+  H15  1  0.85842745  0.70908112  0.26041013  1
  H+  H16  1  0.80880497  0.63431898  0.50720340  1
  H+  H17  1  0.18794883  0.70883853  0.24116460  1
  H+  H18  1  0.04297614  0.86051985  0.24264051  1
  H+  H19  1  0.85357707  0.37472885  0.26621180  1
  H+  H20  1  0.50737059  0.65085341  0.23897887  1
  H+  H21  1  0.50183879  0.62418836  0.00912321  1
  H+  H22  1  0.42353053  0.82470954  0.77312298  1
  H+  H23  1  0.52136285  0.37769345  0.26523193  1
  H+  H24  1  0.30185920  0.13806584  0.76731125  1
  H+  H25  1  0.02868892  0.18424008  0.25084572  1
  H+  H26  1  0.29416737  0.48789302  0.48426549  1
  H+  H27  1  0.62887178  0.48545764  0.49237103  1
  H+  H28  1  0.17493457  0.48713870  0.25864885  1
  H+  H29  1  0.21460618  0.02655515  0.28168459  1
  H+  H30  1  0.38997195  0.50127546  0.01807803  1
  H+  H31  1  0.21380125  0.45215672  0.39378600  1
  H+  H32  1  0.17088501  0.02444645  1.00143557  1
  H+  H33  1  0.15936019  0.85401580  0.23271650  1
  H+  H34  1  0.02774897  0.52544131  0.23727366  1
  H+  H35  1  0.14707968  0.28354782  0.00138785  1
  H+  H36  1  0.17436131  0.36934152  0.26283266  1
  H+  H37  1  0.84228387  0.03316474  0.50328551  1
  H+  H38  1  0.80577637  0.14075702  0.76245390  1
  H+  H39  1  0.47713176  0.30503216  0.48683798  1
  H+  H40  1  0.46139778  0.90243627  0.00157236  1
  H+  H41  1  0.28516648  0.80991463  0.00860522  1
  H+  H42  1  0.16027985  0.71063560  -0.01209061  1
  H+  H43  1  0.14671415  0.51795845  0.50921412  1
  H+  H44  1  0.18850014  0.82026291  0.48678717  1
  H+  H45  1  0.38104316  0.18897035  0.26430739  1
  H+  H46  1  0.15307820  0.86607394  0.01526903  1
  H+  H47  1  0.12992571  0.95979439  0.51918217  1
  H+  H48  1  0.69223519  0.51701177  0.73602883  1
  H+  H49  1  0.16332144  0.64700705  0.74904045  1
  H+  H50  1  0.69817458  0.84721697  0.00732259  1
  H+  H51  1  0.15736782  0.15417358  0.50121862  1
  H+  H52  1  0.51026455  0.18063157  0.00226235  1
  H+  H53  1  0.27049760  0.14670990  0.51061058  1
  H+  H54  1  0.60879051  0.97312861  0.17829620  1
  H+  H55  1  0.52858469  -0.00148703  0.23751214  1
  H+  H56  1  0.18885168  0.14112751  0.76201279  1
  H+  H57  1  0.15276546  0.95042811  0.74662411  1
  H+  H58  1  -0.04242643  0.81130524  0.49359542  1
  H+  H59  1  0.78590806  -0.05057599  0.74759868  1
  H+  H60  1  0.50695079  0.52435226  0.24282386  1
  H+  H61  1  0.47714846  0.52092409  0.73979826  1
  H+  H62  1  0.54092978  0.12392482  0.85519243  1
  H+  H63  1  0.49439232  0.69510857  0.76039114  1
  H+  H64  1  0.81885618  0.65130289  0.01487555  1
  H+  H65  1  0.23967752  0.79116909  0.32525293  1
  H+  H66  1  0.85105731  0.16269381  -0.00577890  1
  H+  H67  1  0.70469005  0.19440870  0.25075991  1
  H+  H68  1  0.14606281  0.31978276  0.50011676  1
  H+  H69  1  0.48535529  0.02771252  0.77913221  1
  H+  H70  1  0.64746418  0.81480504  0.26510717  1
  H+  H71  1  0.82235076  0.52443624  0.24395719  1
  H+  H72  1  0.50587919  0.36748113  0.74978711  1
  H+  H73  1  0.83714603  0.49794825  -0.00694325  1
  H+  H74  1  0.82550315  0.85448115  0.24311386  1
  H+  H75  1  0.55280209  0.77288163  0.40922484  1
  H+  H76  1  0.70697686  0.20460776  0.01620036  1
  H+  H77  1  0.52671287  0.07464487  1.00552370  1
  H+  H78  1  0.03801954  0.53460518  0.75178874  1
  H+  H79  1  0.84721176  0.37402912  0.76421088  1
  H+  H80  1  0.84753583  0.15207169  0.27028521  1
  H+  H81  1  0.15119951  0.14964788  0.99285947  1
  H+  H82  1  0.16459406  0.84076095  0.74171128  1
  H+  H83  1  0.65131677  0.48283163  0.98536242  1
  H+  H84  1  0.84606202  0.03261235  0.26897875  1
  H+  H85  1  0.08792985  0.22049179  0.73064314  1
  H+  H86  1  -0.02881758  0.82918977  -0.00507767  1
  H+  H87  1  0.81699501  0.30810977  0.51757610  1
  H+  H88  1  0.60817116  0.81376820  0.76136210  1
  H+  H89  1  0.35635780  0.19675699  0.02269509  1
  H+  H90  1  0.15029869  0.26047232  0.63812225  1
  H+  H91  1  0.43319790  0.55192330  0.59685021  1
  H+  H92  1  0.79883171  0.83816602  0.74629726  1
  H+  H93  1  0.40429161  0.18915858  0.43398587  1
  H+  H94  1  0.50734037  0.78184728  0.99594690  1
  H+  H95  1  0.48949132  0.95879431  0.51884553  1
  H+  H96  1  0.47450656  0.17991278  0.73752544  1
  H+  H97  1  0.25708690  0.80255513  0.85968098  1
  H+  H98  1  0.47811044  0.63227059  0.50966127  1
  H+  H99  1  0.70500961  0.52701861  0.24493189  1
  H+  H100  1  0.81178515  0.63476279  0.74161486  1
  H+  H101  1  0.20933669  0.46024797  1.02169168  1
  H+  H102  1  0.84554067  0.49097210  0.75912414  1
  H+  H103  1  0.52470126  0.16238488  0.27123219  1
  H+  H104  1  0.81101748  -0.02864654  1.00996224  1
  H+  H105  1  1.01800206  0.16776139  0.99566931  1
  H+  H106  1  0.53411008  0.82081428  0.26137383  1
  H+  H107  1  0.84540370  0.48617684  0.49400266  1
  H+  H108  1  0.42708083  0.21132351  0.64907511  1
  H+  H109  1  0.44748712  0.23470267  0.16900064  1
  H+  H110  1  0.78415380  0.23280656  0.16132998  1
  H+  H111  1  0.78060304  0.89114406  0.15482642  1
  H+  H112  1  0.44990939  0.87369559  0.10659478  1
  H+  H113  1  0.37095226  0.84476101  0.51463839  1
  H+  H114  1  0.02583033  0.20018040  0.51570876  1
  H+  H115  1  0.87337213  0.45373541  0.90152332  1
  H+  H116  1  0.09887068  0.21514544  0.15977919  1
  H+  H117  1  0.00371794  0.52626898  -0.00113593  1
  H+  H118  1  0.47076858  0.56452486  0.14133373  1
  H+  H119  1  0.10073903  0.87316299  0.60124095  1
  H+  H120  1  0.22821354  0.09880278  0.37126387  1
  H+  H121  1  0.21412748  0.10296866  0.90482342  1
  H+  H122  1  0.54914688  0.76354421  0.89881454  1
  H+  H123  1  0.77933858  0.57021489  0.10469025  1
  H+  H124  1  0.09707315  0.55696137  0.14361699  1
  H+  H125  1  0.51846518  0.14760094  0.49448470  1
  H+  H126  1  0.96545858  0.48781282  0.49651133  1
  H+  H127  1  0.22873291  0.44128510  0.91518000  1
  H+  H128  1  0.82439171  0.31892739  0.01561760  1
  H+  H129  1  0.55445815  0.44326937  0.83884351  1
  H+  H130  1  0.55898504  0.45974219  0.35275518  1
  H+  H131  1  0.63938983  0.15364372  0.50059049  1
  H+  H132  1  0.50883353  0.48546810  0.49205522  1
  H+  H133  1  0.76654180  0.88044671  0.60182523  1
  H+  H134  1  0.87146681  0.11240647  0.90160524  1
  H+  H135  1  0.11503982  0.90477926  0.10798105  1
  H+  H136  1  0.89271823  0.78550034  0.35017532  1
  H+  H137  1  0.85212769  0.82772775  0.99167216  1
  H+  H138  1  0.81575014  0.18801223  0.52074074  1
  H+  H139  1  0.89209741  0.45474956  0.35405010  1
  H+  H140  1  0.88051187  0.11137654  0.41436321  1
  H+  H141  1  0.56200913  0.11513948  0.35862546  1
  H+  H142  1  0.88843787  0.77777395  0.85077003  1
  H+  H143  1  0.11245680  0.55925066  0.60019108  1
  O2-  O144  1  0.10723043  0.22774729  0.22547807  1
  O2-  O145  1  0.16511617  0.26118679  0.70640374  1
  O2-  O146  1  0.10622059  0.56255079  0.21024192  1
  O2-  O147  1  0.11845154  0.56598967  0.73083281  1
  O2-  O148  1  0.12128897  0.90034583  0.21578415  1
  O2-  O149  1  0.11394022  0.87087390  0.72380408  1
  O2-  O150  1  0.45898564  0.23931269  0.23585620  1
  O2-  O151  1  0.43140718  0.21836843  0.71560503  1
  O2-  O152  1  0.47184983  0.56952537  0.21303021  1
  O2-  O153  1  0.43724075  0.56167625  0.71761922  1
  O2-  O154  1  0.53014917  0.93585355  0.20055205  1
  O2-  O155  1  0.38696476  0.87341391  0.77191671  1
  O2-  O156  1  0.78569962  0.23157119  0.22894675  1
  O2-  O157  1  0.76110580  0.22287354  0.72609932  1
  O2-  O158  1  0.78420663  0.56663122  0.21987352  1
  O2-  O159  1  0.77403590  0.55496041  0.71697739  1
  O2-  O160  1  0.77961545  0.89074012  0.22273597  1
  O2-  O161  1  0.75193929  0.87086777  0.72308301  1
  O2-  O162  1  0.27022887  0.09376137  0.31789038  1
  O2-  O163  1  0.22173066  0.09879379  0.79221404  1
  O2-  O164  1  0.21358188  0.44899519  0.28666050  1
  O2-  O165  1  0.22615030  0.46043381  0.80333586  1
  O2-  O166  1  0.23108953  0.79098864  0.25852006  1
  O2-  O167  1  0.26419952  0.79616922  0.79176322  1
  O2-  O168  1  0.56497783  0.12051582  0.29012314  1
  O2-  O169  1  0.53492628  0.11125222  0.78820032  1
  O2-  O170  1  0.56193206  0.46056056  0.28399502  1
  O2-  O171  1  0.54754485  0.44783619  0.77173030  1
  O2-  O172  1  0.56442336  0.77211543  0.28435265  1
  O2-  O173  1  0.52967459  0.77357837  0.78792311  1
  O2-  O174  1  0.88506795  0.11071579  0.29582786  1
  O2-  O175  1  0.84205742  0.09477044  0.78579972  1
  O2-  O176  1  0.89133810  0.45626727  0.28578438  1
  O2-  O177  1  0.88746011  0.45411321  0.78667956  1
  O2-  O178  1  0.89755030  0.78994357  0.28195271  1
  O2-  O179  1  0.88373480  0.77376189  0.78278291  1
  O2-  O180  1  0.19095618  0.10385758  0.48880788  1
  O2-  O181  1  0.20790859  0.10760336  0.97360321  1
  O2-  O182  1  0.21295037  0.45059796  0.46386919  1
  O2-  O183  1  0.23418012  0.42004548  0.98064641  1
  O2-  O184  1  0.23140795  0.78335584  0.46436062  1
  O2-  O185  1  0.21519705  0.79264968  0.97342665  1
  O2-  O186  1  0.56039759  0.10885534  0.47437773  1
  O2-  O187  1  0.55774234  0.14848842  0.97567481  1
  O2-  O188  1  0.54925305  0.44587474  0.46660407  1
  O2-  O189  1  0.58856164  0.41706048  0.95024810  1
  O2-  O190  1  0.55265055  0.77127349  0.47659586  1
  O2-  O191  1  0.55915954  0.75932175  0.96698065  1
  O2-  O192  1  0.88100137  0.11457024  0.48256347  1
  O2-  O193  1  0.88539920  0.11773132  0.96879870  1
  O2-  O194  1  0.88509935  0.44474511  0.47268962  1
  O2-  O195  1  0.87361184  0.45323640  0.97014079  1
  O2-  O196  1  0.87827350  0.77289946  0.46759308  1
  O2-  O197  1  0.89197389  0.78651736  0.96988751  1
  O2-  O198  1  0.10023308  0.19986155  0.01782368  1
  O2-  O199  1  0.10920204  0.24202718  0.53105297  1
  O2-  O200  1  0.08882418  0.56899850  0.01456163  1
  O2-  O201  1  0.10609792  0.55797529  0.53312431  1
  O2-  O202  1  0.11341530  0.90742366  0.03792249  1
  O2-  O203  1  0.09655630  0.87723777  0.53390324  1
  O2-  O204  1  0.43554190  0.23447059  0.04612617  1
  O2-  O205  1  0.43243334  0.21921460  0.49517036  1
  O2-  O206  1  0.46794155  0.54941751  0.04207435  1
  O2-  O207  1  0.43584390  0.54984670  0.52903984  1
  O2-  O208  1  0.41984127  0.84023717  0.04455181  1
  O2-  O209  1  0.45030786  0.87827130  0.53860179  1
  O2-  O210  1  0.78696237  0.23790712  0.03728017  1
  O2-  O211  1  0.77551752  0.22875216  0.54346748  1
  O2-  O212  1  0.77703697  0.56996895  0.03613239  1
  O2-  O213  1  0.76842656  0.55304425  0.52907096  1
  O2-  O214  1  0.77726684  0.89189121  0.03293044  1
  O2-  O215  1  0.77262855  0.88740756  0.53426233  1
