# generated using pymatgen
data_H2O
_symmetry_space_group_name_H-M   'P 1'
_cell_length_a   13.51666468
_cell_length_b   13.51686017
_cell_length_c   14.69652126
_cell_angle_alpha   90.04387178
_cell_angle_beta   90.00433841
_cell_angle_gamma   119.99684872
_symmetry_Int_Tables_number   1
_chemical_formula_structural   H2O
_chemical_formula_sum   'H144 O72'
_cell_volume   2325.43466207
_cell_formula_units_Z   72
loop_
 _symmetry_equiv_pos_site_id
 _symmetry_equiv_pos_as_xyz
  1  'x, y, z'
loop_
 _atom_type_symbol
 _atom_type_oxidation_number
  H+  1.0
  O2-  -2.0
loop_
 _atom_site_type_symbol
 _atom_site_label
 _atom_site_symmetry_multiplicity
 _atom_site_fract_x
 _atom_site_fract_y
 _atom_site_fract_z
 _atom_site_occupancy
  H+  H0  1  0.87571753  0.11150346  0.88475415  1
  H+  H1  1  0.69571816  0.85228870  0.74604883  1
  H+  H2  1  0.85393515  0.15728151  0.48123585  1
  H+  H3  1  0.48304299  0.85560501  0.99933705  1
  H+  H4  1  0.48072236  0.97185639  -0.00659980  1
  H+  H5  1  0.53468908  0.33094585  0.77131482  1
  H+  H6  1  0.15127179  0.30190180  0.24721109  1
  H+  H7  1  0.69384499  0.50638927  0.24446913  1
  H+  H8  1  0.52739741  1.02905221  0.75562929  1
  H+  H9  1  0.81658418  0.64143365  0.02491598  1
  H+  H10  1  0.15692766  0.17550161  0.74896410  1
  H+  H11  1  -0.02346027  0.14905021  0.75085892  1
  H+  H12  1  0.17614791  0.03027215  0.48808645  1
  H+  H13  1  0.51614340  0.15314691  0.97449391  1
  H+  H14  1  0.63471895  0.48256004  1.01148701  1
  H+  H15  1  1.02744618  0.50941760  0.74515129  1
  H+  H16  1  0.71022815  0.18737906  0.22926998  1
  H+  H17  1  0.29459014  0.47894580  0.75585334  1
  H+  H18  1  0.84235266  0.67767623  0.74103844  1
  H+  H19  1  0.16037783  0.28925075  0.01381290  1
  H+  H20  1  0.29951720  0.47830134  0.01241049  1
  H+  H21  1  0.48548760  0.19314740  0.48896648  1
  H+  H22  1  0.69643331  0.52988642  0.50505617  1
  H+  H23  1  0.03589267  0.18037113  0.24154687  1
  H+  H24  1  0.84586801  0.46887652  0.75894576  1
  H+  H25  1  0.48748409  0.17927217  0.22645273  1
  H+  H26  1  0.52061177  0.63301094  0.06870614  1
  H+  H27  1  0.82120694  0.83745314  0.01221133  1
  H+  H28  1  0.65398853  0.81787365  0.25843587  1
  H+  H29  1  0.01169659  0.83658604  0.04194123  1
  H+  H30  1  0.20034170  0.38060747  0.50147668  1
  H+  H31  1  0.53225891  0.71241140  0.95808843  1
  H+  H32  1  0.67045049  0.14916768  0.75327871  1
  H+  H33  1  0.51372847  0.36310719  0.99730559  1
  H+  H34  1  0.17503378  0.14764068  0.48692457  1
  H+  H35  1  0.85377001  1.02975271  0.75298970  1
  H+  H36  1  0.77290256  0.89069829  0.08694193  1
  H+  H37  1  0.17078537  0.02332859  0.76623064  1
  H+  H38  1  0.49161379  0.50458692  0.26300859  1
  H+  H39  1  0.18460891  0.14374760  1.00017405  1
  H+  H40  1  0.04985951  0.26907164  0.55686045  1
  H+  H41  1  0.52551151  1.04237118  0.24810895  1
  H+  H42  1  0.36212353  0.17382533  -0.00031165  1
  H+  H43  1  0.80516347  0.85262641  0.50275660  1
  H+  H44  1  0.82675000  0.30459031  0.23724985  1
  H+  H45  1  0.47952987  0.84819049  0.75254123  1
  H+  H46  1  0.44979334  0.85223407  0.22704214  1
  H+  H47  1  0.18007591  0.02271467  1.00447419  1
  H+  H48  1  0.02220061  0.50440337  0.50699490  1
  H+  H49  1  0.49303274  0.50862015  0.03958789  1
  H+  H50  1  0.66304093  0.56244953  0.80038457  1
  H+  H51  1  0.88234465  0.78253084  0.39887102  1
  H+  H52  1  0.81235769  0.65185611  0.51134539  1
  H+  H53  1  0.95977423  0.13378193  0.48211383  1
  H+  H54  1  0.13205573  0.83805292  0.02480813  1
  H+  H55  1  0.49448068  0.34716955  0.74897217  1
  H+  H56  1  0.18211030  0.48948050  0.49819468  1
  H+  H57  1  0.88864517  0.44163964  0.36856175  1
  H+  H58  1  0.52968739  0.68438164  0.27247325  1
  H+  H59  1  0.29026297  0.81728046  0.77274899  1
  H+  H60  1  0.83565185  0.69051506  0.26023203  1
  H+  H61  1  0.19581573  0.15564880  0.25602854  1
  H+  H62  1  0.52492846  0.84133175  0.47126352  1
  H+  H63  1  0.84191183  0.48445596  -0.00670101  1
  H+  H64  1  0.50677027  0.70946446  0.75802883  1
  H+  H65  1  0.84268853  0.32264726  0.50121312  1
  H+  H66  1  0.17497990  0.68689409  0.48501247  1
  H+  H67  1  0.80816763  0.17964486  0.99319918  1
  H+  H68  1  0.14633073  0.84874108  0.50207011  1
  H+  H69  1  0.51057745  0.36498700  0.48271405  1
  H+  H70  1  0.35691464  0.85632645  0.48560360  1
  H+  H71  1  0.96199958  0.49134959  0.27631854  1
  H+  H72  1  0.82855996  0.17426374  0.73579524  1
  H+  H73  1  0.76734818  0.55088299  0.63774900  1
  H+  H74  1  0.84109439  0.36447328  0.98925263  1
  H+  H75  1  0.83683687  0.03059306  0.97196199  1
  H+  H76  1  0.80794871  0.84160816  0.73217493  1
  H+  H77  1  0.21479999  0.09714899  0.85860824  1
  H+  H78  1  0.65321344  0.82693702  0.98221680  1
  H+  H79  1  0.95656640  0.80416925  0.26120632  1
  H+  H80  1  0.16530512  0.55108790  0.23547469  1
  H+  H81  1  0.02987472  0.84359041  0.72377990  1
  H+  H82  1  0.64460270  0.83651018  0.48236360  1
  H+  H83  1  0.81028286  0.96533407  0.23852429  1
  H+  H84  1  0.77944073  0.22310927  0.08695541  1
  H+  H85  1  0.49773879  0.55884785  0.75995834  1
  H+  H86  1  0.17172477  0.69598260  0.98814601  1
  H+  H87  1  0.48772204  0.65610082  0.51448833  1
  H+  H88  1  0.51048627  0.34720992  0.24709524  1
  H+  H89  1  0.34093110  0.11034890  0.72067974  1
  H+  H90  1  0.28815368  0.81728359  0.98901595  1
  H+  H91  1  0.85206739  0.14898766  0.24769602  1
  H+  H92  1  0.36557108  0.17647554  0.23202756  1
  H+  H93  1  0.96508279  0.82604739  0.48583426  1
  H+  H94  1  0.63670341  0.15441210  0.98198359  1
  H+  H95  1  0.57473696  0.11206213  0.84948327  1
  H+  H96  1  0.68677379  0.46222606  0.71208326  1
  H+  H97  1  0.15589844  0.29683008  0.74263650  1
  H+  H98  1  0.02734672  0.51575735  -0.00028072  1
  H+  H99  1  0.14733209  0.65930425  0.22423659  1
  H+  H100  1  0.81231070  0.84595634  0.23723955  1
  H+  H101  1  0.44370629  0.21343630  0.08648688  1
  H+  H102  1  0.80443657  0.96994714  0.50222375  1
  H+  H103  1  0.54153099  0.06053167  0.46385342  1
  H+  H104  1  0.86144252  0.47444780  0.49903317  1
  H+  H105  1  0.66071834  0.17663026  0.47619645  1
  H+  H106  1  0.30378091  0.48184944  0.27333306  1
  H+  H107  1  0.10913208  0.55970447  0.08619957  1
  H+  H108  1  0.11023078  0.22072847  0.61829872  1
  H+  H109  1  0.77688804  0.55113984  0.10704391  1
  H+  H110  1  0.41053113  0.15359648  0.63064018  1
  H+  H111  1  0.79126728  0.22630702  0.58595174  1
  H+  H112  1  0.23497523  0.11663168  0.34317055  1
  H+  H113  1  0.45202325  0.57457591  0.66090418  1
  H+  H114  1  0.20254474  0.77711782  0.85491480  1
  H+  H115  1  0.36197946  0.18438232  0.49438719  1
  H+  H116  1  0.57717581  0.13000110  0.33341234  1
  H+  H117  1  0.10647497  0.55402178  0.59652970  1
  H+  H118  1  0.51177603  0.48419051  0.47983607  1
  H+  H119  1  0.43884153  0.94844705  0.55704378  1
  H+  H120  1  0.11357812  0.89214186  0.59195493  1
  H+  H121  1  0.90963398  0.77885693  0.94346551  1
  H+  H122  1  0.14989869  0.85031690  0.73452703  1
  H+  H123  1  0.14192479  0.63076096  0.74584777  1
  H+  H124  1  0.54995897  0.42224806  0.34100120  1
  H+  H125  1  0.81521870  0.51373093  0.25555230  1
  H+  H126  1  0.19822534  0.76527009  0.39618688  1
  H+  H127  1  0.43330070  0.90308155  0.13557716  1
  H+  H128  1  0.41424871  0.86900181  0.67219854  1
  H+  H129  1  0.88178700  0.43720269  0.85376559  1
  H+  H130  1  0.17489929  0.47338302  0.74902453  1
  H+  H131  1  0.56212020  0.79920759  0.84208124  1
  H+  H132  1  0.12507873  0.21449698  0.10340212  1
  H+  H133  1  0.56795590  0.78452039  0.35827358  1
  H+  H134  1  0.87882106  0.76535287  0.82095228  1
  H+  H135  1  0.37049599  0.53848909  0.51813610  1
  H+  H136  1  0.21763113  0.44775558  0.35423848  1
  H+  H137  1  0.82027174  0.29071998  0.74460582  1
  H+  H138  1  0.88463690  0.10553862  0.33830281  1
  H+  H139  1  0.44745691  0.54719763  0.18161101  1
  H+  H140  1  0.57917120  0.51389629  0.88483765  1
  H+  H141  1  0.25871446  0.86837279  0.24006298  1
  H+  H142  1  0.11026052  0.86207759  0.16144297  1
  H+  H143  1  0.18397733  0.47310837  0.98908688  1
  O2-  O144  1  0.11815816  0.22197884  0.22489834  1
  O2-  O145  1  0.11576526  0.21353942  0.72169672  1
  O2-  O146  1  0.11619260  0.57814551  0.20813436  1
  O2-  O147  1  0.10580756  0.55261489  0.71915091  1
  O2-  O148  1  0.10766713  0.85534609  0.23244129  1
  O2-  O149  1  0.11146494  0.89011825  0.70682405  1
  O2-  O150  1  0.44525159  0.21712118  0.20342108  1
  O2-  O151  1  0.38803480  0.09495346  0.67815418  1
  O2-  O152  1  0.45613196  0.55394534  0.24949853  1
  O2-  O153  1  0.44366232  0.57754900  0.72816154  1
  O2-  O154  1  0.42777864  0.90604609  0.20369862  1
  O2-  O155  1  0.43513799  0.88966116  0.73563010  1
  O2-  O156  1  0.79195098  0.22753931  0.20866936  1
  O2-  O157  1  0.78072662  0.21164634  0.71819695  1
  O2-  O158  1  0.77633407  0.55326612  0.22746488  1
  O2-  O159  1  0.76080928  0.53217124  0.70695492  1
  O2-  O160  1  0.76595181  0.88228702  0.21884575  1
  O2-  O161  1  0.78002574  0.89511811  0.74231874  1
  O2-  O162  1  0.24166198  0.12061555  0.27619125  1
  O2-  O163  1  0.21518543  0.10246961  0.79041558  1
  O2-  O164  1  0.22115686  0.44862890  0.28650305  1
  O2-  O165  1  0.21161287  0.42772679  0.76371905  1
  O2-  O166  1  0.18130400  0.80809746  0.25818330  1
  O2-  O167  1  0.20721429  0.77550570  0.78657489  1
  O2-  O168  1  0.57322693  0.12425226  0.26530816  1
  O2-  O169  1  0.58402209  0.10726789  0.78000950  1
  O2-  O170  1  0.55194901  0.42752964  0.27317505  1
  O2-  O171  1  0.60078386  0.56583316  0.83108121  1
  O2-  O172  1  0.56926630  0.77105595  0.28616319  1
  O2-  O173  1  0.55111987  0.79395729  0.77465081  1
  O2-  O174  1  0.88551883  0.10186598  0.27042330  1
  O2-  O175  1  0.89362319  0.11442086  0.76717428  1
  O2-  O176  1  0.88287975  0.44490826  0.29798246  1
  O2-  O177  1  0.88435165  0.42985280  0.78538013  1
  O2-  O178  1  0.87574019  0.77346403  0.27935160  1
  O2-  O179  1  0.88440784  0.76030455  0.75512575  1
  O2-  O180  1  0.21800155  0.11143601  0.46587001  1
  O2-  O181  1  0.22206709  0.09876609  0.97516376  1
  O2-  O182  1  0.23225852  0.45824503  0.47597387  1
  O2-  O183  1  0.22622921  0.43161183  0.98179570  1
  O2-  O184  1  0.21525646  0.76839691  0.46144364  1
  O2-  O185  1  0.20684076  0.77876282  0.96979174  1
  O2-  O186  1  0.58146294  0.14234810  0.44883749  1
  O2-  O187  1  0.55809987  0.11305872  0.95297220  1
  O2-  O188  1  0.55259904  0.44527645  0.45758909  1
  O2-  O189  1  0.55317645  0.44827839  0.98958608  1
  O2-  O190  1  0.56165560  0.79651643  0.45368039  1
  O2-  O191  1  0.57039382  0.79555584  0.95790087  1
  O2-  O192  1  0.88276126  0.10569764  0.45673399  1
  O2-  O193  1  0.85903670  0.10816703  0.95089622  1
  O2-  O194  1  0.90102816  0.43648855  0.47394574  1
  O2-  O195  1  0.88215434  0.44562406  0.96689533  1
  O2-  O196  1  0.88313983  0.78678858  0.46679903  1
  O2-  O197  1  0.88532856  0.77351428  1.00617962  1
  O2-  O198  1  0.12704701  0.20936069  0.03630386  1
  O2-  O199  1  0.09720719  0.23365712  0.55054115  1
  O2-  O200  1  0.10935115  0.55826059  0.01852946  1
  O2-  O201  1  0.10830031  0.55222013  0.52877797  1
  O2-  O202  1  0.09792445  0.87738725  0.05893358  1
  O2-  O203  1  0.10874446  0.89149457  0.52356016  1
  O2-  O204  1  0.44542199  0.21708760  0.01822224  1
  O2-  O205  1  0.44310141  0.22869457  0.51534302  1
  O2-  O206  1  0.45867588  0.55405716  0.06759777  1
  O2-  O207  1  0.45157706  0.57772820  0.53980080  1
  O2-  O208  1  0.43954961  0.89299549  0.01954623  1
  O2-  O209  1  0.43961203  0.90727776  0.50276795  1
  O2-  O210  1  0.77080546  0.22332270  0.01960779  1
  O2-  O211  1  0.79547026  0.23091696  0.51895176  1
  O2-  O212  1  0.77375322  0.55453776  0.03932894  1
  O2-  O213  1  0.77253725  0.57150124  0.53504128  1
  O2-  O214  1  0.77513543  0.88125555  0.02059609  1
  O2-  O215  1  0.75928472  0.88843313  0.52115511  1
