# generated using pymatgen
data_H2O
_symmetry_space_group_name_H-M   'P 1'
_cell_length_a   13.50974904
_cell_length_b   13.51920126
_cell_length_c   14.67392610
_cell_angle_alpha   89.97351674
_cell_angle_beta   90.11301592
_cell_angle_gamma   120.00478545
_symmetry_Int_Tables_number   1
_chemical_formula_structural   H2O
_chemical_formula_sum   'H144 O72'
_cell_volume   2320.88384439
_cell_formula_units_Z   72
loop_
 _symmetry_equiv_pos_site_id
 _symmetry_equiv_pos_as_xyz
  1  'x, y, z'
loop_
 _atom_type_symbol
 _atom_type_oxidation_number
  H+  1.0
  O2-  -2.0
loop_
 _atom_site_type_symbol
 _atom_site_label
 _atom_site_symmetry_multiplicity
 _atom_site_fract_x
 _atom_site_fract_y
 _atom_site_fract_z
 _atom_site_occupancy
  H+  H0  1  0.50196295  0.35106089  0.29616861  1
  H+  H1  1  0.09371229  0.89975549  0.59535924  1
  H+  H2  1  0.46764534  0.49914728  0.51247085  1
  H+  H3  1  0.85160706  0.37487964  -0.01317670  1
  H+  H4  1  0.50190435  0.51276885  0.73786153  1
  H+  H5  1  0.15069332  0.55372495  0.47548352  1
  H+  H6  1  0.92624388  0.30351273  0.55564751  1
  H+  H7  1  0.91280509  0.79132137  1.03989584  1
  H+  H8  1  0.21862185  0.45080443  0.40329507  1
  H+  H9  1  0.87890608  0.13462389  0.48585397  1
  H+  H10  1  0.14532988  0.45812519  -0.00797591  1
  H+  H11  1  0.86854897  0.16494935  0.78022319  1
  H+  H12  1  0.51042139  -0.00273994  0.50857556  1
  H+  H13  1  1.04705076  0.84413129  0.24032347  1
  H+  H14  1  0.69276686  0.56134270  0.23633432  1
  H+  H15  1  0.49076116  0.18816910  0.73793802  1
  H+  H16  1  0.38569141  0.86442191  0.73821772  1
  H+  H17  1  0.84381506  0.39759664  0.22774711  1
  H+  H18  1  0.65302883  0.50825462  1.00816609  1
  H+  H19  1  0.16052971  -0.02857158  1.00343311  1
  H+  H20  1  0.49950874  0.78812059  0.48754404  1
  H+  H21  1  0.52737612  0.55075026  0.26201595  1
  H+  H22  1  0.82697196  -0.03955680  0.51323427  1
  H+  H23  1  0.88251137  0.84220113  0.24312695  1
  H+  H24  1  0.70067000  0.85375918  0.52331526  1
  H+  H25  1  0.48883613  0.34401599  0.97665567  1
  H+  H26  1  0.25856797  0.50618469  0.76042442  1
  H+  H27  1  0.13682768  0.50569049  0.24617790  1
  H+  H28  1  0.87254349  0.71674147  0.24499899  1
  H+  H29  1  0.02991360  0.16889231  0.22651973  1
  H+  H30  1  0.04647008  0.18912680  0.50136936  1
  H+  H31  1  0.17407122  0.14134703  0.23944539  1
  H+  H32  1  0.45269067  0.55647376  0.64754255  1
  H+  H33  1  0.30526167  0.81739110  0.28513427  1
  H+  H34  1  0.54655021  0.65962838  -0.00600898  1
  H+  H35  1  0.13788973  -0.01243399  0.50682958  1
  H+  H36  1  0.07773390  0.66851068  0.80651542  1
  H+  H37  1  0.84057283  0.31336329  0.76029917  1
  H+  H38  1  0.82532230  0.82610228  1.00597248  1
  H+  H39  1  0.09989402  0.28651342  0.98229335  1
  H+  H40  1  0.87810519  0.48478629  0.75167261  1
  H+  H41  1  0.17422961  0.63038724  1.01424057  1
  H+  H42  1  0.75206925  0.85761890  0.24076656  1
  H+  H43  1  0.84299081  0.00035038  0.74748387  1
  H+  H44  1  0.43610853  0.15219851  0.51683517  1
  H+  H45  1  0.58329481  0.78924306  0.24994434  1
  H+  H46  1  0.55921927  0.35283810  0.29255066  1
  H+  H47  1  0.49537943  0.63978479  0.74681208  1
  H+  H48  1  0.05726787  0.48727163  0.74478063  1
  H+  H49  1  0.83569150  0.54469077  0.49033919  1
  H+  H50  1  0.65254694  0.16486632  0.76071248  1
  H+  H51  1  0.46252924  -0.04513492  0.23144407  1
  H+  H52  1  0.58613861  0.54716232  0.35504198  1
  H+  H53  1  0.21488094  0.11993483  0.39215153  1
  H+  H54  1  0.65836102  0.86007675  1.00471325  1
  H+  H55  1  0.86591844  0.71315894  0.47786644  1
  H+  H56  1  0.04957652  0.19358328  0.73179076  1
  H+  H57  1  0.79864616  0.23466245  0.28284854  1
  H+  H58  1  0.36414767  0.84014917  1.00060014  1
  H+  H59  1  0.47274623  0.17848837  -0.01748012  1
  H+  H60  1  0.72016681  0.50754572  0.73137447  1
  H+  H61  1  0.64414503  0.24952299  0.49246909  1
  H+  H62  1  0.85600153  0.12583862  0.24532579  1
  H+  H63  1  0.52907920  0.04759002  0.98467737  1
  H+  H64  1  0.40616644  0.54703033  0.14860484  1
  H+  H65  1  0.33674630  0.17936787  0.50582674  1
  H+  H66  1  0.81861660  0.47196064  0.98025401  1
  H+  H67  1  0.15917792  0.67662053  0.45285403  1
  H+  H68  1  0.17202000  0.66721971  0.75196969  1
  H+  H69  1  0.18129320  0.38600077  0.49629243  1
  H+  H70  1  0.46053783  1.00842529  0.51050575  1
  H+  H71  1  0.12382126  0.83164529  0.72959725  1
  H+  H72  1  0.42975084  0.87476307  0.10543629  1
  H+  H73  1  0.79523762  0.23248368  0.52270622  1
  H+  H74  1  0.51376642  0.80292897  0.76082492  1
  H+  H75  1  0.30006625  0.13996121  0.76026375  1
  H+  H76  1  0.33173488  0.14752086  0.21469191  1
  H+  H77  1  0.72526354  0.18784173  0.00212333  1
  H+  H78  1  0.53645437  1.04542095  0.74934323  1
  H+  H79  1  0.84484463  0.99150820  0.02102475  1
  H+  H80  1  0.99410690  0.53648418  0.44841633  1
  H+  H81  1  1.03983401  0.53762507  0.23035580  1
  H+  H82  1  0.48844922  0.12679740  0.22404609  1
  H+  H83  1  0.00201818  0.84746780  0.48851608  1
  H+  H84  1  0.21131321  0.82784221  0.98426938  1
  H+  H85  1  0.35604639  0.51351171  0.51285186  1
  H+  H86  1  0.15805941  0.17930227  0.72566279  1
  H+  H87  1  0.96083269  0.82997345  0.76802912  1
  H+  H88  1  0.87160267  0.01462106  0.24674045  1
  H+  H89  1  0.83341913  0.87014649  0.75204440  1
  H+  H90  1  0.27492275  0.15010515  0.97706899  1
  H+  H91  1  0.79926674  0.52717156  0.22036546  1
  H+  H92  1  0.43578603  0.62557723  0.23596019  1
  H+  H93  1  0.14391704  -0.04074294  0.73614374  1
  H+  H94  1  0.50049187  0.85335261  0.01589230  1
  H+  H95  1  0.18107727  0.17108374  0.48039642  1
  H+  H96  1  0.45515903  0.83223252  0.24094708  1
  H+  H97  1  0.27202787  0.46420711  0.25979963  1
  H+  H98  1  0.06703566  0.84241956  -0.00604303  1
  H+  H99  1  0.12325066  0.23346479  0.59347986  1
  H+  H100  1  0.51606225  0.36470151  0.74861025  1
  H+  H101  1  0.15925565  0.34485750  0.25909409  1
  H+  H102  1  0.32601517  0.71001335  0.55574527  1
  H+  H103  1  0.18635180  0.82164146  0.28765785  1
  H+  H104  1  0.51083798  0.34977242  0.50063110  1
  H+  H105  1  0.17555991  0.02230099  0.25409513  1
  H+  H106  1  0.54811425  0.76620183  0.85374909  1
  H+  H107  1  0.71476644  0.53459842  0.50728617  1
  H+  H108  1  0.90572263  0.09374223  0.39051548  1
  H+  H109  1  0.81032906  0.22712066  0.67699270  1
  H+  H110  1  0.52950824  0.76264855  0.35032044  1
  H+  H111  1  0.56783914  0.12098106  0.89351594  1
  H+  H112  1  0.77249499  0.63452706  0.00896005  1
  H+  H113  1  0.79962795  0.90802638  0.11120141  1
  H+  H114  1  0.13011908  0.55758314  0.10610955  1
  H+  H115  1  0.20776274  0.09810476  0.84099806  1
  H+  H116  1  0.79098424  0.91093046  0.65192304  1
  H+  H117  1  0.90650033  0.17888990  0.99968016  1
  H+  H118  1  0.41809228  0.20107700  0.07000317  1
  H+  H119  1  0.90615611  0.45347487  0.84990126  1
  H+  H120  1  0.43370615  0.21802363  0.65392919  1
  H+  H121  1  0.87603871  0.41327865  0.45165102  1
  H+  H122  1  0.92566427  0.12513821  0.85809687  1
  H+  H123  1  0.14776014  0.13497439  0.97789068  1
  H+  H124  1  0.57786225  0.39973530  0.41175568  1
  H+  H125  1  0.45298400  0.25772459  0.20816308  1
  H+  H126  1  0.61840361  0.12557033  0.47718514  1
  H+  H127  1  0.53334843  0.10518414  0.31722839  1
  H+  H128  1  0.15650032  0.42149785  0.89110520  1
  H+  H129  1  0.33556699  0.80294368  0.48714404  1
  H+  H130  1  0.09748570  0.21376071  0.13353413  1
  H+  H131  1  0.68510097  0.17271206  0.22641920  1
  H+  H132  1  0.55609939  0.44342863  0.83692371  1
  H+  H133  1  0.88387785  0.47738571  0.31804855  1
  H+  H134  1  0.43936402  0.86629594  0.64429916  1
  H+  H135  1  0.52303547  0.68739255  0.48345297  1
  H+  H136  1  0.91586422  0.79018857  0.38322739  1
  H+  H137  1  0.88612295  0.80166862  0.85982563  1
  H+  H138  1  0.80042962  0.55488576  0.64509845  1
  H+  H139  1  0.74212943  0.55924675  0.11917458  1
  H+  H140  1  0.13748071  0.87805121  0.15827188  1
  H+  H141  1  0.23172576  0.76846400  0.89668798  1
  H+  H142  1  0.46968268  0.45027012  0.96902637  1
  H+  H143  1  0.79879802  0.22802366  0.09226451  1
  O2-  O144  1  0.10940962  0.21267043  0.20027222  1
  O2-  O145  1  0.12509475  0.22540933  0.70212615  1
  O2-  O146  1  0.12008266  0.56244672  0.21770149  1
  O2-  O147  1  0.13629988  0.52583551  0.71747750  1
  O2-  O148  1  0.13226212  0.88200798  0.22527188  1
  O2-  O149  1  0.09249029  0.88067305  0.71052991  1
  O2-  O150  1  0.41043678  0.17961967  0.18391532  1
  O2-  O151  1  0.44479607  0.22502417  0.72120280  1
  O2-  O152  1  0.40946466  0.54564316  0.21502069  1
  O2-  O153  1  0.46043684  0.55716064  0.71698699  1
  O2-  O154  1  0.41582155  0.87212427  0.21365011  1
  O2-  O155  1  0.45952607  0.88950909  0.70926294  1
  O2-  O156  1  0.77010616  0.21887081  0.22022787  1
  O2-  O157  1  0.79551419  0.22929032  0.74283213  1
  O2-  O158  1  0.76023999  0.57125653  0.19696142  1
  O2-  O159  1  0.79881621  0.53609724  0.71032403  1
  O2-  O160  1  0.82413318  0.89869430  0.20837150  1
  O2-  O161  1  0.79885918  0.91795146  0.72347553  1
  O2-  O162  1  0.21671402  0.10585034  0.26849988  1
  O2-  O163  1  0.21678867  0.09566295  0.77371772  1
  O2-  O164  1  0.19487841  0.42215035  0.28761913  1
  O2-  O165  1  0.20717304  0.52469642  0.79382492  1
  O2-  O166  1  0.22699095  0.78129123  0.31506878  1
  O2-  O167  1  0.15638813  0.72130252  0.78721766  1
  O2-  O168  1  0.53705275  0.09640741  0.25139404  1
  O2-  O169  1  0.56851781  0.12274223  0.77595618  1
  O2-  O170  1  0.60236708  0.57331637  0.29202078  1
  O2-  O171  1  0.55853673  0.44702925  0.76922276  1
  O2-  O172  1  0.51086692  0.75831416  0.28228253  1
  O2-  O173  1  0.54053175  0.75276673  0.78745652  1
  O2-  O174  1  0.90296744  0.09757971  0.27337483  1
  O2-  O175  1  0.91065274  0.12233476  0.79132424  1
  O2-  O176  1  0.87503381  0.47661911  0.24919882  1
  O2-  O177  1  0.92064373  0.45042134  0.78271177  1
  O2-  O178  1  0.91923863  0.79385843  0.27050772  1
  O2-  O179  1  0.88348585  0.80602263  0.79304673  1
  O2-  O180  1  0.21466771  0.12190278  0.46008030  1
  O2-  O181  1  0.19365041  0.09851227  0.95981448  1
  O2-  O182  1  0.22553142  0.46513514  0.47065324  1
  O2-  O183  1  0.15581702  0.39941277  0.95518488  1
  O2-  O184  1  0.24153799  0.80596583  0.41564346  1
  O2-  O185  1  0.25142834  0.78680463  0.96241062  1
  O2-  O186  1  0.67314448  0.20550195  0.46096359  1
  O2-  O187  1  0.56744981  0.12641918  0.96186583  1
  O2-  O188  1  0.56405689  0.42466460  0.47084587  1
  O2-  O189  1  0.52725700  0.42823469  0.95778039  1
  O2-  O190  1  0.55386598  0.76644642  0.46019349  1
  O2-  O191  1  0.57428749  0.81257163  0.98260365  1
  O2-  O192  1  0.91204783  0.09090254  0.45848030  1
  O2-  O193  1  0.94315025  0.13407250  0.97816286  1
  O2-  O194  1  0.90532500  0.49052711  0.42857768  1
  O2-  O195  1  0.87229131  0.44894774  0.95820675  1
  O2-  O196  1  0.91256424  0.79258014  0.45200628  1
  O2-  O197  1  0.85656502  0.77260569  0.99137674  1
  O2-  O198  1  0.06399620  0.19911365  0.01060896  1
  O2-  O199  1  0.12539154  0.24200893  0.52415945  1
  O2-  O200  1  0.12982871  0.55253152  0.03784316  1
  O2-  O201  1  0.10979454  0.59705472  0.48009668  1
  O2-  O202  1  0.13864521  0.89210831  0.02570604  1
  O2-  O203  1  0.09545883  0.90588375  0.52710485  1
  O2-  O204  1  0.42449228  0.21173238  0.00224430  1
  O2-  O205  1  0.41670179  0.21030143  0.53392921  1
  O2-  O206  1  0.53292566  0.70600644  0.03824589  1
  O2-  O207  1  0.43766497  0.54666645  0.53703131  1
  O2-  O208  1  0.44398745  0.88371481  0.03618476  1
  O2-  O209  1  0.38032292  0.78756840  0.53581757  1
  O2-  O210  1  0.80477687  0.22707689  0.02558740  1
  O2-  O211  1  0.85570648  0.22989964  0.55996141  1
  O2-  O212  1  0.73317213  0.55336812  0.03336985  1
  O2-  O213  1  0.79685893  0.58188340  0.52188657  1
  O2-  O214  1  0.78718407  0.91311538  0.04070214  1
  O2-  O215  1  0.77687301  0.89335607  0.55214922  1
