# generated using pymatgen
data_H2O
_symmetry_space_group_name_H-M   'P 1'
_cell_length_a   13.52876842
_cell_length_b   13.54732654
_cell_length_c   14.72971898
_cell_angle_alpha   89.96879323
_cell_angle_beta   89.99386222
_cell_angle_gamma   119.93582045
_symmetry_Int_Tables_number   1
_chemical_formula_structural   H2O
_chemical_formula_sum   'H144 O72'
_cell_volume   2339.46930252
_cell_formula_units_Z   72
loop_
 _symmetry_equiv_pos_site_id
 _symmetry_equiv_pos_as_xyz
  1  'x, y, z'
loop_
 _atom_type_symbol
 _atom_type_oxidation_number
  H+  1.0
  O2-  -2.0
loop_
 _atom_site_type_symbol
 _atom_site_label
 _atom_site_symmetry_multiplicity
 _atom_site_fract_x
 _atom_site_fract_y
 _atom_site_fract_z
 _atom_site_occupancy
  H+  H0  1  0.48409296  0.95970292  0.23810416  1
  H+  H1  1  0.16981159  0.47894107  0.26971026  1
  H+  H2  1  0.85524319  0.36272888  0.98611289  1
  H+  H3  1  0.18283124  0.82540748  1.03047478  1
  H+  H4  1  0.63527046  0.14313499  0.24820196  1
  H+  H5  1  1.00171583  0.82093415  0.24663986  1
  H+  H6  1  0.93009501  0.62462697  0.06722494  1
  H+  H7  1  0.84496814  0.44795322  0.75367766  1
  H+  H8  1  0.20441092  0.05033357  0.49424425  1
  H+  H9  1  0.42555761  0.20431068  0.33968233  1
  H+  H10  1  0.62079447  0.45395278  0.76328275  1
  H+  H11  1  0.53056107  0.05894148  1.01065155  1
  H+  H12  1  0.83103552  0.88038962  0.73807725  1
  H+  H13  1  0.48480661  0.17827596  0.74153166  1
  H+  H14  1  0.17080056  0.81190200  0.72738744  1
  H+  H15  1  0.44918319  0.90225792  0.57818193  1
  H+  H16  1  0.86390259  0.48637421  -0.01819764  1
  H+  H17  1  0.56580794  0.45233310  0.39656741  1
  H+  H18  1  0.05396628  0.88970354  0.51170839  1
  H+  H19  1  0.48403851  0.61952950  1.01724763  1
  H+  H20  1  0.83506761  1.03524068  0.48302684  1
  H+  H21  1  0.91458198  0.76236257  0.43859362  1
  H+  H22  1  0.53978500  0.87330655  0.45844246  1
  H+  H23  1  0.94315263  0.86995919  0.38399183  1
  H+  H24  1  0.50616428  0.48186316  0.25762025  1
  H+  H25  1  0.30420232  0.83107408  0.47873199  1
  H+  H26  1  0.18817724  0.02140432  1.03382828  1
  H+  H27  1  0.79737830  0.56849387  0.73133134  1
  H+  H28  1  0.39825337  0.59062967  0.53476412  1
  H+  H29  1  0.82018773  0.19006356  0.00820312  1
  H+  H30  1  0.80819005  0.85793522  0.50285725  1
  H+  H31  1  0.64365242  0.47833389  0.48837944  1
  H+  H32  1  0.02675992  0.17833936  0.24908490  1
  H+  H33  1  0.19624875  0.36788368  -0.00661685  1
  H+  H34  1  0.18688003  0.82914377  0.48565658  1
  H+  H35  1  0.81073099  0.29150869  0.24419007  1
  H+  H36  1  0.83226882  0.46946376  0.26342581  1
  H+  H37  1  0.68788184  0.50534556  0.22870427  1
  H+  H38  1  0.14047578  0.63059146  0.04261347  1
  H+  H39  1  0.86079697  0.83303433  0.99064532  1
  H+  H40  1  0.10539904  0.21829986  0.64759942  1
  H+  H41  1  0.36269880  0.50371140  0.00769118  1
  H+  H42  1  0.48191957  0.49919144  0.75322516  1
  H+  H43  1  0.15086313  0.19236637  0.74062757  1
  H+  H44  1  0.17757997  0.14529802  0.23248878  1
  H+  H45  1  0.99255552  0.47941225  0.74648026  1
  H+  H46  1  0.83915282  1.03630562  -0.01428013  1
  H+  H47  1  0.85245165  0.05121612  0.75399510  1
  H+  H48  1  0.29123362  0.47882020  0.75390606  1
  H+  H49  1  0.17480842  0.19915352  1.04293951  1
  H+  H50  1  0.17274883  0.36078837  0.75105123  1
  H+  H51  1  1.02576121  0.51227564  1.02086333  1
  H+  H52  1  0.80794318  0.62403334  0.22737832  1
  H+  H53  1  0.12693928  0.60781626  0.70573247  1
  H+  H54  1  0.50028047  0.31297688  0.50383241  1
  H+  H55  1  0.52348243  0.81126841  0.24129322  1
  H+  H56  1  0.70923680  0.84310774  0.22405222  1
  H+  H57  1  0.97053741  0.16760515  0.75862885  1
  H+  H58  1  0.25770356  0.42492114  0.49630211  1
  H+  H59  1  0.28981236  0.48059542  0.26462372  1
  H+  H60  1  0.51864700  0.36534816  0.99424523  1
  H+  H61  1  0.48425017  0.29723247  0.73557394  1
  H+  H62  1  0.15111748  0.17354863  0.52384537  1
  H+  H63  1  0.84876757  1.02095424  0.24637001  1
  H+  H64  1  0.69585832  0.18474952  0.50309208  1
  H+  H65  1  0.79146037  0.17054944  0.74074107  1
  H+  H66  1  0.48073820  0.62785919  0.23852222  1
  H+  H67  1  0.70983164  0.20496170  0.01716077  1
  H+  H68  1  0.52639327  0.80622320  0.99737088  1
  H+  H69  1  0.82400999  0.83281654  0.22463973  1
  H+  H70  1  0.77445515  0.89874655  0.64723150  1
  H+  H71  1  0.13947434  0.49616671  0.72951334  1
  H+  H72  1  0.45458323  0.80705120  0.71324876  1
  H+  H73  1  0.51280765  0.13784842  0.25865672  1
  H+  H74  1  0.48585604  0.61857672  0.74273629  1
  H+  H75  1  0.03624334  0.85438378  0.02403097  1
  H+  H76  1  0.79511439  0.89177214  0.09557351  1
  H+  H77  1  0.65532488  0.83778818  0.76483357  1
  H+  H78  1  0.52574353  0.17361676  1.02115968  1
  H+  H79  1  0.41604422  0.69545667  0.59420678  1
  H+  H80  1  0.50442310  0.36267764  0.26814555  1
  H+  H81  1  0.68960754  0.85911890  0.50045371  1
  H+  H82  1  0.37057335  0.18539742  0.04637699  1
  H+  H83  1  0.48798156  -0.00424866  0.49745909  1
  H+  H84  1  0.60822916  0.13599195  0.76926595  1
  H+  H85  1  0.14470963  0.29915101  0.25575367  1
  H+  H86  1  0.81723123  0.46941647  0.50505205  1
  H+  H87  1  0.83106693  0.73421624  0.31850429  1
  H+  H88  1  0.46546369  0.46942672  0.51603075  1
  H+  H89  1  0.34659693  0.82274225  0.70756036  1
  H+  H90  1  0.34140238  0.16254598  0.25497690  1
  H+  H91  1  0.17515970  -0.01442428  0.73856298  1
  H+  H92  1  0.28654184  0.80709445  0.26029437  1
  H+  H93  1  0.31608083  0.17006339  0.49370016  1
  H+  H94  1  1.04929211  0.87711090  0.74618294  1
  H+  H95  1  0.78333380  0.22674606  0.14856047  1
  H+  H96  1  0.17013246  0.02252295  0.23557068  1
  H+  H97  1  0.71047692  0.84472999  0.01066115  1
  H+  H98  1  0.83373671  0.34307052  0.49510674  1
  H+  H99  1  0.46644892  0.91544926  -0.06689767  1
  H+  H100  1  0.32502374  0.16247438  0.73245881  1
  H+  H101  1  0.86899043  0.74888588  0.76399529  1
  H+  H102  1  0.11683733  0.26914333  0.51670343  1
  H+  H103  1  0.51007542  0.47670536  0.98750319  1
  H+  H104  1  0.13242970  0.62490493  0.26212703  1
  H+  H105  1  0.90326075  0.43949691  0.85116706  1
  H+  H106  1  0.84152060  0.13656060  0.24724371  1
  H+  H107  1  0.12916541  0.83133077  0.25219034  1
  H+  H108  1  0.12484187  0.90687230  0.60301653  1
  H+  H109  1  0.46321998  0.22915574  0.59130584  1
  H+  H110  1  0.87128127  0.71831780  0.98737172  1
  H+  H111  1  0.21541200  0.77821452  0.35361722  1
  H+  H112  1  0.50665769  0.75032363  0.47295036  1
  H+  H113  1  0.87352126  0.11743455  0.89797847  1
  H+  H114  1  0.45522173  0.24232703  0.12883850  1
  H+  H115  1  0.43929872  0.88254716  0.15089255  1
  H+  H116  1  0.22739175  0.43850754  0.90001384  1
  H+  H117  1  0.75665233  0.49354132  0.64156694  1
  H+  H118  1  0.81468168  0.59466470  0.53389135  1
  H+  H119  1  0.08603334  0.54311766  0.17642761  1
  H+  H120  1  0.20024605  0.74455200  0.79898743  1
  H+  H121  1  0.41945485  0.48646187  0.61245963  1
  H+  H122  1  0.74487571  0.19432635  0.64964219  1
  H+  H123  1  0.86658726  0.42654362  0.40421365  1
  H+  H124  1  0.20216743  0.76781777  0.94544363  1
  H+  H125  1  0.11983480  0.24053634  0.11461990  1
  H+  H126  1  0.26185741  0.14511823  0.82462539  1
  H+  H127  1  0.52556620  0.16836081  0.47781963  1
  H+  H128  1  0.54487897  0.42767002  0.85554317  1
  H+  H129  1  0.09547154  0.87566253  0.12551998  1
  H+  H130  1  0.36922455  0.85552543  0.00465135  1
  H+  H131  1  0.81089377  0.17862516  0.50136556  1
  H+  H132  1  0.54873615  0.13450768  0.86313578  1
  H+  H133  1  0.57016571  0.76955031  0.91202599  1
  H+  H134  1  0.56259746  0.11847063  0.39025158  1
  H+  H135  1  0.56990222  0.78907090  0.33155769  1
  H+  H136  1  0.19033745  0.41286649  0.40705060  1
  H+  H137  1  0.95239585  0.47369704  0.27486999  1
  H+  H138  1  0.86696023  0.10276821  0.38879998  1
  H+  H139  1  0.80489505  0.56577860  0.09980901  1
  H+  H140  1  0.90853527  0.81443768  0.85776330  1
  H+  H141  1  0.56847150  0.87153402  0.80149428  1
  H+  H142  1  0.20310983  0.09871885  0.94996679  1
  H+  H143  1  0.43400659  0.54256427  0.15383700  1
  O2-  O144  1  0.10857701  0.22007989  0.23036705  1
  O2-  O145  1  0.10823257  0.22916507  0.71906376  1
  O2-  O146  1  0.08943977  0.54251597  0.24472304  1
  O2-  O147  1  0.08661310  0.52346625  0.70414013  1
  O2-  O148  1  0.08623462  0.86914927  0.22952543  1
  O2-  O149  1  0.12641649  0.90358100  0.71995117  1
  O2-  O150  1  0.42796440  0.20667939  0.27336420  1
  O2-  O151  1  0.45113093  0.22035544  0.70626623  1
  O2-  O152  1  0.43468976  0.54550284  0.22206322  1
  O2-  O153  1  0.44084012  0.53802389  0.72698084  1
  O2-  O154  1  0.44069308  0.87825067  0.21681896  1
  O2-  O155  1  0.42921694  0.85943945  0.69333701  1
  O2-  O156  1  0.77274168  0.21393306  0.21612069  1
  O2-  O157  1  0.73103696  0.18388728  0.71596298  1
  O2-  O158  1  0.76872497  0.53991711  0.20818214  1
  O2-  O159  1  0.75550185  0.48901566  0.71295936  1
  O2-  O160  1  0.79050789  0.88393252  0.20411286  1
  O2-  O161  1  0.77857457  0.90610094  0.71531256  1
  O2-  O162  1  0.22128677  0.10437521  0.22256104  1
  O2-  O163  1  0.24424740  0.12496395  0.76103591  1
  O2-  O164  1  0.21038320  0.43736018  0.28790636  1
  O2-  O165  1  0.21021875  0.44300892  0.77268252  1
  O2-  O166  1  0.20782758  0.77033501  0.28414889  1
  O2-  O167  1  0.20006407  0.75639735  0.73391939  1
  O2-  O168  1  0.55501112  0.09716526  0.27260505  1
  O2-  O169  1  0.53248857  0.11346229  0.79859697  1
  O2-  O170  1  0.55173833  0.44564957  0.27938363  1
  O2-  O171  1  0.54201928  0.42607947  0.78560141  1
  O2-  O172  1  0.56598784  0.77410750  0.26437889  1
  O2-  O173  1  0.57785217  0.80465053  0.79562306  1
  O2-  O174  1  0.88313944  0.09937793  0.27252413  1
  O2-  O175  1  0.88970769  0.12848747  0.78095352  1
  O2-  O176  1  0.86889194  0.42842712  0.29146547  1
  O2-  O177  1  0.90456548  0.43382869  0.78176980  1
  O2-  O178  1  0.86796937  0.75522692  0.25946031  1
  O2-  O179  1  0.91247859  0.82543553  0.78865177  1
  O2-  O180  1  0.23604279  0.12955046  0.47220610  1
  O2-  O181  1  0.23451746  0.10164127  1.00972684  1
  O2-  O182  1  0.18079635  0.40205708  0.47377059  1
  O2-  O183  1  0.24012778  0.44609046  0.96609917  1
  O2-  O184  1  0.22287095  0.78745642  0.45945610  1
  O2-  O185  1  0.22649721  0.78612431  1.00827029  1
  O2-  O186  1  0.56480678  0.12546087  0.45766330  1
  O2-  O187  1  0.56770184  0.13897852  0.99105161  1
  O2-  O188  1  0.56387119  0.44575590  0.46428179  1
  O2-  O189  1  0.55032183  0.43811823  0.96102699  1
  O2-  O190  1  0.57028743  0.82143849  0.44265315  1
  O2-  O191  1  0.56657395  0.76517260  0.97958457  1
  O2-  O192  1  0.86132881  0.11042533  0.45547870  1
  O2-  O193  1  0.86133909  0.11388803  0.96481164  1
  O2-  O194  1  0.86855155  0.42658252  0.47271473  1
  O2-  O195  1  0.89757601  0.44154998  0.95666247  1
  O2-  O196  1  0.92506342  0.83857225  0.44577776  1
  O2-  O197  1  0.90696035  0.79820594  0.96453239  1
  O2-  O198  1  0.13471096  0.24234163  0.04813145  1
  O2-  O199  1  0.09802191  0.19725352  0.55018009  1
  O2-  O200  1  0.08502313  0.55570112  0.06709669  1
  O2-  O201  1  0.39937402  0.66542258  0.53284825  1
  O2-  O202  1  0.11085152  0.88409516  0.05632376  1
  O2-  O203  1  0.12980042  0.90960722  0.53551341  1
  O2-  O204  1  0.45284657  0.23300110  0.06302229  1
  O2-  O205  1  0.46137861  0.23099150  0.52331621  1
  O2-  O206  1  0.44155298  0.53934537  0.03798532  1
  O2-  O207  1  0.40195177  0.47345704  0.54689726  1
  O2-  O208  1  0.45471569  0.89606894  -0.00239054  1
  O2-  O209  1  0.44847716  0.91223067  0.51148074  1
  O2-  O210  1  0.79170869  0.24149126  0.03518809  1
  O2-  O211  1  0.77405520  0.22138842  0.53013651  1
  O2-  O212  1  0.85310502  0.59408303  0.04266261  1
  O2-  O213  1  0.76669157  0.51270608  0.54118988  1
  O2-  O214  1  0.79284496  0.89115127  0.02638898  1
  O2-  O215  1  0.76480425  0.88881244  0.53333776  1
