# generated using pymatgen
data_H2O
_symmetry_space_group_name_H-M   'P 1'
_cell_length_a   13.52018187
_cell_length_b   13.51619917
_cell_length_c   14.68944068
_cell_angle_alpha   90.03179573
_cell_angle_beta   90.05387707
_cell_angle_gamma   120.07318398
_symmetry_Int_Tables_number   1
_chemical_formula_structural   H2O
_chemical_formula_sum   'H144 O72'
_cell_volume   2323.01368034
_cell_formula_units_Z   72
loop_
 _symmetry_equiv_pos_site_id
 _symmetry_equiv_pos_as_xyz
  1  'x, y, z'
loop_
 _atom_type_symbol
 _atom_type_oxidation_number
  H+  1.0
  O2-  -2.0
loop_
 _atom_site_type_symbol
 _atom_site_label
 _atom_site_symmetry_multiplicity
 _atom_site_fract_x
 _atom_site_fract_y
 _atom_site_fract_z
 _atom_site_occupancy
  H+  H0  1  0.42007056  0.56738268  0.25013236  1
  H+  H1  1  0.62895141  0.80003967  0.99932945  1
  H+  H2  1  0.85766088  0.82078156  0.48663533  1
  H+  H3  1  0.80825999  0.30041280  0.51941804  1
  H+  H4  1  0.16651138  0.69467766  0.47295516  1
  H+  H5  1  0.84265597  0.49549281  0.53119510  1
  H+  H6  1  0.22171510  0.36297701  0.51330033  1
  H+  H7  1  0.36459954  0.17763912  1.00245209  1
  H+  H8  1  0.33330159  0.84839086  0.19136125  1
  H+  H9  1  0.51483640  0.04273396  0.45821363  1
  H+  H10  1  0.64685053  0.50095234  0.49468508  1
  H+  H11  1  0.70388653  0.52211271  0.00534773  1
  H+  H12  1  0.05710761  0.17811222  0.76680825  1
  H+  H13  1  0.38448022  0.55155774  0.49332349  1
  H+  H14  1  0.79909443  0.89354446  0.65392204  1
  H+  H15  1  0.15100955  0.84856838  0.01185416  1
  H+  H16  1  0.03994476  0.51347791  0.52886996  1
  H+  H17  1  0.80881455  0.23164413  0.27384014  1
  H+  H18  1  0.71157842  0.85921741  0.52395784  1
  H+  H19  1  0.51553563  0.48118260  0.99736749  1
  H+  H20  1  0.31480120  0.13389808  0.66221800  1
  H+  H21  1  0.48353360  -0.03634560  1.01052009  1
  H+  H22  1  0.41009900  0.34338419  0.79716814  1
  H+  H23  1  0.08037375  0.54578853  0.24893796  1
  H+  H24  1  0.32031996  0.82483333  -0.00315225  1
  H+  H25  1  0.34180926  0.84890011  0.77119289  1
  H+  H26  1  0.19757492  0.57112923  0.32067399  1
  H+  H27  1  0.83078671  -0.02990456  0.50814836  1
  H+  H28  1  0.48049800  0.84342156  1.01156547  1
  H+  H29  1  0.86949189  0.01788103  0.23148313  1
  H+  H30  1  0.74626072  0.86070506  0.23860298  1
  H+  H31  1  0.97600125  0.82021324  1.01070699  1
  H+  H32  1  0.50046033  0.66582265  0.50585013  1
  H+  H33  1  0.05678170  0.19052237  0.22251213  1
  H+  H34  1  0.15168935  0.09357171  0.76897868  1
  H+  H35  1  0.85807381  0.49112099  0.99059829  1
  H+  H36  1  0.50177457  0.64195344  0.73788902  1
  H+  H37  1  0.40222454  0.03007842  0.80154924  1
  H+  H38  1  0.18278805  0.52447806  0.73298886  1
  H+  H39  1  1.05252941  0.85244587  0.24503308  1
  H+  H40  1  0.88422365  0.00973864  0.79198661  1
  H+  H41  1  0.84300516  0.82152532  1.01374387  1
  H+  H42  1  0.52045234  0.77300135  0.24829102  1
  H+  H43  1  0.52181985  0.16022220  0.22959028  1
  H+  H44  1  0.52763791  0.84346127  0.54867551  1
  H+  H45  1  0.04722464  0.19752089  0.00392321  1
  H+  H46  1  0.19247003  0.69663141  -0.01860609  1
  H+  H47  1  0.69462167  0.17902911  0.50734235  1
  H+  H48  1  0.87877499  0.39259091  0.22958755  1
  H+  H49  1  0.53915062  0.31259597  0.73180786  1
  H+  H50  1  0.23632310  0.12008748  0.39672667  1
  H+  H51  1  0.13301027  0.13487138  0.52539080  1
  H+  H52  1  0.92828158  0.72639768  0.77131486  1
  H+  H53  1  0.47916686  0.62604921  1.02030367  1
  H+  H54  1  0.19520595  0.03409020  0.25875755  1
  H+  H55  1  0.86001928  0.37375520  0.98790407  1
  H+  H56  1  0.32597926  0.08784907  0.67862374  1
  H+  H57  1  0.53030515  0.16590344  0.46474291  1
  H+  H58  1  0.20255645  0.67237534  0.24539187  1
  H+  H59  1  0.69436824  0.57476848  0.74827930  1
  H+  H60  1  0.18610963  0.15041663  -0.00723142  1
  H+  H61  1  0.69789187  0.18323221  0.00674578  1
  H+  H62  1  0.50537946  0.31690246  0.49855768  1
  H+  H63  1  0.82290779  0.37059487  0.72285500  1
  H+  H64  1  0.19851485  0.33573112  0.46766553  1
  H+  H65  1  0.83012486  0.83860427  0.73531555  1
  H+  H66  1  0.80997563  0.94403436  0.01610255  1
  H+  H67  1  0.16767525  0.53533536  -0.00925086  1
  H+  H68  1  0.52776099  0.49827196  0.48679873  1
  H+  H69  1  0.24258425  0.35431289  0.24946871  1
  H+  H70  1  0.95109591  0.57743976  0.78349749  1
  H+  H71  1  0.90285836  0.10043675  1.08629314  1
  H+  H72  1  0.17825185  0.86362979  0.23590253  1
  H+  H73  1  0.67468921  0.28715010  0.70378139  1
  H+  H74  1  0.86335781  0.13682673  0.22529496  1
  H+  H75  1  0.31543686  0.15856940  0.48529706  1
  H+  H76  1  0.85510418  0.17008574  0.73152216  1
  H+  H77  1  0.31659810  0.48473922  0.74945343  1
  H+  H78  1  0.51999210  0.18276307  0.73276139  1
  H+  H79  1  0.49049580  0.00354969  0.75784438  1
  H+  H80  1  0.28206541  0.81598540  0.37138185  1
  H+  H81  1  0.14237662  0.56509062  0.59958474  1
  H+  H82  1  0.51532308  0.14670088  0.99049355  1
  H+  H83  1  0.19793521  0.36276065  0.75437300  1
  H+  H84  1  0.01509208  0.13343781  0.51923736  1
  H+  H85  1  0.37266426  0.17525438  0.23488875  1
  H+  H86  1  0.30468664  0.48984052  0.98291733  1
  H+  H87  1  0.19727169  0.53825590  0.45041044  1
  H+  H88  1  0.88356256  0.83592955  0.25068389  1
  H+  H89  1  0.07456232  0.53888846  0.73423619  1
  H+  H90  1  0.25613980  0.81040325  0.89412930  1
  H+  H91  1  0.85066688  0.69488624  0.00388722  1
  H+  H92  1  0.10493069  -0.09911664  0.77474077  1
  H+  H93  1  0.87419806  0.71311866  0.25334408  1
  H+  H94  1  0.16042166  0.81099586  0.46621349  1
  H+  H95  1  0.16476945  0.31659570  -0.00639370  1
  H+  H96  1  0.04403177  0.85832885  0.50226099  1
  H+  H97  1  0.38488089  0.87869982  0.60926224  1
  H+  H98  1  0.85351282  0.14833890  0.47181581  1
  H+  H99  1  0.72042176  0.53791011  0.23709626  1
  H+  H100  1  0.79674284  0.12399660  0.74584677  1
  H+  H101  1  0.64788541  0.81410904  0.76574865  1
  H+  H102  1  0.82846649  0.65016838  0.50866436  1
  H+  H103  1  0.83931079  0.53586524  0.22337661  1
  H+  H104  1  0.19840184  0.15361210  0.25172310  1
  H+  H105  1  0.05041480  0.53758036  -0.00352949  1
  H+  H106  1  0.25229808  0.48492275  0.37511027  1
  H+  H107  1  0.16585225  -0.02883507  0.49615266  1
  H+  H108  1  0.76897663  0.26350122  0.64178647  1
  H+  H109  1  0.52848224  0.48007800  0.25933052  1
  H+  H110  1  0.77631424  0.58337546  0.60397888  1
  H+  H111  1  0.44310188  0.21558627  0.14151678  1
  H+  H112  1  0.48477241  0.46329775  0.75288780  1
  H+  H113  1  0.77376932  0.23177492  0.09694661  1
  H+  H114  1  0.46523266  0.72412886  0.34269502  1
  H+  H115  1  0.21089357  0.83634287  0.77624288  1
  H+  H116  1  0.46081845  0.57108977  0.64322068  1
  H+  H117  1  0.68607936  0.20238394  0.23091160  1
  H+  H118  1  0.55531582  0.76539437  0.90813865  1
  H+  H119  1  0.77502827  0.52268689  0.75330664  1
  H+  H120  1  0.11819977  0.88662625  0.10604571  1
  H+  H121  1  0.89257786  0.10675641  0.38254209  1
  H+  H122  1  0.56540791  0.11393819  0.31242750  1
  H+  H123  1  0.88423332  0.45343087  0.45014823  1
  H+  H124  1  0.79141277  0.87850503  0.11600536  1
  H+  H125  1  0.18019482  0.02840728  1.00426909  1
  H+  H126  1  0.78382334  0.56264455  0.09535240  1
  H+  H127  1  0.84397067  0.14891419  1.02081193  1
  H+  H128  1  0.23237438  0.45332266  0.88947769  1
  H+  H129  1  0.13842635  0.23415626  0.13513710  1
  H+  H130  1  0.57270448  0.86710124  0.44774952  1
  H+  H131  1  0.49028017  0.23639971  0.58214960  1
  H+  H132  1  0.48432008  0.29759306  0.00417382  1
  H+  H133  1  0.52963371  0.81536171  0.76152923  1
  H+  H134  1  0.18779619  0.06488621  0.86302169  1
  H+  H135  1  0.58799683  0.47458826  0.35057894  1
  H+  H136  1  0.90800821  0.08610896  0.87962116  1
  H+  H137  1  0.92251673  0.47222071  0.31402719  1
  H+  H138  1  0.89964878  0.78277045  0.39683799  1
  H+  H139  1  0.10813291  0.19806506  0.66664552  1
  H+  H140  1  0.91024446  0.47309567  0.85166571  1
  H+  H141  1  0.42264838  0.53095186  0.10084281  1
  H+  H142  1  0.54587661  0.43976224  0.90592797  1
  H+  H143  1  0.54368888  0.09758788  0.90278073  1
  O2-  O144  1  0.13827138  0.22983096  0.20317070  1
  O2-  O145  1  0.12949402  0.22198168  0.73178511  1
  O2-  O146  1  0.16586531  0.58668800  0.25555604  1
  O2-  O147  1  0.15145259  0.57224279  0.70837170  1
  O2-  O148  1  0.13073947  0.89666290  0.21622077  1
  O2-  O149  1  0.08762993  0.82415479  0.74661843  1
  O2-  O150  1  0.45109953  0.21441562  0.20859497  1
  O2-  O151  1  0.55969418  0.26014123  0.69992593  1
  O2-  O152  1  0.39569135  0.48919289  0.22538950  1
  O2-  O153  1  0.46121801  0.56271985  0.71039878  1
  O2-  O154  1  0.27583066  0.81129895  0.23956015  1
  O2-  O155  1  0.46295664  0.88195631  0.72406130  1
  O2-  O156  1  0.78125303  0.25401717  0.22072341  1
  O2-  O157  1  0.75787068  0.29447958  0.70272197  1
  O2-  O158  1  0.79806041  0.57576175  0.20542900  1
  O2-  O159  1  0.76338677  0.58042718  0.72249350  1
  O2-  O160  1  0.81778757  0.89978205  0.20487985  1
  O2-  O161  1  0.79251450  0.88230951  0.72180354  1
  O2-  O162  1  0.23612874  0.11464414  0.28101380  1
  O2-  O163  1  0.16660712  0.03722902  0.79934944  1
  O2-  O164  1  0.30071742  0.41859576  0.28860370  1
  O2-  O165  1  0.23811538  0.44522694  0.77519252  1
  O2-  O166  1  0.34723927  0.85245184  0.32226593  1
  O2-  O167  1  0.28309108  0.85572547  0.81040196  1
  O2-  O168  1  0.57470810  0.12754576  0.24627600  1
  O2-  O169  1  0.48470551  0.06990345  0.78836324  1
  O2-  O170  1  0.60159296  0.49392807  0.28500781  1
  O2-  O171  1  0.49002403  0.39923571  0.78442411  1
  O2-  O172  1  0.46490520  0.70350985  0.27921197  1
  O2-  O173  1  0.56726942  0.77214322  0.78704494  1
  O2-  O174  1  0.90982496  0.10675453  0.25051124  1
  O2-  O175  1  0.94504241  0.07132462  0.82890970  1
  O2-  O176  1  0.93351726  0.47457848  0.24843255  1
  O2-  O177  1  0.91410880  0.49258740  0.78488155  1
  O2-  O178  1  0.91800649  0.79180847  0.27952077  1
  O2-  O179  1  0.99609844  0.73389018  0.80256590  1
  O2-  O180  1  0.23514915  0.11583752  0.46481218  1
  O2-  O181  1  0.22342088  0.10536604  0.97564583  1
  O2-  O182  1  0.24641990  0.55202684  0.39463200  1
  O2-  O183  1  0.22544015  0.45335627  0.95768930  1
  O2-  O184  1  0.17792621  0.75620788  0.43073108  1
  O2-  O185  1  0.23877707  0.78707772  0.96683611  1
  O2-  O186  1  0.56868897  0.12221437  0.44307234  1
  O2-  O187  1  0.55691564  0.10625015  0.96966086  1
  O2-  O188  1  0.56766657  0.45650237  0.46928109  1
  O2-  O189  1  0.55933072  0.44544575  0.97230909  1
  O2-  O190  1  0.56469847  0.81982739  0.50053198  1
  O2-  O191  1  0.54915926  0.76330723  0.97613434  1
  O2-  O192  1  0.88430006  0.10027702  0.44966655  1
  O2-  O193  1  0.88752775  0.10580757  1.02186286  1
  O2-  O194  1  0.87944278  0.44724463  0.51607092  1
  O2-  O195  1  0.90103765  0.45444175  0.96636028  1
  O2-  O196  1  0.89481065  0.77747731  0.46488384  1
  O2-  O197  1  0.89230494  0.78102429  0.99044123  1
  O2-  O198  1  0.12942897  0.23678416  0.01911034  1
  O2-  O199  1  0.07321729  0.13845205  0.56204067  1
  O2-  O200  1  0.13318043  0.58210019  0.01164190  1
  O2-  O201  1  0.12406244  0.55655849  0.53158971  1
  O2-  O202  1  0.10807166  0.88375392  0.03740062  1
  O2-  O203  1  0.12581418  0.89020594  0.51691692  1
  O2-  O204  1  0.44655938  0.21583876  0.02234928  1
  O2-  O205  1  0.47314504  0.23477871  0.51666330  1
  O2-  O206  1  0.43685971  0.54210835  0.03465569  1
  O2-  O207  1  0.46049340  0.58308111  0.52050293  1
  O2-  O208  1  0.43916972  0.88290112  0.03262915  1
  O2-  O209  1  0.45803732  0.88294100  0.62229122  1
  O2-  O210  1  0.77879116  0.22531156  0.03013596  1
  O2-  O211  1  0.77013663  0.21910374  0.53977084  1
  O2-  O212  1  0.78532688  0.56309714  0.02627085  1
  O2-  O213  1  0.78353423  0.57153296  0.53812195  1
  O2-  O214  1  0.77696766  0.86531950  0.03996528  1
  O2-  O215  1  0.79409655  0.89335823  0.53776492  1
