# generated using pymatgen
data_H2O
_symmetry_space_group_name_H-M   'P 1'
_cell_length_a   13.50669290
_cell_length_b   13.52335521
_cell_length_c   14.69503713
_cell_angle_alpha   90.00672004
_cell_angle_beta   89.97811272
_cell_angle_gamma   120.10507131
_symmetry_Int_Tables_number   1
_chemical_formula_structural   H2O
_chemical_formula_sum   'H144 O72'
_cell_volume   2322.06287825
_cell_formula_units_Z   72
loop_
 _symmetry_equiv_pos_site_id
 _symmetry_equiv_pos_as_xyz
  1  'x, y, z'
loop_
 _atom_type_symbol
 _atom_type_oxidation_number
  H+  1.0
  O2-  -2.0
loop_
 _atom_site_type_symbol
 _atom_site_label
 _atom_site_symmetry_multiplicity
 _atom_site_fract_x
 _atom_site_fract_y
 _atom_site_fract_z
 _atom_site_occupancy
  H+  H0  1  0.18491004  0.67512511  -0.01185122  1
  H+  H1  1  0.29532189  0.46966903  0.75319045  1
  H+  H2  1  0.27927281  0.12087343  0.25167707  1
  H+  H3  1  0.54670844  0.39606530  0.29460996  1
  H+  H4  1  0.49191196  0.51262829  0.23092671  1
  H+  H5  1  0.49570554  0.97433904  0.23293502  1
  H+  H6  1  0.83807948  0.68452174  0.50222658  1
  H+  H7  1  0.54611300  0.75610429  0.88797089  1
  H+  H8  1  1.00889356  0.83713678  0.51354773  1
  H+  H9  1  0.17202873  0.13576166  0.75457368  1
  H+  H10  1  0.18007965  0.48006023  0.99206115  1
  H+  H11  1  0.51209779  0.14016040  0.48565471  1
  H+  H12  1  0.82057492  0.91944232  0.74920943  1
  H+  H13  1  0.45390595  0.51155804  0.50577786  1
  H+  H14  1  0.45214121  0.60433668  0.22240981  1
  H+  H15  1  0.85827376  0.46099814  0.44246490  1
  H+  H16  1  1.01753577  0.83381584  0.25076703  1
  H+  H17  1  0.48421628  0.84555177  0.53255590  1
  H+  H18  1  0.70885816  0.94012192  0.06805678  1
  H+  H19  1  0.69880164  0.19706721  0.73944392  1
  H+  H20  1  0.20269545  0.18865407  0.98346596  1
  H+  H21  1  0.62190766  0.48041464  0.51313892  1
  H+  H22  1  0.81090279  0.62952791  0.00892654  1
  H+  H23  1  0.84293487  1.01461352  0.49351048  1
  H+  H24  1  0.85558046  0.48877022  -0.01275092  1
  H+  H25  1  0.18446769  0.81011732  0.25490775  1
  H+  H26  1  0.45486762  0.89230292  0.66375870  1
  H+  H27  1  0.35582836  0.17304645  0.50671296  1
  H+  H28  1  0.02651475  0.17195719  0.24435739  1
  H+  H29  1  0.15471971  0.27770506  0.53587280  1
  H+  H30  1  0.00923446  0.83347938  0.01981903  1
  H+  H31  1  0.53647650  0.04043523  0.76457926  1
  H+  H32  1  0.13231944  -0.04538553  0.51176862  1
  H+  H33  1  0.51909080  0.81627955  0.75898825  1
  H+  H34  1  0.18084224  0.80096497  0.76632621  1
  H+  H35  1  1.03387498  0.18615272  1.01204675  1
  H+  H36  1  0.38000004  0.85307071  0.75473791  1
  H+  H37  1  0.56417850  0.10843414  0.34407276  1
  H+  H38  1  0.14286190  0.92662921  0.01525456  1
  H+  H39  1  0.72194391  0.57242187  0.77193065  1
  H+  H40  1  0.13823563  0.28502662  0.74761671  1
  H+  H41  1  0.47288956  0.29638820  0.50714687  1
  H+  H42  1  0.62830125  0.13721746  0.48761279  1
  H+  H43  1  0.48288879  0.31410360  0.72982074  1
  H+  H44  1  0.87832466  0.76425850  0.90373368  1
  H+  H45  1  1.14214788  0.80786596  0.49023662  1
  H+  H46  1  0.64850360  0.14811820  1.00122645  1
  H+  H47  1  0.85512347  0.79417137  0.25886568  1
  H+  H48  1  0.81161851  0.99326533  0.00179911  1
  H+  H49  1  0.33936876  0.52200108  0.49439403  1
  H+  H50  1  0.65830434  0.50655183  0.26580390  1
  H+  H51  1  0.53268758  1.02454900  -0.00759887  1
  H+  H52  1  0.47654090  0.95767424  0.52561830  1
  H+  H53  1  0.68876393  0.82030565  0.74367308  1
  H+  H54  1  0.03837349  0.51588288  0.73045272  1
  H+  H55  1  0.81322341  0.28090992  0.49845489  1
  H+  H56  1  0.83314381  0.79976426  0.49175212  1
  H+  H57  1  0.14429496  0.94689452  0.74701320  1
  H+  H58  1  0.01414673  0.17186961  0.74909258  1
  H+  H59  1  0.81676154  0.51617160  0.56899030  1
  H+  H60  1  0.85123851  0.37483951  0.75253732  1
  H+  H61  1  0.89768723  0.44942210  0.89920006  1
  H+  H62  1  0.34078165  0.50131208  -0.00052317  1
  H+  H63  1  0.37875786  0.85386335  0.24073920  1
  H+  H64  1  0.14615314  0.67666969  0.48682295  1
  H+  H65  1  0.47711373  0.62518118  -0.00570285  1
  H+  H66  1  0.14656954  0.28905793  0.24368856  1
  H+  H67  1  0.18648951  0.68477572  0.75738735  1
  H+  H68  1  0.02406602  0.49314036  0.22530503  1
  H+  H69  1  0.48088545  0.82851012  0.00379783  1
  H+  H70  1  1.03302803  0.51505918  1.00455649  1
  H+  H71  1  0.82661812  0.31354814  0.01064199  1
  H+  H72  1  0.50600480  0.69732830  0.49471886  1
  H+  H73  1  0.49295135  0.16428540  0.00672342  1
  H+  H74  1  0.16532845  0.39879303  0.45638193  1
  H+  H75  1  0.35151186  0.18783706  0.73349641  1
  H+  H76  1  0.38049414  0.17945236  -0.00079086  1
  H+  H77  1  0.52162698  0.14265105  0.25457802  1
  H+  H78  1  0.31320342  0.80031384  -0.01530594  1
  H+  H79  1  0.50748300  0.69082904  0.75007998  1
  H+  H80  1  0.86781371  0.17336521  0.26766836  1
  H+  H81  1  0.84597179  0.18710977  0.75684520  1
  H+  H82  1  0.17280767  0.13136432  0.49659402  1
  H+  H83  1  0.83407399  0.77382345  0.76351413  1
  H+  H84  1  0.21857541  0.45639124  0.33985984  1
  H+  H85  1  0.73346928  0.53471918  0.62974296  1
  H+  H86  1  0.95976341  0.13333335  0.49827993  1
  H+  H87  1  0.31226166  0.26679547  0.92731645  1
  H+  H88  1  0.69186550  0.83647007  0.51526261  1
  H+  H89  1  0.53168955  0.34575397  -0.03023498  1
  H+  H90  1  0.47974546  0.51666214  0.72328830  1
  H+  H91  1  0.58949694  0.76787403  0.27858174  1
  H+  H92  1  0.44445700  0.25676474  0.22165252  1
  H+  H93  1  0.14628032  0.50335525  0.23141958  1
  H+  H94  1  0.28729511  0.46300603  0.24682754  1
  H+  H95  1  0.80844965  0.06023940  0.77229447  1
  H+  H96  1  0.54514219  0.85533075  0.26990697  1
  H+  H97  1  0.86004200  0.49545957  0.76289491  1
  H+  H98  1  0.80793453  0.16217913  0.51148095  1
  H+  H99  1  0.83463742  0.61801294  0.24233736  1
  H+  H100  1  0.16050855  0.52786289  0.47952369  1
  H+  H101  1  0.62480387  0.79996544  0.97775764  1
  H+  H102  1  0.81039734  0.48833643  0.23276873  1
  H+  H103  1  0.83786819  0.81231711  0.98730036  1
  H+  H104  1  0.95158914  0.77453146  0.76937261  1
  H+  H105  1  0.75948748  0.89245923  0.24397219  1
  H+  H106  1  0.86039478  0.17152833  0.99662080  1
  H+  H107  1  0.64232247  0.46913121  0.96999742  1
  H+  H108  1  0.19265265  0.77088284  0.39582493  1
  H+  H109  1  0.72835242  0.23013092  0.24881486  1
  H+  H110  1  0.11170490  0.55161112  0.09567780  1
  H+  H111  1  0.23173331  0.11895362  0.83979920  1
  H+  H112  1  0.43262133  0.22576227  0.63523187  1
  H+  H113  1  0.13900265  0.97075225  0.24392603  1
  H+  H114  1  0.97670587  0.47012517  0.46748417  1
  H+  H115  1  0.10959798  0.55516888  0.57746728  1
  H+  H116  1  0.88972210  0.11147711  0.35015861  1
  H+  H117  1  0.79888567  0.88108041  0.14538355  1
  H+  H118  1  0.56323719  0.46503132  0.41776215  1
  H+  H119  1  0.77554434  0.23260471  0.64599422  1
  H+  H120  1  0.44489748  0.87341000  0.09352060  1
  H+  H121  1  0.56349752  0.43421587  0.84088821  1
  H+  H122  1  0.89271108  0.13645074  0.90219156  1
  H+  H123  1  0.87756869  0.38599443  0.32277521  1
  H+  H124  1  0.57919609  0.11989658  0.85131887  1
  H+  H125  1  0.10962116  0.21730972  0.10411655  1
  H+  H126  1  0.17986698  0.35996642  0.99824817  1
  H+  H127  1  0.42460546  0.55146332  0.64092198  1
  H+  H128  1  0.10121868  0.86817235  0.65978234  1
  H+  H129  1  0.79825763  0.24792074  0.10535526  1
  H+  H130  1  0.16573339  0.13465515  0.25617541  1
  H+  H131  1  0.56249132  0.79729724  0.41825721  1
  H+  H132  1  0.88918686  0.75809850  0.35406158  1
  H+  H133  1  0.43835648  0.53906575  0.08688519  1
  H+  H134  1  0.77632579  0.86946864  0.59989982  1
  H+  H135  1  0.15164418  0.50769837  0.72870238  1
  H+  H136  1  0.42674521  0.18101560  0.13728286  1
  H+  H137  1  0.20714373  0.09343389  0.40358091  1
  H+  H138  1  0.18231591  0.69179781  0.26099320  1
  H+  H139  1  0.09946051  0.19415447  0.61777147  1
  H+  H140  1  0.21862309  0.43460187  0.84346201  1
  H+  H141  1  0.22669025  0.75593479  0.88741559  1
  H+  H142  1  0.77271594  0.54369337  0.09310372  1
  H+  H143  1  0.09153691  0.87793432  0.14835635  1
  O2-  O144  1  0.10837181  0.20833839  0.22074926  1
  O2-  O145  1  0.09482478  0.20234425  0.72892765  1
  O2-  O146  1  0.10563468  0.54494535  0.21008334  1
  O2-  O147  1  0.11821875  0.55423008  0.70636161  1
  O2-  O148  1  0.09862376  0.88360929  0.22083588  1
  O2-  O149  1  0.10507681  0.86577558  0.72731240  1
  O2-  O150  1  0.41546125  0.17687951  0.20627619  1
  O2-  O151  1  0.43239843  0.23223273  0.70599163  1
  O2-  O152  1  0.43782090  0.53117992  0.19810306  1
  O2-  O153  1  0.43220592  0.55137479  0.70931579  1
  O2-  O154  1  0.45564128  0.89238095  0.21224699  1
  O2-  O155  1  0.46019281  0.89227451  0.73362195  1
  O2-  O156  1  0.80957569  0.26787456  0.22597600  1
  O2-  O157  1  0.78064279  0.24406121  0.71356319  1
  O2-  O158  1  0.78091402  0.54035755  0.21740842  1
  O2-  O159  1  0.68351846  0.49732430  0.74053817  1
  O2-  O160  1  0.79610256  0.85762602  0.20911424  1
  O2-  O161  1  0.76909735  0.84651482  0.72023603  1
  O2-  O162  1  0.19978262  0.08571836  0.27716682  1
  O2-  O163  1  0.22403644  0.10616165  0.77262074  1
  O2-  O164  1  0.20975953  0.43359986  0.27132652  1
  O2-  O165  1  0.21444751  0.42763791  0.77634485  1
  O2-  O166  1  0.22126110  0.77160047  0.28504333  1
  O2-  O167  1  0.22247624  0.76164089  0.78883915  1
  O2-  O168  1  0.57291716  0.11486771  0.27592511  1
  O2-  O169  1  0.57859385  0.12182429  0.78403623  1
  O2-  O170  1  0.57925052  0.47872277  0.29275788  1
  O2-  O171  1  0.56069237  0.44503576  0.76860291  1
  O2-  O172  1  0.59901637  0.83844829  0.30430787  1
  O2-  O173  1  0.55467384  0.76832105  0.77828522  1
  O2-  O174  1  0.89580819  0.12068042  0.28296534  1
  O2-  O175  1  0.87445037  0.13557370  0.78403443  1
  O2-  O176  1  0.86518537  0.38883609  0.25545643  1
  O2-  O177  1  0.89952829  0.45415640  0.77928044  1
  O2-  O178  1  0.89910918  0.75879770  0.28613043  1
  O2-  O179  1  0.87246775  0.73626848  0.79419038  1
  O2-  O180  1  0.21294113  0.09225480  0.47090300  1
  O2-  O181  1  0.26477788  0.18715523  0.94630328  1
  O2-  O182  1  0.21745091  0.47909585  0.44279328  1
  O2-  O183  1  0.22271145  0.44020132  0.97219698  1
  O2-  O184  1  0.18027404  0.76409343  0.46390339  1
  O2-  O185  1  0.23130639  0.75604360  0.95979841  1
  O2-  O186  1  0.54938320  0.09886465  0.46130447  1
  O2-  O187  1  0.56982163  0.10603958  0.97455207  1
  O2-  O188  1  0.54621824  0.44402666  0.48270807  1
  O2-  O189  1  0.56632603  0.42183265  0.94030360  1
  O2-  O190  1  0.55730977  0.78133656  0.48474124  1
  O2-  O191  1  0.54423659  0.75206923  0.95750630  1
  O2-  O192  1  0.88135766  0.09618889  0.47299433  1
  O2-  O193  1  0.89632822  0.12839925  0.96941594  1
  O2-  O194  1  0.89834128  0.41791953  0.44005569  1
  O2-  O195  1  0.89911072  0.45036535  0.96718874  1
  O2-  O196  1  0.87535084  0.75942952  0.47076407  1
  O2-  O197  1  0.87968994  0.77268258  0.97263050  1
  O2-  O198  1  0.11430096  0.22564511  0.03585995  1
  O2-  O199  1  0.10621503  0.19648906  0.54905450  1
  O2-  O200  1  0.11523878  0.55283828  0.02685337  1
  O2-  O201  1  0.10628492  0.56201073  0.51036740  1
  O2-  O202  1  0.08534011  0.86334914  0.05136745  1
  O2-  O203  1  0.09045743  0.87420002  0.53558869  1
  O2-  O204  1  0.45500592  0.20732852  0.03035858  1
  O2-  O205  1  0.43531755  0.21680523  0.53224424  1
  O2-  O206  1  0.42924738  0.54288437  0.01864574  1
  O2-  O207  1  0.41723560  0.55524193  0.52601954  1
  O2-  O208  1  0.44115698  0.86972585  0.02529480  1
  O2-  O209  1  0.44363622  0.88377671  0.55778908  1
  O2-  O210  1  0.79011006  0.23520748  0.03835179  1
  O2-  O211  1  0.76930683  0.20615346  0.52961158  1
  O2-  O212  1  0.77519963  0.54722259  0.02560503  1
  O2-  O213  1  0.76554751  0.54746212  0.56656299  1
  O2-  O214  1  0.75453778  0.91764020  0.03101929  1
  O2-  O215  1  0.77561189  0.87375530  0.53245896  1
