# generated using pymatgen
data_H2O
_symmetry_space_group_name_H-M   'P 1'
_cell_length_a   13.49728015
_cell_length_b   13.50150334
_cell_length_c   14.68323553
_cell_angle_alpha   90.02549291
_cell_angle_beta   89.99365392
_cell_angle_gamma   119.92653761
_symmetry_Int_Tables_number   1
_chemical_formula_structural   H2O
_chemical_formula_sum   'H144 O72'
_cell_volume   2319.00536961
_cell_formula_units_Z   72
loop_
 _symmetry_equiv_pos_site_id
 _symmetry_equiv_pos_as_xyz
  1  'x, y, z'
loop_
 _atom_type_symbol
 _atom_type_oxidation_number
  H+  1.0
  O2-  -2.0
loop_
 _atom_site_type_symbol
 _atom_site_label
 _atom_site_symmetry_multiplicity
 _atom_site_fract_x
 _atom_site_fract_y
 _atom_site_fract_z
 _atom_site_occupancy
  H+  H0  1  0.53424747  0.33709179  0.71450022  1
  H+  H1  1  0.35917055  0.84288609  1.00754533  1
  H+  H2  1  0.36278140  0.84466538  0.73864082  1
  H+  H3  1  0.48909770  0.17479262  0.94713355  1
  H+  H4  1  0.42731942  0.56025478  0.60075685  1
  H+  H5  1  0.04278774  0.19347787  0.00260483  1
  H+  H6  1  0.07370752  0.06886778  0.78162829  1
  H+  H7  1  0.30708626  0.11233860  0.71939014  1
  H+  H8  1  0.95548675  0.80586122  0.27285382  1
  H+  H9  1  0.69851556  0.18522816  0.51224806  1
  H+  H10  1  0.82062845  0.30238169  0.51377807  1
  H+  H11  1  0.85825382  0.83909209  -0.00812446  1
  H+  H12  1  0.48294146  -0.03733263  0.73669101  1
  H+  H13  1  0.82083736  0.66247559  1.01425319  1
  H+  H14  1  0.42541561  0.21709149  0.35879507  1
  H+  H15  1  0.36443580  0.84839782  0.23922173  1
  H+  H16  1  0.72179289  0.90945515  0.04073851  1
  H+  H17  1  0.97056158  0.48161618  0.25135719  1
  H+  H18  1  0.83947517  0.81510676  0.49757080  1
  H+  H19  1  0.69828153  0.21074480  0.74475390  1
  H+  H20  1  0.85616214  0.03918681  0.28830104  1
  H+  H21  1  0.49317831  0.47588869  1.01223830  1
  H+  H22  1  0.06966971  0.55137731  0.01079006  1
  H+  H23  1  0.53671553  0.14905006  0.48720946  1
  H+  H24  1  0.65988677  0.49020859  0.47689353  1
  H+  H25  1  0.16368343  0.19853191  0.99458202  1
  H+  H26  1  0.80717185  0.29268630  0.22973419  1
  H+  H27  1  0.47418018  0.51213506  0.23952508  1
  H+  H28  1  0.02858193  0.83329573  0.72991869  1
  H+  H29  1  0.15007768  0.23406594  0.47386085  1
  H+  H30  1  0.85253166  0.48245003  0.25631328  1
  H+  H31  1  0.18119645  0.38080895  0.98839839  1
  H+  H32  1  0.30733166  0.49298758  0.76574965  1
  H+  H33  1  0.31943975  0.15456170  0.94335976  1
  H+  H34  1  0.61914335  0.77603689  0.96789554  1
  H+  H35  1  0.81910103  0.95889440  0.74219558  1
  H+  H36  1  0.83291949  1.02241791  0.50911521  1
  H+  H37  1  0.29160513  0.48193458  0.26327620  1
  H+  H38  1  0.83632205  0.68775317  0.26934020  1
  H+  H39  1  0.51566049  0.03466317  0.27207341  1
  H+  H40  1  0.54890627  0.41315050  1.06497622  1
  H+  H41  1  0.50978774  0.69701341  0.25465646  1
  H+  H42  1  0.13753670  0.23580422  0.13866738  1
  H+  H43  1  0.84632105  0.69567271  0.76142096  1
  H+  H44  1  0.86742816  0.49149369  0.48223948  1
  H+  H45  1  0.15800114  0.52229429  0.73854961  1
  H+  H46  1  0.70570261  0.54341725  1.01677407  1
  H+  H47  1  0.19008934  0.50883697  0.99671290  1
  H+  H48  1  0.16164589  0.30111953  0.23463952  1
  H+  H49  1  1.02849136  0.85932572  0.50103079  1
  H+  H50  1  0.17209682  0.47970252  0.26085665  1
  H+  H51  1  0.22287510  0.76946177  0.34671679  1
  H+  H52  1  0.15228321  0.83196178  0.01709977  1
  H+  H53  1  0.87716043  1.04245716  0.00747672  1
  H+  H54  1  0.46649383  0.90503142  0.58558744  1
  H+  H55  1  0.12486213  0.56254841  0.14629161  1
  H+  H56  1  0.20074331  0.03525435  0.95497299  1
  H+  H57  1  0.47518969  0.83734563  1.00364670  1
  H+  H58  1  0.16383219  0.94847130  0.05793816  1
  H+  H59  1  0.19125740  0.69381508  1.00361351  1
  H+  H60  1  0.98159611  0.14775046  0.76036099  1
  H+  H61  1  0.80253498  0.83649711  0.73863298  1
  H+  H62  1  0.46977123  0.62058289  0.00202805  1
  H+  H63  1  0.81148162  0.84206024  0.25308919  1
  H+  H64  1  0.67541017  0.54819385  0.79722527  1
  H+  H65  1  0.62706268  0.82059809  0.75642503  1
  H+  H66  1  0.97237659  0.83085542  0.99057462  1
  H+  H67  1  0.68401603  0.18112167  0.23800128  1
  H+  H68  1  0.16995351  0.80602626  0.47715407  1
  H+  H69  1  0.48561360  0.11304979  0.74918168  1
  H+  H70  1  0.17700344  0.14472078  0.24675643  1
  H+  H71  1  0.14198421  0.32900407  0.73726866  1
  H+  H72  1  0.50964564  0.36244843  0.26691431  1
  H+  H73  1  0.69488795  0.51173399  0.23983840  1
  H+  H74  1  0.50919621  0.01686202  0.98201381  1
  H+  H75  1  1.03791309  0.50453812  0.50419320  1
  H+  H76  1  0.69421775  0.84616744  0.24613061  1
  H+  H77  1  0.17451902  0.68948112  0.48236550  1
  H+  H78  1  0.77792645  0.25078713  0.65728200  1
  H+  H79  1  0.50939141  0.33827357  0.76010183  1
  H+  H80  1  0.70747695  0.45877775  0.70162936  1
  H+  H81  1  0.51360094  0.81795407  0.25413129  1
  H+  H82  1  0.50056136  0.54250134  0.76522726  1
  H+  H83  1  0.18186434  0.81090637  0.26118436  1
  H+  H84  1  0.85515633  0.14697062  0.99687128  1
  H+  H85  1  0.13312817  0.95480454  0.24885827  1
  H+  H86  1  0.47815131  0.64209051  0.74521714  1
  H+  H87  1  0.50608209  0.82140931  0.75323176  1
  H+  H88  1  0.91746765  0.43735467  1.00397503  1
  H+  H89  1  0.46138200  0.63826973  0.51483102  1
  H+  H90  1  0.15323095  0.63330816  0.23920549  1
  H+  H91  1  0.84025217  0.14402885  0.51566834  1
  H+  H92  1  0.83155517  0.51233195  0.74387663  1
  H+  H93  1  0.18603166  0.69422694  0.76139522  1
  H+  H94  1  0.14024454  0.95143576  0.73114585  1
  H+  H95  1  0.28531870  0.12967852  0.27066860  1
  H+  H96  1  0.68500933  0.83482104  0.50582055  1
  H+  H97  1  0.48106082  0.16984058  0.28862117  1
  H+  H98  1  0.32744118  0.19756982  0.50134484  1
  H+  H99  1  0.79347343  0.26597358  0.00571736  1
  H+  H100  1  0.44462982  0.89048693  0.15101818  1
  H+  H101  1  0.53685465  0.37753365  0.47659064  1
  H+  H102  1  0.16692893  0.04673524  0.48308617  1
  H+  H103  1  0.48522168  0.29244622  -0.04613414  1
  H+  H104  1  0.14579933  0.21972776  0.70847836  1
  H+  H105  1  0.98160146  0.50068179  0.76581956  1
  H+  H106  1  0.34729445  0.50726166  0.00706361  1
  H+  H107  1  0.83296709  0.64813331  0.50488447  1
  H+  H108  1  0.52267710  -0.00693901  0.50014313  1
  H+  H109  1  0.18604628  0.10459512  0.83807099  1
  H+  H110  1  0.89055611  0.78237272  0.84516537  1
  H+  H111  1  0.38327723  0.14239448  0.63274761  1
  H+  H112  1  0.78120374  0.56746667  0.15595727  1
  H+  H113  1  0.20021139  0.11418547  0.38948122  1
  H+  H114  1  0.89917629  0.44267536  0.39457533  1
  H+  H115  1  0.87990778  0.77725399  0.40680843  1
  H+  H116  1  0.63274965  0.12957803  0.98382194  1
  H+  H117  1  0.78789122  0.89587145  0.12538127  1
  H+  H118  1  0.08637754  0.86030940  0.16887106  1
  H+  H119  1  0.59812692  0.50312609  0.88461008  1
  H+  H120  1  0.21933774  0.77653564  0.91035510  1
  H+  H121  1  0.79750140  0.56275287  0.58976290  1
  H+  H122  1  0.22388581  0.46034346  0.85265516  1
  H+  H123  1  0.75946704  0.87101893  0.59908928  1
  H+  H124  1  0.11606272  0.55622850  0.64759862  1
  H+  H125  1  0.75964585  0.19604826  0.09943171  1
  H+  H126  1  0.43040206  0.54942852  0.15190666  1
  H+  H127  1  0.15420008  0.50176965  0.51082687  1
  H+  H128  1  0.18348237  0.81029657  0.75970698  1
  H+  H129  1  0.54085830  0.76571722  0.88354746  1
  H+  H130  1  0.11369623  0.89379001  0.58440775  1
  H+  H131  1  0.55681993  0.77934102  0.39984190  1
  H+  H132  1  0.56542719  0.45659978  0.34174251  1
  H+  H133  1  0.41417237  0.17196738  0.11245291  1
  H+  H134  1  0.20285433  0.40951940  0.39468813  1
  H+  H135  1  0.54706417  0.09876731  0.83881728  1
  H+  H136  1  0.85741642  0.38398940  0.76377029  1
  H+  H137  1  0.52783870  0.83353727  0.48711725  1
  H+  H138  1  0.56891958  0.11295100  0.36773125  1
  H+  H139  1  0.44855891  0.23596264  0.11735030  1
  H+  H140  1  0.91790063  0.09296684  0.85521383  1
  H+  H141  1  0.89663151  0.11260658  0.37764680  1
  H+  H142  1  0.86790247  0.42714810  0.90556105  1
  H+  H143  1  0.39704993  0.30014744  0.56861661  1
  O2-  O144  1  0.15148801  0.23105969  0.20421939  1
  O2-  O145  1  0.09578851  0.25277845  0.70738698  1
  O2-  O146  1  0.11244520  0.55335206  0.21482485  1
  O2-  O147  1  0.11558978  0.56110821  0.71586622  1
  O2-  O148  1  0.09258030  0.86976445  0.23560946  1
  O2-  O149  1  0.10919599  0.87224786  0.70814806  1
  O2-  O150  1  0.43315768  0.21097476  0.29338114  1
  O2-  O151  1  0.36538665  0.10002110  0.69079951  1
  O2-  O152  1  0.43252702  0.55240734  0.21969598  1
  O2-  O153  1  0.44542420  0.55851241  0.73303063  1
  O2-  O154  1  0.44632757  0.89065168  0.21866718  1
  O2-  O155  1  0.44240545  0.88153063  0.71432109  1
  O2-  O156  1  0.75577032  0.21787473  0.20133270  1
  O2-  O157  1  0.77770906  0.26306222  0.72493084  1
  O2-  O158  1  0.77795905  0.55572612  0.22381891  1
  O2-  O159  1  0.77450170  0.53321479  0.71424314  1
  O2-  O160  1  0.77663573  0.88609528  0.22665001  1
  O2-  O161  1  0.76436290  0.87993195  0.71986998  1
  O2-  O162  1  0.20071264  0.09082006  0.27747233  1
  O2-  O163  1  0.15321664  0.08354037  0.77520651  1
  O2-  O164  1  0.21101728  0.43814768  0.28512474  1
  O2-  O165  1  0.22508758  0.45892363  0.78441548  1
  O2-  O166  1  0.22716150  0.77375376  0.27710546  1
  O2-  O167  1  0.22479463  0.77376821  0.78748341  1
  O2-  O168  1  0.55491149  0.11425985  0.29498703  1
  O2-  O169  1  0.54854793  0.10063816  0.77085064  1
  O2-  O170  1  0.55247892  0.44720048  0.27312588  1
  O2-  O171  1  0.61809054  0.55586690  0.83327448  1
  O2-  O172  1  0.55497571  0.77786383  0.27557629  1
  O2-  O173  1  0.54636610  0.78041538  0.77939934  1
  O2-  O174  1  0.90554007  0.11735602  0.31007252  1
  O2-  O175  1  0.93425911  0.07351506  0.79388370  1
  O2-  O176  1  0.89144178  0.44035390  0.27715754  1
  O2-  O177  1  0.90157740  0.46524654  0.79023380  1
  O2-  O178  1  0.87371002  0.76846497  0.29286318  1
  O2-  O179  1  0.88907675  0.77706441  0.77715181  1
  O2-  O180  1  0.20406600  0.12600056  0.45753978  1
  O2-  O181  1  0.23101636  0.11697381  0.94762587  1
  O2-  O182  1  0.20404458  0.39683622  0.46304171  1
  O2-  O183  1  0.22521613  0.46197697  0.96792026  1
  O2-  O184  1  0.20723606  0.76497170  0.45240380  1
  O2-  O185  1  0.22185768  0.78057683  0.97823733  1
  O2-  O186  1  0.58299010  0.11840490  0.46309468  1
  O2-  O187  1  0.55409855  0.09569940  0.95616970  1
  O2-  O188  1  0.58230716  0.45338424  0.44913392  1
  O2-  O189  1  0.54129975  0.43651944  1.00371531  1
  O2-  O190  1  0.55986152  0.78163441  0.46725758  1
  O2-  O191  1  0.54126227  0.75731752  0.95353580  1
  O2-  O192  1  0.88206002  0.10463850  0.49545014  1
  O2-  O193  1  0.90651422  0.11665174  0.97557684  1
  O2-  O194  1  0.90350686  0.44615871  0.46280222  1
  O2-  O195  1  0.84627595  0.40259811  0.96994970  1
  O2-  O196  1  0.88676341  0.78029374  0.47490841  1
  O2-  O197  1  0.89497966  0.79889790  0.96323923  1
  O2-  O198  1  0.12611598  0.23935331  0.01957365  1
  O2-  O199  1  0.11111287  0.28015926  0.47458406  1
  O2-  O200  1  0.14589554  0.58211350  0.03595429  1
  O2-  O201  1  0.11734398  0.54576215  0.53032009  1
  O2-  O202  1  0.10705614  0.87027402  0.04225736  1
  O2-  O203  1  0.11177838  0.90269642  0.51743307  1
  O2-  O204  1  0.44611893  0.21433379  -0.07125235  1
  O2-  O205  1  0.40461812  0.24283468  0.53369043  1
  O2-  O206  1  0.42986192  0.54349480  0.03080727  1
  O2-  O207  1  0.40510163  0.56128742  0.53731942  1
  O2-  O208  1  0.44167815  0.88256452  0.02786727  1
  O2-  O209  1  0.47974051  0.90908161  0.51963622  1
  O2-  O210  1  0.76346605  0.18694872  0.02991683  1
  O2-  O211  1  0.77648778  0.22829383  0.54563125  1
  O2-  O212  1  0.78209505  0.58637626  0.04389798  1
  O2-  O213  1  0.79790465  0.56453911  0.52257809  1
  O2-  O214  1  0.78932522  0.90354474  0.05413156  1
  O2-  O215  1  0.76606064  0.87154068  0.53175808  1
