# generated using pymatgen
data_H2O
_symmetry_space_group_name_H-M   'P 1'
_cell_length_a   13.53063945
_cell_length_b   13.51433655
_cell_length_c   14.68421554
_cell_angle_alpha   90.00725452
_cell_angle_beta   89.97963090
_cell_angle_gamma   120.01153517
_symmetry_Int_Tables_number   1
_chemical_formula_structural   H2O
_chemical_formula_sum   'H144 O72'
_cell_volume   2325.11219170
_cell_formula_units_Z   72
loop_
 _symmetry_equiv_pos_site_id
 _symmetry_equiv_pos_as_xyz
  1  'x, y, z'
loop_
 _atom_type_symbol
 _atom_type_oxidation_number
  H+  1.0
  O2-  -2.0
loop_
 _atom_site_type_symbol
 _atom_site_label
 _atom_site_symmetry_multiplicity
 _atom_site_fract_x
 _atom_site_fract_y
 _atom_site_fract_z
 _atom_site_occupancy
  H+  H0  1  0.11543353  0.24038172  0.65884924  1
  H+  H1  1  0.17089077  0.53914651  0.23579293  1
  H+  H2  1  0.65253847  0.49457128  0.76161634  1
  H+  H3  1  0.16002666  0.08716240  0.98154429  1
  H+  H4  1  0.13191427  0.64963482  0.73410195  1
  H+  H5  1  0.49194354  1.01760118  0.48651713  1
  H+  H6  1  -0.04077938  0.49880927  0.76526039  1
  H+  H7  1  0.14979203  0.51399099  0.49953099  1
  H+  H8  1  0.55290807  0.38857049  0.01281462  1
  H+  H9  1  0.51674401  0.80571211  0.47697839  1
  H+  H10  1  0.79246933  0.28704854  0.46230508  1
  H+  H11  1  0.83217324  -0.02061365  1.00610144  1
  H+  H12  1  0.24109336  0.28111915  0.68045525  1
  H+  H13  1  0.81905122  0.64222307  0.73740083  1
  H+  H14  1  0.11604357  0.57069286  0.15738684  1
  H+  H15  1  0.14494327  0.81999233  0.75748295  1
  H+  H16  1  0.13578843  0.81182757  0.01109123  1
  H+  H17  1  0.82193300  0.52505580  0.74355509  1
  H+  H18  1  0.52302474  0.48847725  1.02475262  1
  H+  H19  1  0.21881569  0.38240898  0.77616147  1
  H+  H20  1  0.11311241  0.18512125  0.52184214  1
  H+  H21  1  0.12492344  0.52895527  0.74211251  1
  H+  H22  1  0.15889887  0.51815085  1.01878947  1
  H+  H23  1  0.47091989  0.28637700  0.51584444  1
  H+  H24  1  -0.00581733  0.17839219  0.01342776  1
  H+  H25  1  0.03481637  0.19601652  0.25223660  1
  H+  H26  1  0.25622071  0.51324366  0.79771723  1
  H+  H27  1  0.23694617  0.80048978  0.41389131  1
  H+  H28  1  0.46426747  0.16599560  0.74467729  1
  H+  H29  1  0.83764196  0.81910121  0.26787244  1
  H+  H30  1  -0.02530456  0.48658573  -0.00023848  1
  H+  H31  1  0.87770571  0.43443324  0.35624348  1
  H+  H32  1  0.84571857  0.69700493  0.99040613  1
  H+  H33  1  0.34299090  0.14704772  1.01407401  1
  H+  H34  1  0.64111106  0.81898400  0.99403097  1
  H+  H35  1  0.70463034  0.84946581  0.73812705  1
  H+  H36  1  0.53125235  0.03881267  0.76494752  1
  H+  H37  1  0.82011696  0.13625843  0.46749397  1
  H+  H38  1  0.31974851  0.85097732  0.27685050  1
  H+  H39  1  0.52638067  0.15888731  0.00048899  1
  H+  H40  1  0.18384338  0.70031129  0.49141419  1
  H+  H41  1  0.13534771  -0.03643560  0.74338904  1
  H+  H42  1  0.35676102  0.50604570  0.05361303  1
  H+  H43  1  0.67031262  0.17127356  0.46343289  1
  H+  H44  1  -0.03053165  0.48083496  0.48009689  1
  H+  H45  1  0.52291371  0.49266133  0.24244100  1
  H+  H46  1  0.44425521  0.55088421  0.59131394  1
  H+  H47  1  0.18425593  0.36647546  0.02923890  1
  H+  H48  1  0.79164565  0.90143539  0.14626779  1
  H+  H49  1  0.99431743  0.18165398  0.52257354  1
  H+  H50  1  0.84014393  0.02326583  0.76195361  1
  H+  H51  1  0.69963158  0.20003882  0.78183183  1
  H+  H52  1  0.81718624  0.19818880  0.78251429  1
  H+  H53  1  0.87743533  0.72363796  0.49780236  1
  H+  H54  1  0.83067954  0.02305041  0.49013809  1
  H+  H55  1  0.95894066  0.81732086  0.75862320  1
  H+  H56  1  0.70312780  0.51016847  0.24014907  1
  H+  H57  1  0.19860469  0.37323048  0.25400446  1
  H+  H58  1  0.81184697  0.18303696  0.24570215  1
  H+  H59  1  0.14219927  0.93025507  0.00813821  1
  H+  H60  1  0.62709442  0.37456469  0.43220020  1
  H+  H61  1  0.72429108  0.53234475  0.50694842  1
  H+  H62  1  0.29629104  0.13291161  0.76024469  1
  H+  H63  1  0.05334866  -0.13274090  0.51734149  1
  H+  H64  1  0.92327874  0.13372594  0.91876981  1
  H+  H65  1  0.48748318  0.85171072  1.00452852  1
  H+  H66  1  0.30734654  0.81807137  0.98238761  1
  H+  H67  1  0.82389322  0.85613423  0.00053865  1
  H+  H68  1  0.71459201  0.52813682  0.01874074  1
  H+  H69  1  0.26141643  0.82539760  0.74076698  1
  H+  H70  1  0.16162266  0.22107884  0.03961036  1
  H+  H71  1  0.82527830  0.85409180  0.50727189  1
  H+  H72  1  0.16367634  0.85321384  0.52693257  1
  H+  H73  1  0.40221891  0.52160593  0.74482800  1
  H+  H74  1  0.48977006  -0.02836104  1.00183744  1
  H+  H75  1  0.36670028  0.51301880  0.20180609  1
  H+  H76  1  0.84515899  0.37882407  0.78824021  1
  H+  H77  1  0.12927540  0.94601680  0.23796974  1
  H+  H78  1  0.17024217  0.36934439  0.48654794  1
  H+  H79  1  0.83389726  0.47443590  0.25888837  1
  H+  H80  1  0.45297322  0.16136973  0.51240069  1
  H+  H81  1  0.16497659  0.14656526  0.25858635  1
  H+  H82  1  0.49767393  0.16662705  0.26343650  1
  H+  H83  1  0.90023459  0.79669426  0.40849551  1
  H+  H84  1  0.52036042  0.52747485  0.73823816  1
  H+  H85  1  0.53420100  0.69416891  0.75873140  1
  H+  H86  1  0.64523252  0.15980837  -0.00450125  1
  H+  H87  1  0.25339724  0.23982025  0.43684211  1
  H+  H88  1  0.47753034  -0.01318987  0.23321941  1
  H+  H89  1  0.52641540  0.85625292  0.74077399  1
  H+  H90  1  0.71066568  0.85459536  0.23354303  1
  H+  H91  1  0.47414173  0.62319395  0.50026267  1
  H+  H92  1  0.28442890  0.16409262  0.49475058  1
  H+  H93  1  0.82221094  0.85169907  0.73690879  1
  H+  H94  1  0.85399315  0.04021649  0.25548824  1
  H+  H95  1  0.85859762  0.49479714  0.48640015  1
  H+  H96  1  0.40187150  0.27659234  0.02630834  1
  H+  H97  1  0.51617104  0.10020074  0.39972354  1
  H+  H98  1  0.82700045  0.18946563  1.01576859  1
  H+  H99  1  0.19327117  0.83514523  0.27830944  1
  H+  H100  1  0.86425830  0.71701488  0.26947010  1
  H+  H101  1  0.82677120  0.34209755  0.26297123  1
  H+  H102  1  0.53227081  0.69638466  0.23682534  1
  H+  H103  1  0.15632431  0.63426110  1.00399249  1
  H+  H104  1  0.83057134  0.52115106  0.01652710  1
  H+  H105  1  0.63288869  0.80366488  0.48166635  1
  H+  H106  1  0.36455306  0.83828681  0.51100522  1
  H+  H107  1  0.61679573  0.16493940  0.26507223  1
  H+  H108  1  0.54960596  0.11188277  0.85618502  1
  H+  H109  1  0.50312917  0.36807082  0.25661660  1
  H+  H110  1  0.56520014  0.75964233  0.33337471  1
  H+  H111  1  0.57699402  0.46650580  0.85176585  1
  H+  H112  1  0.44082269  0.90214803  0.14900356  1
  H+  H113  1  0.86273687  0.28082270  0.62137200  1
  H+  H114  1  0.19806410  0.10011346  0.34562287  1
  H+  H115  1  0.10406351  0.88747471  0.64874969  1
  H+  H116  1  0.09801220  0.86051626  0.15580686  1
  H+  H117  1  0.88576484  0.10968772  0.34911150  1
  H+  H118  1  0.41487815  0.21730223  0.16245779  1
  H+  H119  1  0.52447884  0.70158098  1.00979925  1
  H+  H120  1  0.56474676  0.76831087  0.85248672  1
  H+  H121  1  0.29637885  0.48181291  0.48960858  1
  H+  H122  1  0.82275061  0.30582430  0.01351091  1
  H+  H123  1  0.82314516  0.21739457  0.62204031  1
  H+  H124  1  0.11197089  0.24047032  0.16114459  1
  H+  H125  1  0.77517482  0.88474949  0.59421358  1
  H+  H126  1  0.79673473  0.56794845  0.59878210  1
  H+  H127  1  0.22092138  0.77850062  0.89633897  1
  H+  H128  1  0.21779246  0.07590685  0.89165000  1
  H+  H129  1  0.41827887  0.19859628  0.65506580  1
  H+  H130  1  0.18100282  0.14174282  0.77280290  1
  H+  H131  1  0.57019825  0.44069331  0.39511262  1
  H+  H132  1  0.45950883  0.88444118  0.59029095  1
  H+  H133  1  0.96515701  0.80822376  0.98691995  1
  H+  H134  1  0.78957283  0.55162371  0.15530172  1
  H+  H135  1  0.33674500  0.17998824  0.25144777  1
  H+  H136  1  0.41159918  0.85288829  0.74849069  1
  H+  H137  1  0.89296878  0.45600518  0.91308413  1
  H+  H138  1  0.77320154  0.22165141  0.15533675  1
  H+  H139  1  0.78508819  0.04824654  0.84336733  1
  H+  H140  1  0.10363534  0.55146093  0.58707172  1
  H+  H141  1  0.25468699  0.45033007  0.94152999  1
  H+  H142  1  0.25284082  0.46431248  0.33291632  1
  H+  H143  1  0.87980442  0.77522632  0.84874489  1
  O2-  O144  1  0.11574244  0.23313673  0.23076461  1
  O2-  O145  1  0.16945968  0.25934901  0.71206380  1
  O2-  O146  1  0.12046573  0.57036120  0.22412850  1
  O2-  O147  1  0.09207585  0.56861442  0.71015333  1
  O2-  O148  1  0.09677862  0.86447701  0.22292496  1
  O2-  O149  1  0.09141881  0.88325719  0.71994659  1
  O2-  O150  1  0.41882816  0.22684901  0.22947311  1
  O2-  O151  1  0.41168565  0.19220242  0.72261610  1
  O2-  O152  1  0.44855779  0.55251993  0.17609749  1
  O2-  O153  1  0.47664077  0.56614170  0.71412688  1
  O2-  O154  1  0.44269853  0.90546982  0.21585619  1
  O2-  O155  1  0.48555362  0.89784555  0.71941213  1
  O2-  O156  1  0.76883147  0.22137405  0.22332165  1
  O2-  O157  1  0.78332344  0.24732797  0.79136677  1
  O2-  O158  1  0.78475334  0.54249729  0.22334185  1
  O2-  O159  1  0.78306771  0.56267745  0.71220181  1
  O2-  O160  1  0.79302569  0.90492468  0.21373532  1
  O2-  O161  1  0.78361724  0.89355344  0.71275934  1
  O2-  O162  1  0.20219910  0.10109917  0.27837385  1
  O2-  O163  1  0.21369477  0.09307082  0.78916429  1
  O2-  O164  1  0.25299337  0.45659185  0.26589369  1
  O2-  O165  1  0.27042464  0.45164064  0.81333102  1
  O2-  O166  1  0.25406004  0.83600222  0.31694658  1
  O2-  O167  1  0.19213585  0.78046077  0.77594302  1
  O2-  O168  1  0.53642218  0.12470278  0.28563686  1
  O2-  O169  1  0.55171002  0.11558925  0.78821349  1
  O2-  O170  1  0.55501988  0.45002884  0.27367043  1
  O2-  O171  1  0.57275215  0.46073068  0.78525201  1
  O2-  O172  1  0.58168980  0.76939105  0.26719589  1
  O2-  O173  1  0.57081366  0.77452679  0.78480111  1
  O2-  O174  1  0.88895398  0.11970939  0.28142788  1
  O2-  O175  1  0.85232862  0.08719114  0.80442160  1
  O2-  O176  1  0.86773943  0.42581902  0.28609455  1
  O2-  O177  1  0.88520876  0.46525468  0.79769540  1
  O2-  O178  1  0.84798794  0.76573155  0.30812959  1
  O2-  O179  1  0.87760070  0.77597741  0.78032222  1
  O2-  O180  1  0.21830242  0.16325680  0.46286625  1
  O2-  O181  1  0.21593139  0.06626823  0.96160136  1
  O2-  O182  1  0.21760872  0.44670280  0.46058850  1
  O2-  O183  1  0.24400900  0.45450835  1.00753545  1
  O2-  O184  1  0.23070357  0.78428408  0.48364710  1
  O2-  O185  1  0.22514775  0.77217570  0.96314395  1
  O2-  O186  1  0.51945603  0.09878901  0.46789832  1
  O2-  O187  1  0.56336293  0.11910883  0.97373082  1
  O2-  O188  1  0.59057378  0.41697155  0.45316781  1
  O2-  O189  1  0.56885742  0.46240330  0.98877904  1
  O2-  O190  1  0.55366857  0.76158284  0.45678115  1
  O2-  O191  1  0.55918501  0.77319999  0.97412220  1
  O2-  O192  1  0.87315146  0.10401434  0.46787351  1
  O2-  O193  1  0.91349255  0.12946678  0.98540261  1
  O2-  O194  1  0.88804851  0.44633299  0.45884500  1
  O2-  O195  1  0.89184571  0.44793452  0.98096722  1
  O2-  O196  1  0.91448018  0.80415492  0.47677383  1
  O2-  O197  1  0.88475824  0.77585277  0.96382264  1
  O2-  O198  1  0.11419234  0.25362839  0.05549929  1
  O2-  O199  1  0.07481031  0.22497724  0.54795623  1
  O2-  O200  1  0.11129218  0.55468409  0.02746623  1
  O2-  O201  1  0.10382446  0.55007465  0.51984746  1
  O2-  O202  1  0.09389079  0.85147826  0.03150872  1
  O2-  O203  1  0.12714818  0.89683797  0.55064619  1
  O2-  O204  1  0.41398290  0.21276293  0.04063404  1
  O2-  O205  1  0.41855141  0.20754697  0.53702567  1
  O2-  O206  1  0.44415932  0.54704004  0.07502027  1
  O2-  O207  1  0.42699906  0.54437665  0.52546176  1
  O2-  O208  1  0.44312941  0.88999024  0.01973912  1
  O2-  O209  1  0.44991912  0.88118882  0.52369097  1
  O2-  O210  1  0.78045374  0.22454825  0.03532163  1
  O2-  O211  1  0.75165091  0.20574825  0.44523953  1
  O2-  O212  1  0.79458686  0.56589991  0.04075210  1
  O2-  O213  1  0.80346161  0.57294727  0.53034055  1
  O2-  O214  1  0.78351366  0.89686373  0.02197529  1
  O2-  O215  1  0.77325641  0.88361862  0.52631020  1
