# generated using pymatgen
data_H2O
_symmetry_space_group_name_H-M   'P 1'
_cell_length_a   13.51761488
_cell_length_b   13.51990934
_cell_length_c   14.69396355
_cell_angle_alpha   89.97986565
_cell_angle_beta   90.00403707
_cell_angle_gamma   119.98820050
_symmetry_Int_Tables_number   1
_chemical_formula_structural   H2O
_chemical_formula_sum   'H144 O72'
_cell_volume   2325.92139378
_cell_formula_units_Z   72
loop_
 _symmetry_equiv_pos_site_id
 _symmetry_equiv_pos_as_xyz
  1  'x, y, z'
loop_
 _atom_type_symbol
 _atom_type_oxidation_number
  H+  1.0
  O2-  -2.0
loop_
 _atom_site_type_symbol
 _atom_site_label
 _atom_site_symmetry_multiplicity
 _atom_site_fract_x
 _atom_site_fract_y
 _atom_site_fract_z
 _atom_site_occupancy
  H+  H0  1  0.51288425  0.14007417  0.98668308  1
  H+  H1  1  0.48332614  0.30083712  0.72264143  1
  H+  H2  1  0.21589506  0.83230105  0.97234012  1
  H+  H3  1  0.19500000  0.15966662  0.48684022  1
  H+  H4  1  0.23833376  0.43881605  0.34789669  1
  H+  H5  1  0.81247939  0.29648612  1.01737474  1
  H+  H6  1  0.97542198  0.55095193  0.28214877  1
  H+  H7  1  0.29205883  0.83251294  0.52642608  1
  H+  H8  1  0.64436296  0.15200022  0.75079570  1
  H+  H9  1  0.51227653  0.03236377  0.48613893  1
  H+  H10  1  0.80144904  0.51292807  0.50060259  1
  H+  H11  1  0.82000415  0.96075398  0.49939915  1
  H+  H12  1  0.31805834  0.82307543  0.74758328  1
  H+  H13  1  0.16032862  0.29772039  0.01067153  1
  H+  H14  1  0.47837589  0.64279924  0.73474362  1
  H+  H15  1  0.48109828  0.96183630  0.23514743  1
  H+  H16  1  0.51814852  0.81194812  0.97814908  1
  H+  H17  1  0.18417646  0.81734071  0.26887038  1
  H+  H18  1  0.44782142  0.88372356  0.09582704  1
  H+  H19  1  0.08722736  0.79619888  0.05747221  1
  H+  H20  1  0.35916264  0.16815668  0.01584242  1
  H+  H21  1  0.49967273  0.49380046  0.72403371  1
  H+  H22  1  1.02470444  0.85454215  1.01018560  1
  H+  H23  1  0.03273248  0.17443532  0.24203479  1
  H+  H24  1  0.68945147  0.52306752  0.50443161  1
  H+  H25  1  0.85034243  0.93285611  0.71440148  1
  H+  H26  1  0.16175937  0.63852209  1.00931563  1
  H+  H27  1  0.85777406  0.78613188  0.73718198  1
  H+  H28  1  0.47670966  0.85534303  0.50352332  1
  H+  H29  1  0.19646285  0.04162827  0.76011018  1
  H+  H30  1  0.77402323  0.29407064  0.68926009  1
  H+  H31  1  0.50790683  0.35700023  0.25710322  1
  H+  H32  1  0.32384802  0.81749637  0.98619095  1
  H+  H33  1  0.49058326  0.63883495  0.23297827  1
  H+  H34  1  0.37021112  0.18188055  0.73607965  1
  H+  H35  1  0.81516432  0.51307659  0.02120617  1
  H+  H36  1  0.04202826  0.52473701  0.74798974  1
  H+  H37  1  0.36808151  0.52278190  0.50018116  1
  H+  H38  1  0.63872294  0.80940288  0.75298131  1
  H+  H39  1  0.19036712  0.70315101  0.26431672  1
  H+  H40  1  0.36140298  0.84497676  0.23546739  1
  H+  H41  1  0.05784535  0.85503212  0.72777153  1
  H+  H42  1  0.14371377  -0.03103388  0.26291250  1
  H+  H43  1  0.81298457  0.85431826  1.00636358  1
  H+  H44  1  0.15151461  0.18558026  0.74682090  1
  H+  H45  1  0.86098295  0.55384835  0.27997157  1
  H+  H46  1  0.49745162  0.97412725  0.73731872  1
  H+  H47  1  0.89541079  0.09799169  0.40175531  1
  H+  H48  1  0.69302670  0.17854425  1.00890107  1
  H+  H49  1  0.49720707  0.85464415  0.73473414  1
  H+  H50  1  0.48983463  0.96359740  0.00587000  1
  H+  H51  1  0.16128190  0.63799623  0.73523174  1
  H+  H52  1  0.31754746  0.47722416  0.25753257  1
  H+  H53  1  0.80166684  -0.03476065  1.00634485  1
  H+  H54  1  0.77224626  0.56217862  0.14928833  1
  H+  H55  1  0.85986337  0.67276038  0.75602553  1
  H+  H56  1  0.18846862  0.48502167  0.47307358  1
  H+  H57  1  0.15275102  0.29329607  0.24252960  1
  H+  H58  1  0.05811372  0.48525788  0.23400448  1
  H+  H59  1  0.49279374  0.51835766  0.23400335  1
  H+  H60  1  0.17826156  0.86374360  0.73681466  1
  H+  H61  1  0.18129927  0.48844586  0.76192235  1
  H+  H62  1  0.18676456  0.48924154  -0.00946029  1
  H+  H63  1  0.69375127  0.84540304  0.49545505  1
  H+  H64  1  0.62910748  0.81448924  0.25285672  1
  H+  H65  1  0.48192183  0.17495429  0.24191776  1
  H+  H66  1  0.45300693  0.22241531  0.59028205  1
  H+  H67  1  0.18489837  0.14661955  0.26049130  1
  H+  H68  1  0.34059185  0.49582504  0.00934590  1
  H+  H69  1  0.82632856  0.27516433  0.24159316  1
  H+  H70  1  0.85208017  0.13367809  0.49119246  1
  H+  H71  1  0.63028731  0.13603522  0.25441982  1
  H+  H72  1  0.51630664  0.70704149  0.48394208  1
  H+  H73  1  1.05648627  0.51830438  0.52993835  1
  H+  H74  1  0.18801316  0.15134190  0.99783654  1
  H+  H75  1  0.11706260  0.22568063  0.60005157  1
  H+  H76  1  0.31249333  0.15981053  0.48267406  1
  H+  H77  1  0.88775866  0.36171808  0.26322734  1
  H+  H78  1  1.03352496  0.18905090  0.74206735  1
  H+  H79  1  0.18476575  0.03031151  0.99825867  1
  H+  H80  1  0.85267440  0.01660704  0.26108875  1
  H+  H81  1  0.69474777  0.50687370  0.02432117  1
  H+  H82  1  0.86338053  0.36588221  0.78237284  1
  H+  H83  1  0.89074917  0.44957567  0.91669360  1
  H+  H84  1  0.23229727  0.11602283  0.85165422  1
  H+  H85  1  0.81546540  0.27580691  0.50851795  1
  H+  H86  1  0.56203741  0.77914938  0.84472075  1
  H+  H87  1  0.18901181  0.36649379  0.48856541  1
  H+  H88  1  0.84656336  0.12982740  0.26060633  1
  H+  H89  1  0.69146489  0.50349468  0.72646895  1
  H+  H90  1  0.51428947  0.48988130  0.48741131  1
  H+  H91  1  0.80847645  0.84097520  0.23890987  1
  H+  H92  1  0.35652684  0.52399776  0.73509040  1
  H+  H93  1  0.49638354  0.33478040  0.01638833  1
  H+  H94  1  0.49705447  0.19065091  0.49987566  1
  H+  H95  1  0.68678094  0.51938424  0.23741381  1
  H+  H96  1  0.14957309  0.63788064  0.49704057  1
  H+  H97  1  0.83040317  1.05996303  0.75448424  1
  H+  H98  1  0.83974639  0.69856271  0.25932610  1
  H+  H99  1  0.18378729  0.36993093  0.76265607  1
  H+  H100  1  0.63536117  0.81323809  0.98063584  1
  H+  H101  1  1.03843503  0.18022309  0.51129995  1
  H+  H102  1  0.84550717  0.47223220  0.76524782  1
  H+  H103  1  0.84719401  0.18207629  0.74628358  1
  H+  H104  1  0.96961524  0.48467692  1.00430937  1
  H+  H105  1  0.46229082  0.48326446  1.01874105  1
  H+  H106  1  0.83449996  0.68616090  0.48405378  1
  H+  H107  1  0.83267749  0.81105603  0.48075673  1
  H+  H108  1  0.95984825  0.92882638  0.91457611  1
  H+  H109  1  0.55837352  0.10700674  0.89630296  1
  H+  H110  1  0.91373064  0.80480400  0.87734448  1
  H+  H111  1  0.83044274  0.13738051  -0.01174404  1
  H+  H112  1  0.55211600  0.41895336  0.93344677  1
  H+  H113  1  0.15264687  0.87566248  0.58919721  1
  H+  H114  1  0.52870073  0.45037007  0.81135836  1
  H+  H115  1  0.12979801  0.56109550  0.10001961  1
  H+  H116  1  0.24218103  0.78055934  0.83758536  1
  H+  H117  1  0.87499728  0.76823212  0.38507113  1
  H+  H118  1  0.50858525  0.81198603  0.25141496  1
  H+  H119  1  0.45172190  0.89862490  0.59702049  1
  H+  H120  1  0.22854539  0.11463205  0.35290187  1
  H+  H121  1  0.96352620  0.81780583  0.26970479  1
  H+  H122  1  0.44291737  0.56756129  0.59040973  1
  H+  H123  1  0.18426605  0.51564629  0.24072096  1
  H+  H124  1  0.77625457  0.54189099  0.64299535  1
  H+  H125  1  0.09805362  0.89199679  0.17452362  1
  H+  H126  1  0.76798753  0.19292037  0.15025679  1
  H+  H127  1  0.12148208  0.21957350  0.09992382  1
  H+  H128  1  0.51822130  0.37162453  0.48891024  1
  H+  H129  1  0.43232631  0.54224300  0.10764428  1
  H+  H130  1  0.86903568  0.10705003  0.89576082  1
  H+  H131  1  0.63785695  0.14037427  0.48538814  1
  H+  H132  1  0.55243225  0.10291947  0.34381644  1
  H+  H133  1  0.36162082  0.17348174  0.24388767  1
  H+  H134  1  0.75164841  0.36141442  0.42500260  1
  H+  H135  1  0.54723377  0.44006625  0.34464759  1
  H+  H136  1  0.77786047  0.86335878  0.63005128  1
  H+  H137  1  0.22733681  0.45068196  0.89932191  1
  H+  H138  1  0.87241103  0.46365978  0.40124905  1
  H+  H139  1  0.52354213  0.14838057  0.75537741  1
  H+  H140  1  0.77249881  0.19727772  0.59864011  1
  H+  H141  1  0.55343904  0.78389219  0.39432256  1
  H+  H142  1  0.77192728  0.88388101  0.14892197  1
  H+  H143  1  0.43800107  0.20368636  0.10695027  1
  O2-  O144  1  0.11289136  0.21385206  0.21829437  1
  O2-  O145  1  0.11443397  0.22758688  0.72142752  1
  O2-  O146  1  0.13465442  0.54744136  0.21796872  1
  O2-  O147  1  0.11892892  0.55471017  0.72166580  1
  O2-  O148  1  0.09753653  0.88667745  0.24151647  1
  O2-  O149  1  0.13915377  0.90483613  0.71207050  1
  O2-  O150  1  0.44199931  0.21600910  0.21913156  1
  O2-  O151  1  0.44877169  0.21827588  0.70933190  1
  O2-  O152  1  0.45194882  0.55763786  0.20892880  1
  O2-  O153  1  0.43526711  0.56391011  0.70757914  1
  O2-  O154  1  0.44225860  0.88195707  0.21082224  1
  O2-  O155  1  0.45669604  0.89448408  0.71164065  1
  O2-  O156  1  0.76826037  0.18842559  0.21862208  1
  O2-  O157  1  0.76619095  0.22024054  0.70360646  1
  O2-  O158  1  0.76784853  0.56880208  0.21819889  1
  O2-  O159  1  0.77295699  0.53337395  0.71077914  1
  O2-  O160  1  0.76919013  0.88237731  0.21735556  1
  O2-  O161  1  0.78617834  0.85843682  0.69813337  1
  O2-  O162  1  0.22549468  0.10674876  0.28331976  1
  O2-  O163  1  0.23314728  0.12162943  0.78392846  1
  O2-  O164  1  0.23687406  0.43762508  0.27919193  1
  O2-  O165  1  0.22479014  0.45010772  0.78597098  1
  O2-  O166  1  0.23377697  0.78430479  0.28084962  1
  O2-  O167  1  0.23724325  0.78443394  0.77046989  1
  O2-  O168  1  0.54897647  0.10127502  0.27566907  1
  O2-  O169  1  0.56387865  0.10939991  0.77947773  1
  O2-  O170  1  0.54681597  0.43914394  0.27659690  1
  O2-  O171  1  0.53984799  0.45086561  0.74600254  1
  O2-  O172  1  0.54819367  0.77076840  0.27514066  1
  O2-  O173  1  0.55952346  0.77744882  0.77454424  1
  O2-  O174  1  0.89340868  0.09688882  0.28482355  1
  O2-  O175  1  0.88571611  0.13810690  0.77139203  1
  O2-  O176  1  0.92319682  0.56051078  0.32163583  1
  O2-  O177  1  0.89394237  0.44690201  0.79792668  1
  O2-  O178  1  0.87969810  0.77704294  0.28818510  1
  O2-  O179  1  0.90249508  0.75649171  0.76917299  1
  O2-  O180  1  0.23307387  0.12046985  0.45936734  1
  O2-  O181  1  0.22688959  0.10775759  0.97297450  1
  O2-  O182  1  0.23249629  0.44459542  0.46096618  1
  O2-  O183  1  0.22914099  0.45025295  0.96835587  1
  O2-  O184  1  0.20943785  0.78075237  0.54195376  1
  O2-  O185  1  0.24230085  0.77815819  0.96058339  1
  O2-  O186  1  0.55902049  0.11202869  0.46132880  1
  O2-  O187  1  0.55599557  0.10293799  0.96468361  1
  O2-  O188  1  0.55717597  0.45202921  0.46455818  1
  O2-  O189  1  0.53540555  0.42022919  0.99760986  1
  O2-  O190  1  0.55783211  0.78825829  0.46236468  1
  O2-  O191  1  0.55891943  0.77533867  0.95081354  1
  O2-  O192  1  0.89477549  0.09458095  0.47012704  1
  O2-  O193  1  0.85808505  0.08815530  0.96111986  1
  O2-  O194  1  0.82530839  0.41171098  0.45341634  1
  O2-  O195  1  0.88838792  0.44456232  0.98447424  1
  O2-  O196  1  0.87249784  0.76762253  0.45765781  1
  O2-  O197  1  0.92817059  0.85010443  0.93529954  1
  O2-  O198  1  0.13077276  0.21908063  0.03265651  1
  O2-  O199  1  0.11897799  0.22781712  0.53220549  1
  O2-  O200  1  0.12066762  0.55845739  0.03237856  1
  O2-  O201  1  0.11356545  0.55529628  0.48235985  1
  O2-  O202  1  0.09310468  0.87037873  0.04816116  1
  O2-  O203  1  0.15480336  0.84927913  0.52613655  1
  O2-  O204  1  0.44059031  0.20755013  0.03813270  1
  O2-  O205  1  0.45902193  0.23307827  0.52286560  1
  O2-  O206  1  0.42362758  0.52790290  0.03767205  1
  O2-  O207  1  0.44916493  0.56604109  0.52268608  1
  O2-  O208  1  0.44850355  0.88245676  0.02725537  1
  O2-  O209  1  0.44079872  0.89790405  0.52920708  1
  O2-  O210  1  0.77148217  0.21458763  0.03570938  1
  O2-  O211  1  0.77752823  0.19534653  0.52828996  1
  O2-  O212  1  0.77534958  0.55450321  0.04183589  1
  O2-  O213  1  0.77200206  0.56271174  0.52550589  1
  O2-  O214  1  0.76786817  0.88541616  0.03390180  1
  O2-  O215  1  0.77487782  0.87692332  0.51820946  1
