# generated using pymatgen
data_H2O
_symmetry_space_group_name_H-M   'P 1'
_cell_length_a   13.47293959
_cell_length_b   13.48836698
_cell_length_c   14.65574354
_cell_angle_alpha   90.04991908
_cell_angle_beta   90.01768741
_cell_angle_gamma   120.04056388
_symmetry_Int_Tables_number   1
_chemical_formula_structural   H2O
_chemical_formula_sum   'H144 O72'
_cell_volume   2305.59082982
_cell_formula_units_Z   72
loop_
 _symmetry_equiv_pos_site_id
 _symmetry_equiv_pos_as_xyz
  1  'x, y, z'
loop_
 _atom_type_symbol
 _atom_type_oxidation_number
  H+  1.0
  O2-  -2.0
loop_
 _atom_site_type_symbol
 _atom_site_label
 _atom_site_symmetry_multiplicity
 _atom_site_fract_x
 _atom_site_fract_y
 _atom_site_fract_z
 _atom_site_occupancy
  H+  H0  1  0.81895387  0.30105165  0.23831929  1
  H+  H1  1  0.14499004  0.30284880  0.73942431  1
  H+  H2  1  0.81033970  0.51251946  1.01287388  1
  H+  H3  1  0.20688844  0.07960874  0.39577768  1
  H+  H4  1  0.30701847  0.49161817  0.74765145  1
  H+  H5  1  0.15092656  0.52327512  0.74040463  1
  H+  H6  1  0.47811171  0.50958401  0.24584729  1
  H+  H7  1  0.54822319  0.44105954  0.35322333  1
  H+  H8  1  0.52083047  1.05127018  0.76873444  1
  H+  H9  1  0.68892938  0.51183488  0.51468928  1
  H+  H10  1  0.17647222  0.48751794  0.98344922  1
  H+  H11  1  -0.01651718  0.15620244  0.49841837  1
  H+  H12  1  0.47454164  0.62897482  0.51009304  1
  H+  H13  1  0.05107337  0.62604054  0.17666828  1
  H+  H14  1  0.95760914  0.47989715  0.49515676  1
  H+  H15  1  0.36911319  0.85487277  0.74800971  1
  H+  H16  1  0.16950262  -0.00026029  0.25995360  1
  H+  H17  1  0.14953532  0.83509561  0.52199127  1
  H+  H18  1  0.82132519  0.85249494  0.51418263  1
  H+  H19  1  0.51660570  0.69186562  0.26256273  1
  H+  H20  1  0.17451853  1.03447858  0.75803380  1
  H+  H21  1  0.76656292  0.54797243  0.10231982  1
  H+  H22  1  0.48137798  0.51015404  0.00634149  1
  H+  H23  1  0.18052858  0.69487170  0.99240690  1
  H+  H24  1  0.53058025  1.01752765  0.27009859  1
  H+  H25  1  0.35277696  0.51096589  0.51493610  1
  H+  H26  1  0.54993788  0.44016150  0.89579786  1
  H+  H27  1  0.85091921  0.36851149  -0.01031108  1
  H+  H28  1  0.70311440  0.84613768  0.74465082  1
  H+  H29  1  0.63025765  0.47888373  0.75903943  1
  H+  H30  1  0.14342394  0.62673099  0.51737838  1
  H+  H31  1  0.20818747  0.43362949  0.41739943  1
  H+  H32  1  0.79844810  0.84564335  0.02156302  1
  H+  H33  1  0.35391694  0.17880095  0.23717111  1
  H+  H34  1  0.18675297  0.71734715  0.27734279  1
  H+  H35  1  0.51657400  0.17570412  0.75801094  1
  H+  H36  1  0.81628252  0.18849809  0.74509287  1
  H+  H37  1  0.13953190  0.84198719  0.74710824  1
  H+  H38  1  0.85151305  0.03842174  0.76254148  1
  H+  H39  1  0.51273154  0.35959689  0.49998063  1
  H+  H40  1  0.48460733  0.83141394  0.23906549  1
  H+  H41  1  0.06922414  0.78268684  0.21936677  1
  H+  H42  1  0.38670372  0.19287570  0.74045373  1
  H+  H43  1  0.46907156  0.82011921  1.00706248  1
  H+  H44  1  0.82964377  0.19700424  0.00483392  1
  H+  H45  1  0.16611865  0.11652471  0.26317563  1
  H+  H46  1  0.51583036  0.35224280  0.75413211  1
  H+  H47  1  0.19304967  0.28278626  0.04869016  1
  H+  H48  1  0.18716834  0.82119270  1.00400174  1
  H+  H49  1  0.34006589  0.82250079  0.01133734  1
  H+  H50  1  0.17968702  0.47172529  0.26340376  1
  H+  H51  1  0.83498794  0.47979386  0.26676889  1
  H+  H52  1  0.84242508  0.69492093  0.49352114  1
  H+  H53  1  0.50508191  0.36565544  0.26091601  1
  H+  H54  1  0.63560111  0.81442393  0.26259940  1
  H+  H55  1  0.51985056  0.81841191  0.76176811  1
  H+  H56  1  0.68444082  0.85067873  1.02488653  1
  H+  H57  1  0.69822768  0.19250131  0.74354964  1
  H+  H58  1  0.53493143  0.17589829  0.98602035  1
  H+  H59  1  0.00657853  0.52626161  0.24654510  1
  H+  H60  1  1.02388542  0.50866321  1.00392496  1
  H+  H61  1  0.17469080  0.15242637  0.75949887  1
  H+  H62  1  0.10629613  0.22700860  0.64698693  1
  H+  H63  1  0.37090060  0.84294882  0.24472170  1
  H+  H64  1  0.62715477  0.47942051  0.98786768  1
  H+  H65  1  0.81162991  0.85262954  0.24643804  1
  H+  H66  1  0.70436624  0.17823412  0.51587744  1
  H+  H67  1  0.14419518  0.28135086  0.25102013  1
  H+  H68  1  0.50586719  0.47554239  0.49699351  1
  H+  H69  1  0.78517069  0.22513602  0.60351022  1
  H+  H70  1  0.84798157  0.37010235  0.76020838  1
  H+  H71  1  0.96840611  0.48915084  0.76144601  1
  H+  H72  1  -0.03678557  0.82161186  0.25662566  1
  H+  H73  1  0.37352690  0.17833759  0.52474023  1
  H+  H74  1  0.16829980  0.35451188  0.50966326  1
  H+  H75  1  0.20126354  0.84040500  0.27778198  1
  H+  H76  1  0.36253231  0.50990971  0.00666974  1
  H+  H77  1  0.30653985  0.81285226  0.51061765  1
  H+  H78  1  0.63589979  0.81592497  0.49540359  1
  H+  H79  1  0.44836306  0.55491226  0.65063894  1
  H+  H80  1  0.19012781  0.23246751  0.54111924  1
  H+  H81  1  0.50399207  0.68726432  0.98862459  1
  H+  H82  1  0.80976872  0.63525343  0.24363370  1
  H+  H83  1  0.82499282  0.52427790  0.74056490  1
  H+  H84  1  0.17715921  0.70182816  0.76333973  1
  H+  H85  1  0.82222864  0.68846545  0.99114477  1
  H+  H86  1  -0.03515108  0.80857645  0.49597674  1
  H+  H87  1  0.69055598  0.51569797  0.24603232  1
  H+  H88  1  0.48551315  0.51161514  0.74004895  1
  H+  H89  1  0.84603611  0.81847932  0.74643944  1
  H+  H90  1  0.64427952  0.13787074  0.26950479  1
  H+  H91  1  0.96933089  0.15792792  0.75447772  1
  H+  H92  1  0.48741323  0.30021938  0.00032377  1
  H+  H93  1  -0.02005301  0.16841440  -0.01081721  1
  H+  H94  1  -0.02104069  0.82008695  0.74517503  1
  H+  H95  1  0.84194359  0.02947558  0.26706804  1
  H+  H96  1  1.02040840  0.16700194  0.25296363  1
  H+  H97  1  0.21763533  0.78052950  0.85311475  1
  H+  H98  1  0.14773910  0.10900664  0.47693119  1
  H+  H99  1  0.84147080  0.35912234  0.49517787  1
  H+  H100  1  0.82517759  0.18565773  0.23931225  1
  H+  H101  1  0.29937384  0.47637066  0.26206747  1
  H+  H102  1  0.66413272  0.17852561  -0.01376136  1
  H+  H103  1  0.16791555  0.96077328  0.01551643  1
  H+  H104  1  0.84615126  0.68842543  0.74414822  1
  H+  H105  1  0.16079967  0.36671151  0.95927737  1
  H+  H106  1  0.48814807  0.84790424  0.51788686  1
  H+  H107  1  0.52286617  1.14788557  0.50234996  1
  H+  H108  1  0.82547030  0.97349410  0.51553222  1
  H+  H109  1  0.86369578  0.15471341  0.49876125  1
  H+  H110  1  0.76757749  0.89088355  0.15788488  1
  H+  H111  1  0.52015556  0.69884140  0.75856004  1
  H+  H112  1  0.43553791  0.22663936  0.15008273  1
  H+  H113  1  0.78178816  0.88952859  0.65384510  1
  H+  H114  1  0.88535011  0.78036520  0.34739142  1
  H+  H115  1  0.90323529  0.13661554  0.89773847  1
  H+  H116  1  0.13659282  0.50457364  0.51837591  1
  H+  H117  1  0.37577882  0.17441684  -0.00010934  1
  H+  H118  1  0.87768457  0.43974447  0.35516940  1
  H+  H119  1  0.43909011  0.54759372  0.15495062  1
  H+  H120  1  0.14537237  0.95195195  0.51349424  1
  H+  H121  1  0.45722438  0.22396218  0.61451411  1
  H+  H122  1  0.86909984  0.77098673  0.90601257  1
  H+  H123  1  0.22095070  0.10424102  0.89994412  1
  H+  H124  1  0.44987905  0.89242627  0.66081490  1
  H+  H125  1  0.88920598  0.11134601  0.35596531  1
  H+  H126  1  0.55707498  0.77613547  0.40584835  1
  H+  H127  1  0.23124086  0.78086484  0.42006389  1
  H+  H128  1  0.78028706  0.55885516  0.64908550  1
  H+  H129  1  0.10263528  0.54396991  0.09378610  1
  H+  H130  1  0.56339356  0.10228410  0.41532945  1
  H+  H131  1  0.10185557  0.55763533  0.65471942  1
  H+  H132  1  0.22999035  0.45940601  0.83671602  1
  H+  H133  1  0.48925847  0.96750273  0.52025589  1
  H+  H134  1  0.10386485  0.19801185  0.11757457  1
  H+  H135  1  0.80769296  0.51061624  0.51217317  1
  H+  H136  1  0.78201632  0.22601819  0.09769861  1
  H+  H137  1  0.57709183  0.14052098  0.88493611  1
  H+  H138  1  0.54552243  0.77155947  0.90051406  1
  H+  H139  1  0.43191806  0.86110991  0.10653348  1
  H+  H140  1  0.88827410  0.44986923  0.90048178  1
  H+  H141  1  0.18310026  0.13153508  -0.00424687  1
  H+  H142  1  0.12180950  0.88213804  0.10772739  1
  H+  H143  1  0.10273791  0.87823066  0.65210401  1
  O2-  O144  1  0.10149432  0.20085235  0.22901721  1
  O2-  O145  1  0.10312165  0.22192106  0.71868421  1
  O2-  O146  1  0.07924471  0.58412681  0.21252889  1
  O2-  O147  1  0.10652660  0.56207816  0.72328181  1
  O2-  O148  1  0.09638728  0.86420184  0.21906749  1
  O2-  O149  1  0.09482345  0.87755514  0.72120107  1
  O2-  O150  1  0.43023601  0.23876904  0.21571433  1
  O2-  O151  1  0.46671445  0.23104415  0.71953651  1
  O2-  O152  1  0.43586344  0.54889821  0.22279667  1
  O2-  O153  1  0.44992763  0.55773644  0.71909494  1
  O2-  O154  1  0.44480934  0.87115512  0.21148942  1
  O2-  O155  1  0.45095414  0.89440558  0.72930874  1
  O2-  O156  1  0.78301988  0.22232749  0.21254398  1
  O2-  O157  1  0.77968374  0.23228906  0.72136270  1
  O2-  O158  1  0.77148803  0.55332982  0.22297176  1
  O2-  O159  1  0.78693262  0.56780301  0.71784477  1
  O2-  O160  1  0.76928493  0.89276386  0.22795967  1
  O2-  O161  1  0.78454174  0.88408831  0.72251030  1
  O2-  O162  1  0.21053655  0.08007624  0.28403174  1
  O2-  O163  1  0.21523046  0.11260849  0.78367181  1
  O2-  O164  1  0.21833516  0.43191946  0.28601627  1
  O2-  O165  1  0.22543685  0.45542370  0.76920952  1
  O2-  O166  1  0.23804699  0.79578338  0.30070174  1
  O2-  O167  1  0.21600059  0.78336113  0.78510632  1
  O2-  O168  1  0.57108127  0.09131622  0.30244675  1
  O2-  O169  1  0.56211422  0.13238275  0.78882681  1
  O2-  O170  1  0.54995387  0.44680623  0.28527511  1
  O2-  O171  1  0.54990005  0.43621454  0.77981835  1
  O2-  O172  1  0.55378496  0.77203128  0.28609945  1
  O2-  O173  1  0.56152544  0.77873451  0.78383849  1
  O2-  O174  1  0.88711634  0.11176675  0.28764714  1
  O2-  O175  1  0.88875888  0.11997458  0.78036731  1
  O2-  O176  1  0.88050344  0.44301250  0.28651321  1
  O2-  O177  1  0.88677660  0.45137663  0.78328840  1
  O2-  O178  1  0.88072730  0.77889494  0.27966866  1
  O2-  O179  1  0.88927883  0.77551891  0.76562592  1
  O2-  O180  1  0.20218108  0.08223137  0.46490722  1
  O2-  O181  1  0.22993120  0.10165173  0.96788173  1
  O2-  O182  1  0.20914657  0.43982710  0.48452058  1
  O2-  O183  1  0.21766816  0.44828044  0.95746681  1
  O2-  O184  1  0.22516355  0.77204210  0.48770983  1
  O2-  O185  1  0.22705917  0.77662749  0.97430749  1
  O2-  O186  1  0.56269742  0.10518975  0.48408366  1
  O2-  O187  1  0.58216546  0.14178530  0.95856512  1
  O2-  O188  1  0.55075555  0.43958354  0.47488555  1
  O2-  O189  1  0.54629273  0.43892995  0.96459388  1
  O2-  O190  1  0.55470035  0.77490269  0.47410722  1
  O2-  O191  1  0.53614849  0.76879658  0.96866558  1
  O2-  O192  1  0.90225295  0.11295744  0.47514900  1
  O2-  O193  1  0.90537742  0.15144823  0.96449364  1
  O2-  O194  1  0.87696083  0.43986791  0.47145105  1
  O2-  O195  1  0.89164210  0.45071484  0.96901198  1
  O2-  O196  1  0.88506090  0.77614459  0.47224857  1
  O2-  O197  1  0.85263023  0.76872124  0.97098288  1
  O2-  O198  1  0.12087708  0.21023017  0.04953972  1
  O2-  O199  1  0.11924929  0.23534870  0.54424499  1
  O2-  O200  1  0.10652031  0.54674925  0.02644489  1
  O2-  O201  1  0.09560009  0.54618476  0.53903098  1
  O2-  O202  1  0.13528419  0.88178237  0.03946849  1
  O2-  O203  1  0.10523117  0.87332309  0.54162776  1
  O2-  O204  1  0.45682525  0.21939314  0.02207177  1
  O2-  O205  1  0.45438130  0.22185152  0.54317548  1
  O2-  O206  1  0.44146612  0.55057296  0.03157811  1
  O2-  O207  1  0.43560028  0.54897904  0.53390872  1
  O2-  O208  1  0.42607472  0.85879113  0.03602530  1
  O2-  O209  1  0.44707701  0.88627043  0.54342874  1
  O2-  O210  1  0.78279574  0.23246049  0.02907399  1
  O2-  O211  1  0.78695719  0.22289536  0.53524117  1
  O2-  O212  1  0.76312990  0.54586908  0.03417086  1
  O2-  O213  1  0.77080808  0.55390175  0.53652709  1
  O2-  O214  1  0.76189818  0.88610145  0.05112564  1
  O2-  O215  1  0.78166982  0.89272895  0.53908002  1
