# generated using pymatgen
data_H2O
_symmetry_space_group_name_H-M   'P 1'
_cell_length_a   13.51844179
_cell_length_b   13.50993285
_cell_length_c   14.67308782
_cell_angle_alpha   90.00077170
_cell_angle_beta   90.01945403
_cell_angle_gamma   120.01900684
_symmetry_Int_Tables_number   1
_chemical_formula_structural   H2O
_chemical_formula_sum   'H144 O72'
_cell_volume   2320.32451797
_cell_formula_units_Z   72
loop_
 _symmetry_equiv_pos_site_id
 _symmetry_equiv_pos_as_xyz
  1  'x, y, z'
loop_
 _atom_type_symbol
 _atom_type_oxidation_number
  H+  1.0
  O2-  -2.0
loop_
 _atom_site_type_symbol
 _atom_site_label
 _atom_site_symmetry_multiplicity
 _atom_site_fract_x
 _atom_site_fract_y
 _atom_site_fract_z
 _atom_site_occupancy
  H+  H0  1  0.81992615  0.84295009  0.50631419  1
  H+  H1  1  0.50578289  0.13408691  0.76131549  1
  H+  H2  1  0.76787452  0.89587112  0.65790552  1
  H+  H3  1  0.34509076  0.52431412  0.00965660  1
  H+  H4  1  0.30325082  0.47968108  0.49591460  1
  H+  H5  1  0.15001738  0.30109373  0.23555060  1
  H+  H6  1  0.61497654  0.11966913  0.75358653  1
  H+  H7  1  0.19350338  0.16006271  0.25155808  1
  H+  H8  1  0.29302897  0.47354208  0.26237105  1
  H+  H9  1  0.28323938  0.80121310  0.48169995  1
  H+  H10  1  0.46497517  0.92029238  0.56291197  1
  H+  H11  1  1.00737916  0.83303194  0.21584618  1
  H+  H12  1  0.81175100  0.82614217  -0.00492837  1
  H+  H13  1  0.15104657  0.30871597  0.00166495  1
  H+  H14  1  0.52558975  0.68702079  0.49104770  1
  H+  H15  1  0.12368144  0.63142069  0.93014271  1
  H+  H16  1  0.63504611  0.42975911  0.79189345  1
  H+  H17  1  0.68853965  0.81271182  1.00732532  1
  H+  H18  1  0.69440961  0.84187497  0.50214671  1
  H+  H19  1  0.49001750  0.51391039  0.50596828  1
  H+  H20  1  0.16972679  -0.04008583  0.74029300  1
  H+  H21  1  0.14051707  0.28988044  0.50979090  1
  H+  H22  1  0.56297146  0.36084697  0.54193546  1
  H+  H23  1  0.48091881  0.16257973  0.41303677  1
  H+  H24  1  0.84057492  0.36561722  -0.00241303  1
  H+  H25  1  0.81399333  0.17676106  0.75540149  1
  H+  H26  1  0.36777392  0.18796379  0.00605057  1
  H+  H27  1  0.18352613  0.13121690  0.74991596  1
  H+  H28  1  0.35949562  0.17110185  0.48035183  1
  H+  H29  1  0.50851443  0.19440912  0.22884549  1
  H+  H30  1  0.95193840  0.13835505  0.76683072  1
  H+  H31  1  0.16820034  0.48862490  0.96909156  1
  H+  H32  1  0.69284153  0.85103387  0.74802670  1
  H+  H33  1  0.84946981  0.04779426  0.24056374  1
  H+  H34  1  0.19528081  0.39997887  0.74011506  1
  H+  H35  1  0.51895904  0.80081780  0.48970101  1
  H+  H36  1  0.10575488  0.87101615  0.59700053  1
  H+  H37  1  0.69456191  0.19006094  0.46451912  1
  H+  H38  1  0.16005654  0.51311058  0.24113407  1
  H+  H39  1  0.12496021  0.82790014  0.75709147  1
  H+  H40  1  0.83755672  0.12842406  0.47424751  1
  H+  H41  1  0.72319474  0.58627648  0.74289550  1
  H+  H42  1  0.16846770  0.68408690  0.47845904  1
  H+  H43  1  0.87565815  0.50179845  0.25552827  1
  H+  H44  1  0.96018121  0.13642551  0.49589545  1
  H+  H45  1  0.49987756  0.63428892  0.74660026  1
  H+  H46  1  0.54364710  0.75632619  0.34208712  1
  H+  H47  1  0.03388937  0.18845348  0.00839313  1
  H+  H48  1  0.65776944  0.15679235  0.23892574  1
  H+  H49  1  0.18689097  0.67533996  0.75977353  1
  H+  H50  1  0.82396367  -0.01861145  0.50250347  1
  H+  H51  1  0.62321118  0.54719029  0.28585811  1
  H+  H52  1  0.44549889  0.93384345  0.75343088  1
  H+  H53  1  0.02324367  0.05490459  0.68734967  1
  H+  H54  1  0.85097812  0.49490933  0.49731368  1
  H+  H55  1  0.18620939  0.66246727  0.24550462  1
  H+  H56  1  0.88407688  0.72638192  0.81094424  1
  H+  H57  1  0.31875023  0.80536161  0.25017631  1
  H+  H58  1  0.51305046  0.14875351  0.98952221  1
  H+  H59  1  0.50024561  0.51545149  0.74369154  1
  H+  H60  1  0.49071629  0.96068434  0.22312700  1
  H+  H61  1  0.51022498  0.31368554  0.23762744  1
  H+  H62  1  0.46022349  0.36962647  0.46091171  1
  H+  H63  1  0.47221258  0.06040383  0.46702637  1
  H+  H64  1  0.04664940  0.52528885  0.23926785  1
  H+  H65  1  0.83048083  0.02783972  0.76933958  1
  H+  H66  1  0.46086079  0.49272122  0.24193359  1
  H+  H67  1  0.52859542  0.36710058  0.99438315  1
  H+  H68  1  0.69946374  0.18734717  0.01479813  1
  H+  H69  1  0.83038768  0.64386884  0.00257474  1
  H+  H70  1  0.82929134  0.31090716  0.24139953  1
  H+  H71  1  0.96323091  0.49376036  0.75701765  1
  H+  H72  1  0.46276866  0.61300784  0.24425756  1
  H+  H73  1  0.50798386  0.79709612  0.77447330  1
  H+  H74  1  0.01381307  0.48941101  0.74135766  1
  H+  H75  1  0.75692078  0.33880031  0.78460634  1
  H+  H76  1  0.64501802  0.48869262  0.99596800  1
  H+  H77  1  0.56408751  0.24516619  0.54122643  1
  H+  H78  1  0.23381277  0.59581585  0.72552530  1
  H+  H79  1  0.88948511  0.11538890  0.91616828  1
  H+  H80  1  0.15685836  -0.01289418  0.98568897  1
  H+  H81  1  0.55672593  0.76293033  0.85884417  1
  H+  H82  1  0.85152177  0.37763807  0.48642051  1
  H+  H83  1  0.83458893  0.69814611  0.49709691  1
  H+  H84  1  0.69260966  0.51946119  0.51822959  1
  H+  H85  1  0.50517187  0.79310907  0.25133294  1
  H+  H86  1  0.13057821  0.83040310  0.50142045  1
  H+  H87  1  0.83641238  0.69878671  0.25978249  1
  H+  H88  1  0.97088485  0.16373681  0.24347855  1
  H+  H89  1  0.83428362  0.19054234  0.23597815  1
  H+  H90  1  0.12105542  0.16048274  0.49401637  1
  H+  H91  1  0.13225746  0.00336951  0.47404896  1
  H+  H92  1  0.30928826  0.84383756  0.85449893  1
  H+  H93  1  0.49984985  0.69061638  0.99364274  1
  H+  H94  1  0.47743354  0.96786010  0.00423396  1
  H+  H95  1  0.48446231  0.29638164  0.76727699  1
  H+  H96  1  1.03491976  0.52104588  0.52485986  1
  H+  H97  1  0.32652905  0.49616007  0.75125877  1
  H+  H98  1  0.18582594  0.48089052  0.49838144  1
  H+  H99  1  0.36079280  0.84933797  -0.00716805  1
  H+  H100  1  0.71955658  0.50092404  0.22885331  1
  H+  H101  1  -0.00690543  0.83126546  -0.04221140  1
  H+  H102  1  0.16615234  0.87662047  -0.03628027  1
  H+  H103  1  0.80848276  0.87014887  0.23771686  1
  H+  H104  1  0.82538070  0.52332253  0.00925813  1
  H+  H105  1  0.34792929  0.19981322  0.51972663  1
  H+  H106  1  0.80117322  0.53332087  0.75182028  1
  H+  H107  1  0.51652474  0.81630579  -0.01509661  1
  H+  H108  1  0.08317464  0.17232194  0.63568170  1
  H+  H109  1  0.56336257  0.45472871  0.36622981  1
  H+  H110  1  0.21359975  0.43726411  0.35224535  1
  H+  H111  1  0.55235015  0.10347602  0.90338062  1
  H+  H112  1  0.42174235  0.55352713  0.09970162  1
  H+  H113  1  0.43818007  0.87632439  0.13871601  1
  H+  H114  1  0.48858508  0.24903339  0.67187609  1
  H+  H115  1  0.31307403  0.16450662  0.26124950  1
  H+  H116  1  0.44872112  0.22460898  0.09469330  1
  H+  H117  1  0.78088165  0.90010170  0.14242232  1
  H+  H118  1  0.08317440  0.86111957  0.12921489  1
  H+  H119  1  0.80456876  0.42305567  0.86940734  1
  H+  H120  1  0.18727189  0.16546809  0.98535128  1
  H+  H121  1  0.31055405  0.14840889  0.75737369  1
  H+  H122  1  0.11835710  0.22828800  0.14284646  1
  H+  H123  1  0.79971116  0.56648179  0.14429601  1
  H+  H124  1  0.95737074  0.48544061  0.97293845  1
  H+  H125  1  0.77778722  0.56989316  0.60367511  1
  H+  H126  1  0.22897834  0.76307657  0.33996108  1
  H+  H127  1  0.23026747  0.12504082  0.89691731  1
  H+  H128  1  0.34164144  0.79924598  0.73154583  1
  H+  H129  1  0.56744316  0.10433686  0.31993685  1
  H+  H130  1  0.56366559  0.44667494  0.86804202  1
  H+  H131  1  0.39574215  0.79963735  0.60403111  1
  H+  H132  1  0.95695119  0.81361830  0.49735682  1
  H+  H133  1  0.12215943  0.60568301  0.04045653  1
  H+  H134  1  0.86900064  0.77567585  0.34901752  1
  H+  H135  1  0.91136314  0.46671414  0.34883311  1
  H+  H136  1  0.45670324  0.55784052  0.59806103  1
  H+  H137  1  0.13740471  0.58708303  0.60006189  1
  H+  H138  1  0.18048704  0.08865362  0.38587917  1
  H+  H139  1  0.78035266  0.23260235  0.10392151  1
  H+  H140  1  0.74518029  0.19976826  0.56143151  1
  H+  H141  1  0.83357300  0.27897136  0.69114714  1
  H+  H142  1  0.22337995  0.45226164  0.89071462  1
  H+  H143  1  0.85997762  0.16487084  0.00259107  1
  O2-  O144  1  0.11440850  0.22208336  0.21093742  1
  O2-  O145  1  0.06802111  0.13701683  0.69890850  1
  O2-  O146  1  0.12783012  0.56161372  0.21612691  1
  O2-  O147  1  0.22171223  0.65876293  0.70396756  1
  O2-  O148  1  0.07048419  0.82613424  0.18966264  1
  O2-  O149  1  0.13800371  0.88435278  0.70976823  1
  O2-  O150  1  0.46561724  0.23494940  0.21466539  1
  O2-  O151  1  0.45388795  0.22203561  0.73402453  1
  O2-  O152  1  0.41876470  0.53053771  0.22081282  1
  O2-  O153  1  0.46069373  0.55464014  0.71893803  1
  O2-  O154  1  0.44450073  0.87829137  0.20692577  1
  O2-  O155  1  0.41368098  0.85065905  0.76403648  1
  O2-  O156  1  0.78759954  0.23219211  0.21662005  1
  O2-  O157  1  0.77382826  0.21646923  0.72620717  1
  O2-  O158  1  0.79864750  0.55726938  0.21291139  1
  O2-  O159  1  0.79807258  0.59915009  0.72314995  1
  O2-  O160  1  0.78398254  0.91990309  0.20810456  1
  O2-  O161  1  0.77143598  0.90364150  0.72439608  1
  O2-  O162  1  0.23328919  0.12376546  0.28199421  1
  O2-  O163  1  0.23054773  0.10354614  0.78082544  1
  O2-  O164  1  0.21106166  0.43848284  0.28451038  1
  O2-  O165  1  0.24536135  0.47347777  0.76881053  1
  O2-  O166  1  0.23727732  0.75577055  0.27269693  1
  O2-  O167  1  0.24919732  0.81659409  0.90190313  1
  O2-  O168  1  0.57179992  0.10990597  0.25338347  1
  O2-  O169  1  0.53655809  0.08225307  0.77753142  1
  O2-  O170  1  0.57553724  0.46483166  0.29470497  1
  O2-  O171  1  0.56785348  0.44012103  0.79752396  1
  O2-  O172  1  0.52736376  0.73924802  0.27676194  1
  O2-  O173  1  0.55670936  0.76337808  0.78880310  1
  O2-  O174  1  0.89013634  0.13000430  0.26395822  1
  O2-  O175  1  0.87469557  0.11001638  0.79252816  1
  O2-  O176  1  0.91485465  0.46154201  0.28161942  1
  O2-  O177  1  0.76151015  0.40821989  0.81017142  1
  O2-  O178  1  0.85912315  0.77621669  0.28246530  1
  O2-  O179  1  0.91708991  0.80321090  0.83873576  1
  O2-  O180  1  0.14286752  0.07495687  0.44725177  1
  O2-  O181  1  0.23034863  0.12614924  0.96502538  1
  O2-  O182  1  0.22208277  0.43763929  0.47487689  1
  O2-  O183  1  0.21059191  0.44694309  0.95743017  1
  O2-  O184  1  0.20729963  0.76413957  0.45264329  1
  O2-  O185  1  0.15318484  0.71506742  0.85601050  1
  O2-  O186  1  0.52773984  0.13414771  0.44117938  1
  O2-  O187  1  0.55396706  0.10678666  0.97097508  1
  O2-  O188  1  0.53647531  0.43676143  0.46656374  1
  O2-  O189  1  0.56655852  0.44657765  0.97067175  1
  O2-  O190  1  0.56630753  0.76914709  0.46755832  1
  O2-  O191  1  0.54994011  0.76948240  0.96468728  1
  O2-  O192  1  0.87761540  0.08441348  0.47692438  1
  O2-  O193  1  0.90218721  0.12628296  0.98256342  1
  O2-  O194  1  0.89741220  0.46079070  0.47537209  1
  O2-  O195  1  0.87173493  0.44330893  0.96837541  1
  O2-  O196  1  0.87516888  0.77973134  0.47594874  1
  O2-  O197  1  0.90937182  0.77965609  0.93693673  1
  O2-  O198  1  0.11834055  0.22959167  0.02598533  1
  O2-  O199  1  0.09264682  0.20856386  0.52865734  1
  O2-  O200  1  0.10009031  0.56770491  -0.01873725  1
  O2-  O201  1  0.11914899  0.56153417  0.53560101  1
  O2-  O202  1  0.11735499  0.90164896  -0.00604214  1
  O2-  O203  1  0.09055302  0.86723827  0.52982091  1
  O2-  O204  1  0.44908763  0.22157622  0.02688929  1
  O2-  O205  1  0.57539596  0.30697277  0.58222138  1
  O2-  O206  1  0.42379144  0.56992683  0.03392866  1
  O2-  O207  1  0.45174888  0.55862565  0.53024536  1
  O2-  O208  1  0.43572187  0.88531521  0.02357013  1
  O2-  O209  1  0.41903245  0.84019034  0.54560754  1
  O2-  O210  1  0.78010698  0.23372461  0.03521146  1
  O2-  O211  1  0.76699600  0.21700773  0.49728332  1
  O2-  O212  1  0.79021286  0.56890442  0.03334107  1
  O2-  O213  1  0.77407286  0.56185154  0.53574618  1
  O2-  O214  1  0.75962798  0.82970540  0.03959997  1
  O2-  O215  1  0.77662350  0.88661100  0.52620568  1
