# generated using pymatgen
data_H2O
_symmetry_space_group_name_H-M   'P 1'
_cell_length_a   13.50213754
_cell_length_b   13.50350463
_cell_length_c   14.68644058
_cell_angle_alpha   89.99840657
_cell_angle_beta   90.02149391
_cell_angle_gamma   119.97556545
_symmetry_Int_Tables_number   1
_chemical_formula_structural   H2O
_chemical_formula_sum   'H144 O72'
_cell_volume   2319.54632348
_cell_formula_units_Z   72
loop_
 _symmetry_equiv_pos_site_id
 _symmetry_equiv_pos_as_xyz
  1  'x, y, z'
loop_
 _atom_type_symbol
 _atom_type_oxidation_number
  H+  1.0
  O2-  -2.0
loop_
 _atom_site_type_symbol
 _atom_site_label
 _atom_site_symmetry_multiplicity
 _atom_site_fract_x
 _atom_site_fract_y
 _atom_site_fract_z
 _atom_site_occupancy
  H+  H0  1  0.16176144  -0.03458057  0.23498357  1
  H+  H1  1  0.68433444  0.83526218  0.75522450  1
  H+  H2  1  0.62342060  0.81378060  0.98206800  1
  H+  H3  1  0.16910221  0.68904643  0.75345960  1
  H+  H4  1  0.49436554  0.01666681  0.25706922  1
  H+  H5  1  0.32867675  0.15039461  0.23823686  1
  H+  H6  1  0.46999767  0.29264182  0.00079512  1
  H+  H7  1  0.18595007  0.36508895  -0.00976387  1
  H+  H8  1  0.51304204  0.79871268  0.76409997  1
  H+  H9  1  0.83093008  0.01965290  0.76669795  1
  H+  H10  1  -0.02589902  0.81877838  0.28113571  1
  H+  H11  1  0.52252449  0.49407494  0.98753138  1
  H+  H12  1  0.48989306  0.13266595  0.26438146  1
  H+  H13  1  0.98035614  0.47565670  0.75701669  1
  H+  H14  1  0.49022577  0.84109839  0.99527378  1
  H+  H15  1  0.97444318  0.50158892  0.55087564  1
  H+  H16  1  0.55143806  0.76962533  0.86441137  1
  H+  H17  1  0.56942903  0.45491984  -0.09789678  1
  H+  H18  1  0.35061916  0.83158828  0.74235644  1
  H+  H19  1  0.86616414  0.18048739  0.23142166  1
  H+  H20  1  0.15048660  0.96565990  0.74141432  1
  H+  H21  1  0.27825674  0.79751895  0.49478486  1
  H+  H22  1  0.46468210  0.83047560  0.51221122  1
  H+  H23  1  0.12469570  0.20477064  0.53553595  1
  H+  H24  1  0.14778424  0.50428123  0.73999864  1
  H+  H25  1  0.82097107  0.96560644  0.01323484  1
  H+  H26  1  0.17773185  0.80978603  0.98715522  1
  H+  H27  1  0.70448798  0.52742553  0.24109024  1
  H+  H28  1  0.47163859  0.00002171  0.48834846  1
  H+  H29  1  0.85293587  0.70443252  0.26944999  1
  H+  H30  1  0.50204494  0.02011204  0.99607372  1
  H+  H31  1  0.84513024  0.35718268  0.97900082  1
  H+  H32  1  0.14753631  0.17802433  0.00391654  1
  H+  H33  1  0.81433443  0.18311598  0.51480562  1
  H+  H34  1  0.85671469  0.75606150  0.40742819  1
  H+  H35  1  0.46861026  0.94845467  0.74553199  1
  H+  H36  1  0.52520352  0.47995701  0.76393840  1
  H+  H37  1  0.01762875  0.17680760  0.75732199  1
  H+  H38  1  0.62100167  0.81044108  0.50787718  1
  H+  H39  1  0.86502166  0.47053154  0.48979052  1
  H+  H40  1  0.30014516  0.48113119  0.75835364  1
  H+  H41  1  0.17220198  0.17848664  0.23564689  1
  H+  H42  1  0.98543933  0.49796987  0.21201308  1
  H+  H43  1  0.81769225  0.68180749  0.51281104  1
  H+  H44  1  0.47201347  0.17399683  0.74671420  1
  H+  H45  1  0.16622747  0.63507184  0.23508763  1
  H+  H46  1  0.17943944  0.35542252  0.27900838  1
  H+  H47  1  0.68584673  0.17513301  -0.00010935  1
  H+  H48  1  0.84169936  0.31836482  0.20565177  1
  H+  H49  1  0.29131975  0.14380667  0.98990102  1
  H+  H50  1  0.84641358  0.81258688  0.99307192  1
  H+  H51  1  0.15710335  0.13383167  0.45421882  1
  H+  H52  1  0.86642555  0.50084504  0.21581296  1
  H+  H53  1  0.84246791  0.69155924  0.99076896  1
  H+  H54  1  0.81240950  0.84992861  0.75554218  1
  H+  H55  1  0.56521172  0.44806456  0.33817428  1
  H+  H56  1  0.53379717  0.49194102  0.48394833  1
  H+  H57  1  0.17574752  0.80616009  0.26235236  1
  H+  H58  1  0.21209625  0.17673531  0.47769746  1
  H+  H59  1  0.48473855  0.63262993  0.51601763  1
  H+  H60  1  0.12901802  0.83032450  0.50982526  1
  H+  H61  1  0.49201277  0.65281998  0.99529604  1
  H+  H62  1  0.36912064  0.84111438  0.00064012  1
  H+  H63  1  0.37057881  0.51157070  0.51825548  1
  H+  H64  1  0.14529935  0.62812846  -0.00109673  1
  H+  H65  1  0.80928813  0.51213097  0.00928560  1
  H+  H66  1  0.02507643  0.83912669  0.00832827  1
  H+  H67  1  0.17805842  0.36317083  0.76511456  1
  H+  H68  1  0.21967178  0.99745198  0.47224531  1
  H+  H69  1  -0.03226124  0.15274113  -0.00446664  1
  H+  H70  1  0.65244348  0.82372262  0.27697800  1
  H+  H71  1  0.21201461  0.10195181  0.90047606  1
  H+  H72  1  0.80345718  0.80088980  0.50266951  1
  H+  H73  1  0.18699576  0.49151932  0.51259907  1
  H+  H74  1  0.21056501  0.43770138  0.42224867  1
  H+  H75  1  0.17247230  0.81033270  0.75359577  1
  H+  H76  1  0.85366666  0.72052274  0.74890021  1
  H+  H77  1  0.95662123  0.14967040  0.50553046  1
  H+  H78  1  0.54091516  0.37996613  0.48656007  1
  H+  H79  1  0.49274336  0.53379091  0.22986532  1
  H+  H80  1  0.83212923  0.54177142  0.59511486  1
  H+  H81  1  0.62034165  0.05878153  0.80798910  1
  H+  H82  1  0.49271671  0.18740892  0.51753414  1
  H+  H83  1  0.48063946  0.62276162  0.74905213  1
  H+  H84  1  0.69058012  0.51267538  0.00963599  1
  H+  H85  1  0.82561292  0.30640114  0.53242919  1
  H+  H86  1  0.81420988  0.95544330  0.53336029  1
  H+  H87  1  0.83594675  0.14188886  0.76293933  1
  H+  H88  1  0.29163674  0.14140130  0.75815563  1
  H+  H89  1  0.14255052  0.95849944  0.00805681  1
  H+  H90  1  0.14837759  0.51031894  0.00015552  1
  H+  H91  1  0.83746662  0.87034516  0.25129515  1
  H+  H92  1  0.49610788  0.13982971  -0.00433837  1
  H+  H93  1  0.52679984  0.37319349  0.24443163  1
  H+  H94  1  0.07171155  0.50897116  0.46925597  1
  H+  H95  1  0.84945987  0.35453404  0.75601500  1
  H+  H96  1  0.13270969  0.32479413  0.52692843  1
  H+  H97  1  0.17362021  0.14462820  0.76094677  1
  H+  H98  1  0.37675040  0.52926220  1.00411142  1
  H+  H99  1  0.16037844  0.67765722  0.49529302  1
  H+  H100  1  0.03119651  0.85029034  0.74400591  1
  H+  H101  1  0.36216748  0.84175559  0.23332336  1
  H+  H102  1  0.38713541  0.19935294  0.51378021  1
  H+  H103  1  0.10433268  0.87795560  0.15317046  1
  H+  H104  1  0.35365870  0.05062645  0.44508642  1
  H+  H105  1  0.83839399  -0.01115017  0.24190390  1
  H+  H106  1  0.05415777  0.18227447  0.23035692  1
  H+  H107  1  0.65107329  0.50639484  0.75064214  1
  H+  H108  1  0.26351528  0.09347440  0.33073207  1
  H+  H109  1  0.43866496  0.22531810  0.09758988  1
  H+  H110  1  0.10643416  0.88831207  0.59445875  1
  H+  H111  1  0.69789930  0.19844264  0.73701636  1
  H+  H112  1  0.44062737  0.88404841  0.14443626  1
  H+  H113  1  0.53490016  0.70437792  0.26924348  1
  H+  H114  1  0.12273934  0.22427441  0.09568586  1
  H+  H115  1  0.87828554  0.07770604  0.42083365  1
  H+  H116  1  0.22368884  0.44422190  0.90130726  1
  H+  H117  1  0.77660800  0.22381699  0.64689789  1
  H+  H118  1  0.08936577  0.22855738  0.66713990  1
  H+  H119  1  0.13462329  0.55887541  0.14347092  1
  H+  H120  1  0.83554431  0.47220994  0.37306003  1
  H+  H121  1  0.78488627  0.88962648  0.10219463  1
  H+  H122  1  0.20953971  0.76231150  0.35196040  1
  H+  H123  1  0.17253012  0.46985807  0.27576972  1
  H+  H124  1  0.54245067  0.24574410  0.18506948  1
  H+  H125  1  0.55812719  0.77207981  0.41113723  1
  H+  H126  1  0.96765257  0.47631512  0.98267946  1
  H+  H127  1  0.46163654  0.58264544  0.14395452  1
  H+  H128  1  0.42554084  0.86933709  0.60169647  1
  H+  H129  1  0.10010273  0.53526234  0.64954563  1
  H+  H130  1  0.88613019  0.10722972  0.90749378  1
  H+  H131  1  0.55059427  0.09715936  0.86824675  1
  H+  H132  1  0.44463591  0.54839346  0.65705704  1
  H+  H133  1  0.88824811  0.77759251  0.85102510  1
  H+  H134  1  0.21424668  0.77082750  0.89604277  1
  H+  H135  1  0.50850247  0.07914324  0.39506455  1
  H+  H136  1  0.89525162  0.43470588  0.85682939  1
  H+  H137  1  0.76976164  0.87199391  0.62174121  1
  H+  H138  1  0.78103605  0.57447428  0.15188051  1
  H+  H139  1  0.82646290  0.41221287  0.37012766  1
  H+  H140  1  0.80646213  0.17469484  -0.00181758  1
  H+  H141  1  0.78383852  0.22062355  0.13304347  1
  H+  H142  1  0.93812862  0.18915436  0.32037532  1
  H+  H143  1  0.44149986  0.21579163  0.65574787  1
  O2-  O144  1  0.13622936  0.22282034  0.21271253  1
  O2-  O145  1  0.09770305  0.22069501  0.73383149  1
  O2-  O146  1  0.13231008  0.55507794  0.21110125  1
  O2-  O147  1  0.09934637  0.53756918  0.71733833  1
  O2-  O148  1  0.10857751  0.88251408  0.22107657  1
  O2-  O149  1  0.11080858  0.88455540  0.71920990  1
  O2-  O150  1  0.46949535  0.24294014  0.19448608  1
  O2-  O151  1  0.42103417  0.19818585  0.72142649  1
  O2-  O152  1  0.46035521  0.58225866  0.21169061  1
  O2-  O153  1  0.43576833  0.54261793  0.72496580  1
  O2-  O154  1  0.44109237  0.89111280  0.21170763  1
  O2-  O155  1  0.43176581  0.87033887  0.72022943  1
  O2-  O156  1  0.80375647  0.23237721  0.19875271  1
  O2-  O157  1  0.77820991  0.23087489  0.71730421  1
  O2-  O158  1  0.78674061  0.57611467  0.21961597  1
  O2-  O159  1  0.77358634  0.60796670  0.68550444  1
  O2-  O160  1  0.79759821  0.90764920  0.22320343  1
  O2-  O161  1  0.76624930  0.88367778  0.73060051  1
  O2-  O162  1  0.25042849  0.10676208  0.26544506  1
  O2-  O163  1  0.21069584  0.10139933  0.78268908  1
  O2-  O164  1  0.18281540  0.41738387  0.31708369  1
  O2-  O165  1  0.21892570  0.44598160  0.78194008  1
  O2-  O166  1  0.21516973  0.76479819  0.28387311  1
  O2-  O167  1  0.21187862  0.76838313  0.77689573  1
  O2-  O168  1  0.52695863  0.09209841  0.29044757  1
  O2-  O169  1  0.56876569  0.08929683  0.80125132  1
  O2-  O170  1  0.56865388  0.45377855  0.27015865  1
  O2-  O171  1  0.58164925  0.45999958  0.78762897  1
  O2-  O172  1  0.58144371  0.77222597  0.30966138  1
  O2-  O173  1  0.55576995  0.76330892  0.78951259  1
  O2-  O174  1  0.91172262  0.14368403  0.26495116  1
  O2-  O175  1  0.87390229  0.10148768  0.78877494  1
  O2-  O176  1  0.90203339  0.45477424  0.19896938  1
  O2-  O177  1  0.89797317  0.43469539  0.78398228  1
  O2-  O178  1  0.89307798  0.78034305  0.30283061  1
  O2-  O179  1  0.89539031  0.79448482  0.78406949  1
  O2-  O180  1  0.28513998  0.06044104  0.43805484  1
  O2-  O181  1  0.20921202  0.10102925  0.96862350  1
  O2-  O182  1  0.21944091  0.44239421  0.49143411  1
  O2-  O183  1  0.22385261  0.44626318  0.96917800  1
  O2-  O184  1  0.19874461  0.75851688  0.47001456  1
  O2-  O185  1  0.21638776  0.76813770  0.96384874  1
  O2-  O186  1  0.48797918  0.07495679  0.46258020  1
  O2-  O187  1  0.54040838  0.10242926  0.97371992  1
  O2-  O188  1  0.57441718  0.45538583  0.45622551  1
  O2-  O189  1  0.56052267  0.44896103  0.97017512  1
  O2-  O190  1  0.54418945  0.77023838  0.48034631  1
  O2-  O191  1  0.54504701  0.77646715  0.95805131  1
  O2-  O192  1  0.87622991  0.09238978  0.48569159  1
  O2-  O193  1  0.88581914  0.11017708  0.97529820  1
  O2-  O194  1  0.88420831  0.46203982  0.55251887  1
  O2-  O195  1  0.88868252  0.43755926  0.95439295  1
  O2-  O196  1  0.81421702  0.73780687  0.46868336  1
  O2-  O197  1  0.88615231  0.77229095  0.96781793  1
  O2-  O198  1  0.11144239  0.22231616  0.02813124  1
  O2-  O199  1  0.08070437  0.24204571  0.55159248  1
  O2-  O200  1  0.10357069  0.54711342  0.02141517  1
  O2-  O201  1  0.09747568  0.54515335  0.52875072  1
  O2-  O202  1  0.10586227  0.87811851  0.03122337  1
  O2-  O203  1  0.10426100  0.88614611  0.52689933  1
  O2-  O204  1  0.42838825  0.21359625  0.02540476  1
  O2-  O205  1  0.46422510  0.23854574  0.54122719  1
  O2-  O206  1  0.45841356  0.57075259  0.02163160  1
  O2-  O207  1  0.45128398  0.55214437  0.53916968  1
  O2-  O208  1  0.44965409  0.88481387  0.02111301  1
  O2-  O209  1  0.41975691  0.86665981  0.53394687  1
  O2-  O210  1  0.76932873  0.22064963  0.01421991  1
  O2-  O211  1  0.77793254  0.22321825  0.54307135  1
  O2-  O212  1  0.77315733  0.55534987  0.03171975  1
  O2-  O213  1  0.79915995  0.59435973  0.59492486  1
  O2-  O214  1  0.78333985  0.88496712  0.03452364  1
  O2-  O215  1  0.77260947  0.87375896  0.55216788  1
