# generated using pymatgen
data_H2O
_symmetry_space_group_name_H-M   'P 1'
_cell_length_a   13.52852855
_cell_length_b   13.53145048
_cell_length_c   14.71334976
_cell_angle_alpha   89.99816383
_cell_angle_beta   90.02003675
_cell_angle_gamma   120.00057363
_symmetry_Int_Tables_number   1
_chemical_formula_structural   H2O
_chemical_formula_sum   'H144 O72'
_cell_volume   2332.56933965
_cell_formula_units_Z   72
loop_
 _symmetry_equiv_pos_site_id
 _symmetry_equiv_pos_as_xyz
  1  'x, y, z'
loop_
 _atom_type_symbol
 _atom_type_oxidation_number
  H+  1.0
  O2-  -2.0
loop_
 _atom_site_type_symbol
 _atom_site_label
 _atom_site_symmetry_multiplicity
 _atom_site_fract_x
 _atom_site_fract_y
 _atom_site_fract_z
 _atom_site_occupancy
  H+  H0  1  0.83577655  0.17942491  0.27174171  1
  H+  H1  1  0.81837125  0.80949178  0.74275417  1
  H+  H2  1  0.16594740  -0.02283314  1.01851827  1
  H+  H3  1  0.81551870  0.49183190  0.23294082  1
  H+  H4  1  0.13732151  0.53860901  0.21223014  1
  H+  H5  1  0.18716159  0.72181275  0.98335603  1
  H+  H6  1  0.15751155  0.14016882  0.24326446  1
  H+  H7  1  0.80397519  0.80390202  0.24409684  1
  H+  H8  1  -0.12876038  0.37758611  0.74908742  1
  H+  H9  1  0.18326653  0.14203225  0.99283070  1
  H+  H10  1  0.53738913  0.53083876  0.48610875  1
  H+  H11  1  0.42960446  0.28642869  0.02184217  1
  H+  H12  1  0.37871401  0.49666593  1.00553335  1
  H+  H13  1  0.63213267  0.47301628  0.26747250  1
  H+  H14  1  0.85856847  0.86067663  0.24686246  1
  H+  H15  1  0.20620485  0.72181011  0.75947318  1
  H+  H16  1  0.12988276  0.26645949  0.20466830  1
  H+  H17  1  1.04157434  0.18673414  0.73990895  1
  H+  H18  1  0.11549327  0.21764612  0.65014241  1
  H+  H19  1  0.81914785  0.63755138  0.51081557  1
  H+  H20  1  0.48845875  0.78714494  0.30479865  1
  H+  H21  1  0.23624250  0.11221737  0.90918515  1
  H+  H22  1  0.15398137  0.85629940  0.51664171  1
  H+  H23  1  0.49867500  0.46119188  0.74885846  1
  H+  H24  1  0.83267804  0.20798832  0.50166990  1
  H+  H25  1  0.48796417  0.18849943  0.49879376  1
  H+  H26  1  -0.03402736  0.14335195  -0.02338128  1
  H+  H27  1  0.68501603  0.52526558  0.50474466  1
  H+  H28  1  0.49953932  0.84363932  0.74826512  1
  H+  H29  1  0.39092626  0.85742653  0.73237419  1
  H+  H30  1  0.33077553  0.49061591  0.52971708  1
  H+  H31  1  0.14258189  0.27484935  1.00484318  1
  H+  H32  1  0.05319950  0.53135270  0.75139157  1
  H+  H33  1  0.07741059  0.58603890  0.09822375  1
  H+  H34  1  0.46969233  0.29319972  0.72734683  1
  H+  H35  1  0.04968710  0.85754538  0.01141599  1
  H+  H36  1  0.15155795  0.29088127  0.53178255  1
  H+  H37  1  0.18716149  0.16284407  0.75353457  1
  H+  H38  1  0.46582616  0.17194603  0.71478367  1
  H+  H39  1  0.08188384  0.52046014  0.52144524  1
  H+  H40  1  0.10401818  0.53733842  0.01071914  1
  H+  H41  1  0.20204909  0.71034352  0.49823433  1
  H+  H42  1  0.51406395  0.47247666  0.26771995  1
  H+  H43  1  0.02357339  0.53498651  0.24763684  1
  H+  H44  1  0.51321666  0.48164202  0.00921218  1
  H+  H45  1  0.36679294  0.86409563  0.25368756  1
  H+  H46  1  0.63975424  0.80245357  1.00964448  1
  H+  H47  1  0.21838949  0.47079431  0.97970065  1
  H+  H48  1  0.82131505  0.32405636  0.50067161  1
  H+  H49  1  0.93758322  0.49186124  0.98891535  1
  H+  H50  1  0.82779569  0.96374861  0.50071076  1
  H+  H51  1  0.19955183  0.72484958  0.25741647  1
  H+  H52  1  0.87630091  0.69436132  0.26945154  1
  H+  H53  1  0.86924418  0.37494542  0.28466874  1
  H+  H54  1  0.79949428  0.51049108  0.76091292  1
  H+  H55  1  0.71994925  0.19512796  0.72372105  1
  H+  H56  1  0.89466549  0.45073756  0.83935113  1
  H+  H57  1  0.49128202  0.29371380  0.26412889  1
  H+  H58  1  0.80864685  0.99266116  0.72941814  1
  H+  H59  1  0.92819915  0.49734276  0.49931377  1
  H+  H60  1  0.28213588  0.15126712  0.26505766  1
  H+  H61  1  0.83644091  1.03788255  0.25822639  1
  H+  H62  1  0.82583588  0.97356895  -0.00331127  1
  H+  H63  1  0.87286246  0.82921303  0.96570410  1
  H+  H64  1  1.03372177  0.84942939  0.52182939  1
  H+  H65  1  0.50607429  -0.00303779  0.25900695  1
  H+  H66  1  0.86700685  0.17000334  0.74426194  1
  H+  H67  1  0.65469246  0.86755802  0.25350974  1
  H+  H68  1  0.18877344  0.10549677  0.39977694  1
  H+  H69  1  0.96667195  0.15073460  0.49704276  1
  H+  H70  1  0.51859200  0.79709344  0.01450615  1
  H+  H71  1  0.85947087  0.81139719  0.48391714  1
  H+  H72  1  0.19576579  0.52112797  0.53884525  1
  H+  H73  1  0.16676528  0.37443831  0.31850507  1
  H+  H74  1  0.18603981  0.88760605  0.73810071  1
  H+  H75  1  0.20453370  0.84520954  0.26296811  1
  H+  H76  1  0.20525105  0.84438921  0.99329908  1
  H+  H77  1  0.36407623  0.49953676  0.25560091  1
  H+  H78  1  0.80041395  0.51692180  -0.01167452  1
  H+  H79  1  0.53862944  0.02824304  0.73332953  1
  H+  H80  1  0.31379578  0.16417357  0.74574642  1
  H+  H81  1  0.48996057  0.94931006  0.01881880  1
  H+  H82  1  0.84598885  0.14321017  0.96518574  1
  H+  H83  1  1.00617722  0.78579262  0.27966354  1
  H+  H84  1  0.45583161  0.22176927  0.17431860  1
  H+  H85  1  0.82832687  0.36501645  -0.02159971  1
  H+  H86  1  0.13413779  0.16458925  0.51263964  1
  H+  H87  1  0.49509606  0.61926596  0.02069793  1
  H+  H88  1  0.37468579  0.52537486  0.73182200  1
  H+  H89  1  0.64661612  0.48744385  -0.00155975  1
  H+  H90  1  0.97183639  0.13967008  0.24698712  1
  H+  H91  1  0.86650429  0.71083724  0.96451670  1
  H+  H92  1  0.80390794  0.50238802  0.49443871  1
  H+  H93  1  0.36707077  0.84223262  0.02156956  1
  H+  H94  1  0.52732556  0.14748205  0.27162971  1
  H+  H95  1  0.49603117  0.63799121  0.74518666  1
  H+  H96  1  0.15283058  0.97494685  0.25026816  1
  H+  H97  1  0.65673545  0.16987110  0.50527531  1
  H+  H98  1  0.19580798  0.49017871  0.76430202  1
  H+  H99  1  0.43716151  0.53574969  0.16286615  1
  H+  H100  1  0.21373617  0.50408842  0.33787535  1
  H+  H101  1  0.52535939  0.97334397  0.50884059  1
  H+  H102  1  0.78259099  0.61786516  0.76411026  1
  H+  H103  1  0.68258350  0.18341447  0.97121385  1
  H+  H104  1  0.50465554  0.68181446  0.28319483  1
  H+  H105  1  0.64748417  0.14297579  0.27744228  1
  H+  H106  1  0.51249160  0.15411555  1.02026575  1
  H+  H107  1  0.70076378  0.92128911  0.66573030  1
  H+  H108  1  0.18766983  0.02812593  0.74509752  1
  H+  H109  1  0.88852752  0.46300288  0.36506580  1
  H+  H110  1  0.79721249  0.23440048  0.19455163  1
  H+  H111  1  0.71029293  0.42228610  0.16985384  1
  H+  H112  1  0.13968814  0.57162452  0.66767874  1
  H+  H113  1  0.22742443  0.78401993  0.40785184  1
  H+  H114  1  0.16339600  0.02734977  0.48928669  1
  H+  H115  1  0.24793178  0.43256899  0.44845895  1
  H+  H116  1  0.75192755  0.19045449  0.05644290  1
  H+  H117  1  0.57503747  0.10616211  0.81858844  1
  H+  H118  1  0.24768462  0.43329562  0.88713219  1
  H+  H119  1  0.57122516  0.11809918  0.42196427  1
  H+  H120  1  0.50882404  0.71956281  0.45177229  1
  H+  H121  1  0.19321898  0.36915645  0.75220807  1
  H+  H122  1  0.77633596  0.56350584  0.08016994  1
  H+  H123  1  0.70885068  0.89891987  0.15592887  1
  H+  H124  1  0.89169812  0.79008915  0.81498339  1
  H+  H125  1  0.13258756  0.91732202  0.64958722  1
  H+  H126  1  0.84307005  0.90684937  0.07845555  1
  H+  H127  1  0.40662380  0.21731084  0.55043271  1
  H+  H128  1  0.25203374  0.80775574  0.84229077  1
  H+  H129  1  0.52066482  0.18624719  0.92044466  1
  H+  H130  1  0.45654724  0.89782152  0.16598818  1
  H+  H131  1  0.56014041  0.76225192  0.86846648  1
  H+  H132  1  0.63883732  0.81698685  0.77974481  1
  H+  H133  1  0.80475882  0.24620868  0.63981524  1
  H+  H134  1  0.91158125  0.75518540  0.41194621  1
  H+  H135  1  0.89582911  0.11293326  0.40409887  1
  H+  H136  1  0.08830190  0.18819784  0.09320007  1
  H+  H137  1  0.60885995  0.45490442  0.77425538  1
  H+  H138  1  0.12229550  0.89376304  0.16184488  1
  H+  H139  1  0.80028094  0.88244469  0.58464733  1
  H+  H140  1  0.89622915  0.11713543  0.83249587  1
  H+  H141  1  0.48348974  0.87534559  0.57940384  1
  H+  H142  1  0.55681309  0.45523583  0.41107498  1
  H+  H143  1  0.46940359  0.59124192  0.60468037  1
  O2-  O144  1  0.08596455  0.18466175  0.19418017  1
  O2-  O145  1  0.12314650  0.22718940  0.71932529  1
  O2-  O146  1  0.09772157  0.58220117  0.21139820  1
  O2-  O147  1  0.13686594  0.57272850  0.73542220  1
  O2-  O148  1  0.12726336  0.89385276  0.22944233  1
  O2-  O149  1  0.14535870  0.92829998  0.71817645  1
  O2-  O150  1  0.45600001  0.21314201  0.24001224  1
  O2-  O151  1  0.42242742  0.21105660  0.70263852  1
  O2-  O152  1  0.44202026  0.54112120  0.23011259  1
  O2-  O153  1  0.45525769  0.56522988  0.70995888  1
  O2-  O154  1  0.45369364  0.90488769  0.23386347  1
  O2-  O155  1  0.47224609  0.88903027  0.71451543  1
  O2-  O156  1  0.78900072  0.22077581  0.25967868  1
  O2-  O157  1  0.80285693  0.23944024  0.70851138  1
  O2-  O158  1  0.75810706  0.49939959  0.19342057  1
  O2-  O159  1  0.74789274  0.53660540  0.78293846  1
  O2-  O160  1  0.70484606  0.93281169  0.21323984  1
  O2-  O161  1  0.75126060  0.91251635  0.70838246  1
  O2-  O162  1  0.20026440  0.10635134  0.27874207  1
  O2-  O163  1  0.23003435  0.12218004  0.77494446  1
  O2-  O164  1  0.23685456  0.44712135  0.32814392  1
  O2-  O165  1  0.23694904  0.44751544  0.77958667  1
  O2-  O166  1  0.24736454  0.80342066  0.28107594  1
  O2-  O167  1  0.24955504  0.80501479  0.77497165  1
  O2-  O168  1  0.56279480  0.10004178  0.29074553  1
  O2-  O169  1  0.57363675  0.11098590  0.75270587  1
  O2-  O170  1  0.55344183  0.43209125  0.29166285  1
  O2-  O171  1  0.52297203  0.40961451  0.77503108  1
  O2-  O172  1  0.53790341  0.75509543  0.31688918  1
  O2-  O173  1  0.55933530  0.76600296  0.80123512  1
  O2-  O174  1  0.89661449  0.11227850  0.28344890  1
  O2-  O175  1  0.89980900  0.12085034  0.76478395  1
  O2-  O176  1  0.90031851  0.45786167  0.29422363  1
  O2-  O177  1  0.91133789  0.45732237  0.77345439  1
  O2-  O178  1  0.94131359  0.71885308  0.30990681  1
  O2-  O179  1  0.85804952  0.76700711  0.75400548  1
  O2-  O180  1  0.18583430  0.10521654  0.46697596  1
  O2-  O181  1  0.23605445  0.11292729  0.97625581  1
  O2-  O182  1  0.24728140  0.43828191  0.51518643  1
  O2-  O183  1  0.25209164  0.42704583  0.95635868  1
  O2-  O184  1  0.20607287  0.77909252  0.47222758  1
  O2-  O185  1  0.24386715  0.80210091  0.96926609  1
  O2-  O186  1  0.57394083  0.12052011  0.48851655  1
  O2-  O187  1  0.53788720  0.14036905  0.96186175  1
  O2-  O188  1  0.57097764  0.48203001  0.47475488  1
  O2-  O189  1  0.55462883  0.43392844  0.98545342  1
  O2-  O190  1  0.47665492  0.70233413  0.51428641  1
  O2-  O191  1  0.55811753  0.75636757  0.99227410  1
  O2-  O192  1  0.88742454  0.11400247  0.47118861  1
  O2-  O193  1  0.88588760  0.10107802  0.94958321  1
  O2-  O194  1  0.86002914  0.45168689  0.46317613  1
  O2-  O195  1  0.86140219  0.44592218  0.95970741  1
  O2-  O196  1  0.89956646  0.76566726  0.47768542  1
  O2-  O197  1  0.91657090  0.79177466  0.94796681  1
  O2-  O198  1  0.09294073  0.19395850  0.02101621  1
  O2-  O199  1  0.09876366  0.20911649  0.54443207  1
  O2-  O200  1  0.07243145  0.58478299  0.02982769  1
  O2-  O201  1  0.15571960  0.56617193  0.55061733  1
  O2-  O202  1  0.12648699  0.89566435  0.04058819  1
  O2-  O203  1  0.11520145  0.89738458  0.54165489  1
  O2-  O204  1  0.50982758  0.33040683  0.04328696  1
  O2-  O205  1  0.44196878  0.22581565  0.49093167  1
  O2-  O206  1  0.45470809  0.53595682  0.03836422  1
  O2-  O207  1  0.46378297  0.59002097  0.53480787  1
  O2-  O208  1  0.44650899  0.87549778  0.04921142  1
  O2-  O209  1  0.50597097  0.89286897  0.51551255  1
  O2-  O210  1  0.76254676  0.21257931  -0.00733784  1
  O2-  O211  1  0.79411670  0.24659167  0.52994350  1
  O2-  O212  1  0.76433086  0.56172072  0.01334828  1
  O2-  O213  1  0.76919140  0.55342530  0.52703244  1
  O2-  O214  1  0.79379532  0.89549463  0.02624460  1
  O2-  O215  1  0.79750227  0.88259712  0.51814201  1
