# generated using pymatgen
data_H2O
_symmetry_space_group_name_H-M   'P 1'
_cell_length_a   13.50299201
_cell_length_b   13.49960827
_cell_length_c   14.68871457
_cell_angle_alpha   89.94965688
_cell_angle_beta   90.01390399
_cell_angle_gamma   119.95398285
_symmetry_Int_Tables_number   1
_chemical_formula_structural   H2O
_chemical_formula_sum   'H144 O72'
_cell_volume   2319.88585673
_cell_formula_units_Z   72
loop_
 _symmetry_equiv_pos_site_id
 _symmetry_equiv_pos_as_xyz
  1  'x, y, z'
loop_
 _atom_type_symbol
 _atom_type_oxidation_number
  H+  1.0
  O2-  -2.0
loop_
 _atom_site_type_symbol
 _atom_site_label
 _atom_site_symmetry_multiplicity
 _atom_site_fract_x
 _atom_site_fract_y
 _atom_site_fract_z
 _atom_site_occupancy
  H+  H0  1  0.59009395  0.46933660  0.35457116  1
  H+  H1  1  0.80321176  0.62211150  0.98476617  1
  H+  H2  1  0.87996120  0.75952366  0.88962129  1
  H+  H3  1  0.85088513  0.81864079  0.50047670  1
  H+  H4  1  0.88113866  0.07324991  1.03056147  1
  H+  H5  1  -0.03848761  0.15171545  0.77523886  1
  H+  H6  1  0.42081907  0.87778440  0.77791753  1
  H+  H7  1  0.52525252  0.14184074  0.26017540  1
  H+  H8  1  0.53454853  0.04297412  0.74744706  1
  H+  H9  1  0.49297766  -0.03792188  0.24643842  1
  H+  H10  1  0.77299714  0.85618112  0.26924365  1
  H+  H11  1  0.48555508  0.29811554  0.73717110  1
  H+  H12  1  0.81996113  -0.02318528  0.74779800  1
  H+  H13  1  0.02916269  0.19291558  0.00153792  1
  H+  H14  1  0.49644847  0.84701576  0.25147775  1
  H+  H15  1  0.18964220  0.82938387  0.26861854  1
  H+  H16  1  -0.03535095  0.81016497  0.49559367  1
  H+  H17  1  0.52108255  0.16456013  0.73895505  1
  H+  H18  1  0.78673356  0.90536963  0.65260543  1
  H+  H19  1  0.75805292  0.40011186  0.24327567  1
  H+  H20  1  0.65686965  0.17086652  0.74832037  1
  H+  H21  1  0.95150963  0.47227761  0.99264206  1
  H+  H22  1  0.45290367  0.55489433  0.65104919  1
  H+  H23  1  0.79361241  0.26004452  0.20667765  1
  H+  H24  1  0.82093839  0.30362963  0.74925009  1
  H+  H25  1  0.15503377  0.68483329  0.76476596  1
  H+  H26  1  0.21252719  0.50929540  0.25785730  1
  H+  H27  1  0.17827764  0.14861793  0.50120373  1
  H+  H28  1  0.49138413  0.49623022  -0.00645112  1
  H+  H29  1  0.71207807  0.85659453  0.51436366  1
  H+  H30  1  0.81999291  0.35660055  0.53815660  1
  H+  H31  1  0.47548237  0.30732061  0.50818420  1
  H+  H32  1  0.14175683  0.50978788  0.01851194  1
  H+  H33  1  0.85107317  0.74185479  0.25461966  1
  H+  H34  1  -0.04070552  0.47942895  0.76396658  1
  H+  H35  1  0.97173251  0.13927916  0.26160129  1
  H+  H36  1  0.84520088  0.79496500  0.98122572  1
  H+  H37  1  0.62539683  0.47797690  0.76267127  1
  H+  H38  1  0.10224608  0.55089178  0.10594231  1
  H+  H39  1  0.69316703  0.18468039  0.51761299  1
  H+  H40  1  0.56036148  0.10795008  0.40642413  1
  H+  H41  1  0.06728525  0.53620874  0.27322447  1
  H+  H42  1  0.81498606  0.49158081  0.53848374  1
  H+  H43  1  0.44242304  0.55697429  0.09139125  1
  H+  H44  1  0.94396054  0.49026422  0.53690162  1
  H+  H45  1  0.47093315  0.67029670  0.19226730  1
  H+  H46  1  0.29928094  0.80594120  0.49827227  1
  H+  H47  1  0.17848894  0.36743803  0.76479105  1
  H+  H48  1  0.26738987  0.50551727  0.48163958  1
  H+  H49  1  0.72255581  0.55921228  0.23231664  1
  H+  H50  1  0.35663846  0.82653993  0.01703068  1
  H+  H51  1  0.56403394  0.77686973  0.84542220  1
  H+  H52  1  0.52369112  0.79888215  0.49354552  1
  H+  H53  1  0.37846399  0.54453659  0.22469486  1
  H+  H54  1  0.18000679  0.02972932  0.49928242  1
  H+  H55  1  0.14724433  0.51395276  0.74811335  1
  H+  H56  1  0.03478534  0.18974888  0.50766192  1
  H+  H57  1  0.29642125  0.14691301  0.74991859  1
  H+  H58  1  0.80873380  0.51390615  0.74545815  1
  H+  H59  1  0.83840415  0.81633353  0.75279736  1
  H+  H60  1  0.63797212  0.13196105  0.25022079  1
  H+  H61  1  0.64830479  0.82056137  0.75716833  1
  H+  H62  1  0.58435016  0.77862247  0.40817329  1
  H+  H63  1  0.85658490  0.15669114  0.48643739  1
  H+  H64  1  0.50612311  0.47580421  0.75734104  1
  H+  H65  1  0.87798523  0.43774687  0.85172782  1
  H+  H66  1  0.13995700  -0.02938132  0.73738400  1
  H+  H67  1  0.16988528  0.68845386  0.99953982  1
  H+  H68  1  0.35185761  0.46139926  0.47281138  1
  H+  H69  1  0.82941435  -0.02202259  0.50870145  1
  H+  H70  1  0.35034122  0.50230013  0.00460870  1
  H+  H71  1  0.10307026  0.50575137  0.50330407  1
  H+  H72  1  0.16969869  0.65894136  0.25056796  1
  H+  H73  1  0.46361612  0.13085670  1.03769938  1
  H+  H74  1  0.50905584  1.01067786  -0.00044020  1
  H+  H75  1  0.03414790  0.86298682  0.25152476  1
  H+  H76  1  0.15810570  -0.02733068  0.25765792  1
  H+  H77  1  0.25862777  0.80772503  0.74846830  1
  H+  H78  1  0.51306700  0.80781963  -0.01188979  1
  H+  H79  1  0.51327088  0.69056877  -0.01938165  1
  H+  H80  1  0.48366720  0.95762782  0.51220133  1
  H+  H81  1  0.62388039  0.13061174  0.99573129  1
  H+  H82  1  0.19160948  0.04499868  0.98584197  1
  H+  H83  1  0.88689703  0.43957397  0.24459073  1
  H+  H84  1  0.62541167  0.49137887  0.98733212  1
  H+  H85  1  0.12775212  0.84609608  0.74506554  1
  H+  H86  1  0.84705287  0.12467808  0.25908286  1
  H+  H87  1  0.17986698  0.36286664  -0.00462160  1
  H+  H88  1  0.36086004  0.18509362  0.51034688  1
  H+  H89  1  0.16098994  0.30151507  0.50716898  1
  H+  H90  1  0.84332291  0.58172537  0.20410625  1
  H+  H91  1  0.19204290  0.87473521  0.03044524  1
  H+  H92  1  -0.04350802  0.81636435  0.74835258  1
  H+  H93  1  0.14589772  0.18669609  0.74246147  1
  H+  H94  1  0.62451580  0.50604182  0.50978151  1
  H+  H95  1  0.15111516  0.19371254  0.99642750  1
  H+  H96  1  0.59869466  0.70569577  0.27120477  1
  H+  H97  1  0.80348784  0.27860689  0.00268139  1
  H+  H98  1  0.81056204  0.64129975  0.51974480  1
  H+  H99  1  0.53040259  0.60830229  0.49222552  1
  H+  H100  1  0.40234406  0.30908263  0.19821924  1
  H+  H101  1  0.51412281  0.14857779  0.49032253  1
  H+  H102  1  0.14921249  0.84602427  0.51160775  1
  H+  H103  1  0.14496174  0.16522318  0.23419608  1
  H+  H104  1  0.83103302  0.46832384  0.98633388  1
  H+  H105  1  0.55800562  0.38695147  0.26919168  1
  H+  H106  1  0.43313286  0.22038404  0.15749457  1
  H+  H107  1  0.13493041  0.63721011  0.51026991  1
  H+  H108  1  0.45105198  0.88220324  0.60137781  1
  H+  H109  1  0.76150805  0.55878122  0.07890573  1
  H+  H110  1  0.29679031  0.48614008  0.76205609  1
  H+  H111  1  0.70232272  0.83992270  -0.00192454  1
  H+  H112  1  0.20950033  0.77001197  0.91204984  1
  H+  H113  1  0.81750446  0.18065933  0.75581988  1
  H+  H114  1  0.94468297  0.43252126  0.36668582  1
  H+  H115  1  0.33575341  0.06651358  0.07725482  1
  H+  H116  1  0.88412819  0.79619859  0.35384015  1
  H+  H117  1  0.30303590  0.15851234  0.98253723  1
  H+  H118  1  0.15154762  0.91668619  0.11805676  1
  H+  H119  1  0.48844146  0.63828055  0.73700069  1
  H+  H120  1  0.22227097  0.11291428  0.84094063  1
  H+  H121  1  0.44029649  0.86630411  0.10407765  1
  H+  H122  1  0.31018787  0.82762208  0.26746905  1
  H+  H123  1  0.22451072  0.77633933  0.40714588  1
  H+  H124  1  0.10583214  0.88562147  0.59873614  1
  H+  H125  1  0.88614420  0.10881867  0.86665691  1
  H+  H126  1  0.44839710  0.22382958  0.64403837  1
  H+  H127  1  0.88642083  0.42603293  0.37552547  1
  H+  H128  1  0.89736207  0.11485486  0.39723015  1
  H+  H129  1  0.82504002  0.16956171  -0.00223575  1
  H+  H130  1  0.22083578  0.44900751  0.90919206  1
  H+  H131  1  0.53781897  0.44550319  0.89870947  1
  H+  H132  1  0.82053524  -0.05300192  0.97528881  1
  H+  H133  1  0.52080944  0.86032595  0.74611072  1
  H+  H134  1  0.80814880  0.63404679  0.74555317  1
  H+  H135  1  0.75509489  0.17324074  0.12810502  1
  H+  H136  1  0.77377283  0.21610915  0.60738723  1
  H+  H137  1  0.10503869  0.22800214  0.65662550  1
  H+  H138  1  0.26103447  0.45857509  0.33267723  1
  H+  H139  1  0.10710078  0.20761567  0.14594747  1
  H+  H140  1  0.76249593  0.56523847  0.61448789  1
  H+  H141  1  0.22647996  0.11207777  0.36256373  1
  H+  H142  1  0.10454524  0.55259042  0.65925202  1
  H+  H143  1  0.30839388  0.15660945  0.27476095  1
  O2-  O144  1  0.09923645  0.19904422  0.21300429  1
  O2-  O145  1  0.10553639  0.22872433  0.72459675  1
  O2-  O146  1  0.13036808  0.57586842  0.23051069  1
  O2-  O147  1  0.10369335  0.55252938  0.72662071  1
  O2-  O148  1  0.11539322  0.89206594  0.23382264  1
  O2-  O149  1  0.09631248  0.88991994  0.71407479  1
  O2-  O150  1  0.43855563  0.26491262  0.21582992  1
  O2-  O151  1  0.45159523  0.21824570  0.71237682  1
  O2-  O152  1  0.45653575  0.59195134  0.19226297  1
  O2-  O153  1  0.44391018  0.55617589  0.71734611  1
  O2-  O154  1  0.45082983  0.87954573  0.22762996  1
  O2-  O155  1  0.47903987  0.90502987  0.73036314  1
  O2-  O156  1  0.75561929  0.17675029  0.19761852  1
  O2-  O157  1  0.77993739  0.22176968  0.72641683  1
  O2-  O158  1  0.79143403  0.61187055  0.19508789  1
  O2-  O159  1  0.76521372  0.55170659  0.72423061  1
  O2-  O160  1  0.70848924  0.86555873  0.24565783  1
  O2-  O161  1  0.78029230  0.89800843  0.72066743  1
  O2-  O162  1  0.22850140  0.10674512  0.29473879  1
  O2-  O163  1  0.21678688  0.10995676  0.77248801  1
  O2-  O164  1  0.26117535  0.47445088  0.26713649  1
  O2-  O165  1  0.21791876  0.44879950  0.78693885  1
  O2-  O166  1  0.23012211  0.78805606  0.29109243  1
  O2-  O167  1  0.19022615  0.76694675  0.78575675  1
  O2-  O168  1  0.56161706  0.10035237  0.28423852  1
  O2-  O169  1  0.56873509  0.12712747  0.76205593  1
  O2-  O170  1  0.62090255  0.45623656  0.29776235  1
  O2-  O171  1  0.54347486  0.43397980  0.78310240  1
  O2-  O172  1  0.60582663  0.77826561  0.29280642  1
  O2-  O173  1  0.56524784  0.77896664  0.77666585  1
  O2-  O174  1  0.89551657  0.10251393  0.29348799  1
  O2-  O175  1  0.88111099  0.11012412  0.79737596  1
  O2-  O176  1  0.82167440  0.41280317  0.20367334  1
  O2-  O177  1  0.87744924  0.43840048  0.78270289  1
  O2-  O178  1  0.88693859  0.81574025  0.28830893  1
  O2-  O179  1  0.87580463  0.77099810  0.77020315  1
  O2-  O180  1  0.22259033  0.11167501  0.47959830  1
  O2-  O181  1  0.22581656  0.12108759  0.95495170  1
  O2-  O182  1  0.27194669  0.44118501  0.45645521  1
  O2-  O183  1  0.22299577  0.44827513  0.97690839  1
  O2-  O184  1  0.21883635  0.76845753  0.47532314  1
  O2-  O185  1  0.21767003  0.76969951  0.97886260  1
  O2-  O186  1  0.55658460  0.10823690  0.47431424  1
  O2-  O187  1  0.53994000  0.09222616  0.98376818  1
  O2-  O188  1  0.54742360  0.46912864  0.47830401  1
  O2-  O189  1  0.54069327  0.45345282  0.96706575  1
  O2-  O190  1  0.57118304  0.76525165  0.47495917  1
  O2-  O191  1  0.55443855  0.77107003  0.95949238  1
  O2-  O192  1  0.89837825  0.11754864  0.46798247  1
  O2-  O193  1  0.90374625  0.12455602  0.97795832  1
  O2-  O194  1  0.85902201  0.44530505  0.54817594  1
  O2-  O195  1  0.87411103  0.43041903  0.96489201  1
  O2-  O196  1  0.88222972  0.76980104  0.47720790  1
  O2-  O197  1  0.87744308  0.74802913  0.95646390  1
  O2-  O198  1  0.11504497  0.23541444  0.02304620  1
  O2-  O199  1  0.11348172  0.22558224  0.53555147  1
  O2-  O200  1  0.09781080  0.54755765  0.03866143  1
  O2-  O201  1  0.08463494  0.55708955  0.53640193  1
  O2-  O202  1  0.19180767  0.94155252  0.05842583  1
  O2-  O203  1  0.10718788  0.88566044  0.53044463  1
  O2-  O204  1  0.40354103  0.14404668  0.06949290  1
  O2-  O205  1  0.44386827  0.22756069  0.52941422  1
  O2-  O206  1  0.43592298  0.54410315  0.02198837  1
  O2-  O207  1  0.48958956  0.52829738  0.51725434  1
  O2-  O208  1  0.43846131  0.86341457  0.03655221  1
  O2-  O209  1  0.44447418  0.87701832  0.53438478  1
  O2-  O210  1  0.76792078  0.19682266  0.01929650  1
  O2-  O211  1  0.77401504  0.23077443  0.54052322  1
  O2-  O212  1  0.75409500  0.54100013  0.01279370  1
  O2-  O213  1  0.76209278  0.56042463  0.54523735  1
  O2-  O214  1  0.78491138  0.87709367  0.01225471  1
  O2-  O215  1  0.79243798  0.89966246  0.53680282  1
