# generated using pymatgen
data_H2O
_symmetry_space_group_name_H-M   'P 1'
_cell_length_a   13.50263247
_cell_length_b   13.51750386
_cell_length_c   14.69378340
_cell_angle_alpha   90.00555005
_cell_angle_beta   90.02663812
_cell_angle_gamma   119.99919993
_symmetry_Int_Tables_number   1
_chemical_formula_structural   H2O
_chemical_formula_sum   'H144 O72'
_cell_volume   2322.64393761
_cell_formula_units_Z   72
loop_
 _symmetry_equiv_pos_site_id
 _symmetry_equiv_pos_as_xyz
  1  'x, y, z'
loop_
 _atom_type_symbol
 _atom_type_oxidation_number
  H+  1.0
  O2-  -2.0
loop_
 _atom_site_type_symbol
 _atom_site_label
 _atom_site_symmetry_multiplicity
 _atom_site_fract_x
 _atom_site_fract_y
 _atom_site_fract_z
 _atom_site_occupancy
  H+  H0  1  -0.02596698  0.15241950  0.75227795  1
  H+  H1  1  0.48748193  0.84176368  0.48872602  1
  H+  H2  1  0.63329972  0.14481326  0.98845936  1
  H+  H3  1  0.80723776  0.62250473  -0.00351304  1
  H+  H4  1  0.14087075  0.29602440  0.71658822  1
  H+  H5  1  0.18307096  0.14179630  0.26159032  1
  H+  H6  1  0.70721377  0.20226241  0.24006892  1
  H+  H7  1  0.81705762  -0.00865033  0.73783279  1
  H+  H8  1  0.45084211  0.88522502  0.06884804  1
  H+  H9  1  0.36109299  0.17336421  0.01927744  1
  H+  H10  1  0.77780300  0.91323982  0.61811413  1
  H+  H11  1  0.51156989  0.85716139  0.26126059  1
  H+  H12  1  0.47792289  0.48813237  1.00984316  1
  H+  H13  1  0.09593814  0.86842777  0.08677006  1
  H+  H14  1  0.23784550  0.76810077  0.35011577  1
  H+  H15  1  0.01408163  0.49397489  0.25886421  1
  H+  H16  1  0.53722654  0.05686650  0.25524381  1
  H+  H17  1  0.82123338  -0.01213711  0.50874716  1
  H+  H18  1  0.15735447  0.63523712  0.47790199  1
  H+  H19  1  0.18316544  0.48203227  0.48292012  1
  H+  H20  1  0.48096965  0.28610573  0.01853285  1
  H+  H21  1  0.38180414  0.20520383  0.77879774  1
  H+  H22  1  0.83066742  0.32289341  1.00631243  1
  H+  H23  1  0.82073690  0.20135203  0.01234168  1
  H+  H24  1  0.30169039  0.82177877  0.74633969  1
  H+  H25  1  0.45161700  -0.02079356  1.00886726  1
  H+  H26  1  0.42668754  0.88874296  0.61022234  1
  H+  H27  1  0.03102632  0.85109125  0.21936654  1
  H+  H28  1  0.48466420  0.50954108  0.24123535  1
  H+  H29  1  0.49269816  0.19253092  0.77710965  1
  H+  H30  1  0.37174411  0.52023486  0.48958540  1
  H+  H31  1  0.10388772  0.82584359  0.72587702  1
  H+  H32  1  0.79312596  0.61045657  0.54859248  1
  H+  H33  1  0.18311561  1.03726205  0.76081450  1
  H+  H34  1  0.56460688  1.04777350  0.75584314  1
  H+  H35  1  0.52548228  0.17135490  0.25205079  1
  H+  H36  1  0.52561266  0.03707831  0.47201532  1
  H+  H37  1  0.69063411  0.87429311  0.72914338  1
  H+  H38  1  0.43082796  0.97602768  0.68354673  1
  H+  H39  1  0.14570015  0.49041386  0.25180355  1
  H+  H40  1  0.87158987  0.09571143  0.39691579  1
  H+  H41  1  0.88039192  0.02010656  1.00869111  1
  H+  H42  1  0.63264304  0.47592821  0.99466604  1
  H+  H43  1  0.52380314  0.48439871  0.47667248  1
  H+  H44  1  0.20773058  0.81831592  0.43549719  1
  H+  H45  1  0.66352245  0.17482534  0.74526161  1
  H+  H46  1  0.29920949  0.47830377  0.25813288  1
  H+  H47  1  0.84140302  0.03853587  0.23870857  1
  H+  H48  1  0.17243202  0.48743071  0.71694668  1
  H+  H49  1  0.15401899  0.18240396  0.49805299  1
  H+  H50  1  0.56043777  0.80385809  1.13537106  1
  H+  H51  1  0.18231429  1.04053586  0.49382011  1
  H+  H52  1  -0.02087243  0.49536552  0.74303405  1
  H+  H53  1  0.85448651  0.48260838  0.50712048  1
  H+  H54  1  0.56649323  0.37837034  0.77662797  1
  H+  H55  1  0.17077350  0.35465576  1.05584752  1
  H+  H56  1  0.03223339  0.17798337  0.49662105  1
  H+  H57  1  0.83773263  0.81294080  0.16454984  1
  H+  H58  1  0.50226889  0.84001144  0.72718376  1
  H+  H59  1  0.83796094  0.32117713  0.73094622  1
  H+  H60  1  0.51828449  0.68639068  0.25437460  1
  H+  H61  1  0.29257378  0.81643892  1.00584414  1
  H+  H62  1  0.22080044  0.44700935  0.79833690  1
  H+  H63  1  0.83369247  0.79156441  1.00582297  1
  H+  H64  1  0.10202539  0.84175945  0.52743145  1
  H+  H65  1  0.30786975  0.15654947  0.48360076  1
  H+  H66  1  0.93581939  0.81149956  0.51480738  1
  H+  H67  1  0.37278128  0.18749666  0.24648738  1
  H+  H68  1  0.84126103  0.83529125  0.76920686  1
  H+  H69  1  0.04580315  0.18392210  0.02124558  1
  H+  H70  1  0.73328581  0.53142279  0.69934593  1
  H+  H71  1  0.18318490  0.15393580  0.75203661  1
  H+  H72  1  0.82108696  0.64636928  0.21347474  1
  H+  H73  1  0.20111717  0.17345196  0.99402251  1
  H+  H74  1  0.36701785  0.83818194  0.47345256  1
  H+  H75  1  0.85452148  0.36610349  0.49034754  1
  H+  H76  1  0.48013117  0.18500403  0.49038592  1
  H+  H77  1  0.52316885  0.37007695  0.24953140  1
  H+  H78  1  0.85597065  0.49162508  0.98187720  1
  H+  H79  1  0.18283283  0.36235954  0.48578867  1
  H+  H80  1  0.03308914  0.51324705  0.01824348  1
  H+  H81  1  0.83596904  0.20074664  0.73832309  1
  H+  H82  1  0.70492660  0.18516963  0.50195738  1
  H+  H83  1  0.56554248  0.44755114  0.39017559  1
  H+  H84  1  0.14593368  0.29344761  0.25413723  1
  H+  H85  1  0.03552127  0.52072926  0.49408864  1
  H+  H86  1  0.84244663  0.15512563  0.25671555  1
  H+  H87  1  0.22417728  0.84800184  0.80858357  1
  H+  H88  1  0.51572760  0.69317593  0.47895592  1
  H+  H89  1  0.17724189  0.48947060  1.05184214  1
  H+  H90  1  0.15190926  0.64427820  0.72103178  1
  H+  H91  1  0.15414327  0.63134970  0.02722912  1
  H+  H92  1  0.15248805  -0.03539185  0.23228850  1
  H+  H93  1  0.85151243  0.37183584  0.26526329  1
  H+  H94  1  0.86382352  0.49531788  0.73183113  1
  H+  H95  1  0.81084693  0.85517710  0.52492236  1
  H+  H96  1  0.82851157  0.53242913  0.23309369  1
  H+  H97  1  0.47377471  0.64546077  0.70986537  1
  H+  H98  1  0.84316718  0.14740602  0.48672807  1
  H+  H99  1  0.48063997  0.30291142  0.48867659  1
  H+  H100  1  0.46963040  0.60039001  -0.00222270  1
  H+  H101  1  0.30163229  0.47953645  1.04716141  1
  H+  H102  1  0.02454144  0.17577669  0.25386572  1
  H+  H103  1  0.00313069  0.85210895  0.75011387  1
  H+  H104  1  0.36109787  0.52440048  0.70322663  1
  H+  H105  1  0.12348827  0.81072746  1.00475372  1
  H+  H106  1  0.63161909  0.81573814  0.48937884  1
  H+  H107  1  0.72035995  0.93343211  1.09025951  1
  H+  H108  1  0.57482735  0.10960106  0.89227755  1
  H+  H109  1  0.19830444  0.82289466  0.23167143  1
  H+  H110  1  0.68589247  0.44123539  0.82406384  1
  H+  H111  1  0.44384081  0.22188981  0.15228122  1
  H+  H112  1  0.97762964  0.02882857  0.94500830  1
  H+  H113  1  0.22370933  0.10235901  0.34794705  1
  H+  H114  1  0.79229110  0.24516619  0.15450617  1
  H+  H115  1  0.22442020  0.74625412  0.91489533  1
  H+  H116  1  0.11602703  0.57457527  0.62560712  1
  H+  H117  1  0.78732373  0.22661319  0.59095167  1
  H+  H118  1  0.55475597  0.43627894  0.90713719  1
  H+  H119  1  0.22289373  0.44031485  0.35022846  1
  H+  H120  1  0.57217163  0.12707289  0.38965815  1
  H+  H121  1  0.88991079  0.45258340  0.35535383  1
  H+  H122  1  0.84078523  0.74863930  0.43810564  1
  H+  H123  1  0.32324400  0.83494249  0.23717502  1
  H+  H124  1  0.45125349  0.56336939  0.57805470  1
  H+  H125  1  0.56476731  0.80353004  1.02891422  1
  H+  H126  1  0.85312991  0.81165585  0.27454312  1
  H+  H127  1  0.53204035  0.79356287  0.81542776  1
  H+  H128  1  0.64129268  0.49100776  0.24362815  1
  H+  H129  1  0.77722286  0.54615092  0.08699340  1
  H+  H130  1  0.46968232  -0.09113127  0.33556947  1
  H+  H131  1  0.90519400  0.45915328  0.89439663  1
  H+  H132  1  0.44329671  0.54609436  0.15312991  1
  H+  H133  1  0.57393732  0.77372038  0.33597718  1
  H+  H134  1  0.22934177  0.12826117  0.90333638  1
  H+  H135  1  0.07457400  0.89378951  0.61249518  1
  H+  H136  1  0.10087968  0.20713135  0.63649608  1
  H+  H137  1  0.26053648  0.40428436  0.90067906  1
  H+  H138  1  0.28721326  0.46867417  0.90161418  1
  H+  H139  1  0.95136386  0.79079092  0.98877360  1
  H+  H140  1  0.90355409  0.10733995  0.84574383  1
  H+  H141  1  0.09968036  0.54043989  0.16403721  1
  H+  H142  1  0.10687427  0.21445107  0.12180959  1
  H+  H143  1  0.87649853  0.78614228  0.85633360  1
  O2-  O144  1  0.10524500  0.21245655  0.23233713  1
  O2-  O145  1  0.10096302  0.21197996  0.70480046  1
  O2-  O146  1  0.09805266  0.52816645  0.23220532  1
  O2-  O147  1  0.11306000  0.56728193  0.69405801  1
  O2-  O148  1  0.11428455  0.88517864  0.20747400  1
  O2-  O149  1  0.08348824  0.88538454  0.71900639  1
  O2-  O150  1  0.45213765  0.23014984  0.22205668  1
  O2-  O151  1  0.46518706  0.24607155  0.78938293  1
  O2-  O152  1  0.43853564  0.54618248  0.22041579  1
  O2-  O153  1  0.44337185  0.56724468  0.68720513  1
  O2-  O154  1  0.47697615  0.90762155  0.26956346  1
  O2-  O155  1  0.42244406  0.89990538  0.67879322  1
  O2-  O156  1  0.79106479  0.24053000  0.22251469  1
  O2-  O157  1  0.79759256  0.23929588  0.70941589  1
  O2-  O158  1  0.78330829  0.56170173  0.20212558  1
  O2-  O159  1  0.81075319  0.56726189  0.66991263  1
  O2-  O160  1  0.77951086  0.83130398  0.09125461  1
  O2-  O161  1  0.77248199  0.91162457  0.70938701  1
  O2-  O162  1  0.22558251  0.10262390  0.27980662  1
  O2-  O163  1  0.22462428  0.11797294  0.78000246  1
  O2-  O164  1  0.21805215  0.43832753  0.28115898  1
  O2-  O165  1  0.21093571  0.44205047  0.73206586  1
  O2-  O166  1  0.24100098  0.78322989  0.24940474  1
  O2-  O167  1  0.23003228  0.78417674  0.78328581  1
  O2-  O168  1  0.57473751  0.13833281  0.27396647  1
  O2-  O169  1  0.58157899  0.12588709  0.76583884  1
  O2-  O170  1  0.56211363  0.45259711  0.26865776  1
  O2-  O171  1  0.63386941  0.45714597  0.78929218  1
  O2-  O172  1  0.56622962  0.76964684  0.26851890  1
  O2-  O173  1  0.54571898  0.80342860  0.74994818  1
  O2-  O174  1  0.87554877  0.10649361  0.27803472  1
  O2-  O175  1  0.89430556  0.11611185  0.77975637  1
  O2-  O176  1  0.89680531  0.45370019  0.28712481  1
  O2-  O177  1  0.89930558  0.45722492  0.76704346  1
  O2-  O178  1  0.87693462  0.79014600  0.21908799  1
  O2-  O179  1  0.88563561  0.79960999  0.78862208  1
  O2-  O180  1  0.22222258  0.11596822  0.46441723  1
  O2-  O181  1  0.23134151  0.12585474  0.97062704  1
  O2-  O182  1  0.22381586  0.44193460  0.46087097  1
  O2-  O183  1  0.21892576  0.44484861  1.06805721  1
  O2-  O184  1  0.23713683  0.76722913  0.42199558  1
  O2-  O185  1  0.21510054  0.75096202  0.98067841  1
  O2-  O186  1  0.57120831  0.11950742  0.45781465  1
  O2-  O187  1  0.57453610  0.08015847  0.95352220  1
  O2-  O188  1  0.56138800  0.44109056  0.45741065  1
  O2-  O189  1  0.54995148  0.43640380  0.97425557  1
  O2-  O190  1  0.55724771  0.77727268  0.45826268  1
  O2-  O191  1  0.56767190  0.84944334  1.08103153  1
  O2-  O192  1  0.87653770  0.09849071  0.46502557  1
  O2-  O193  1  0.93772503  0.07013342  0.96064998  1
  O2-  O194  1  0.89259792  0.44824487  0.47128131  1
  O2-  O195  1  0.90348567  0.45648496  0.96203309  1
  O2-  O196  1  0.85034791  0.76728682  0.50284289  1
  O2-  O197  1  0.86896179  0.75663051  0.96590138  1
  O2-  O198  1  0.11821795  0.23539688  0.05479178  1
  O2-  O199  1  0.11066932  0.22043524  0.52168845  1
  O2-  O200  1  0.10799435  0.54938724  0.05206457  1
  O2-  O201  1  0.11834270  0.56200452  0.51244670  1
  O2-  O202  1  0.07850423  0.84723395  0.02166425  1
  O2-  O203  1  0.07070607  0.89080116  0.54272296  1
  O2-  O204  1  0.43921494  0.21039754  0.04742672  1
  O2-  O205  1  0.43498811  0.22070428  0.50864492  1
  O2-  O206  1  0.43593694  0.52974820  0.03268703  1
  O2-  O207  1  0.45316857  0.56482271  0.50890563  1
  O2-  O208  1  0.39954805  0.91262317  0.04767604  1
  O2-  O209  1  0.44426116  0.88344539  0.50277637  1
  O2-  O210  1  0.78912935  0.24641917  0.03745421  1
  O2-  O211  1  0.78702352  0.22311403  0.52292477  1
  O2-  O212  1  0.77167452  0.54043980  0.01883934  1
  O2-  O213  1  0.78378319  0.53803371  0.57296536  1
  O2-  O214  1  0.80069865  0.95059533  0.09865598  1
  O2-  O215  1  0.77865998  0.90730153  0.54282795  1
