# generated using pymatgen
data_H2O
_symmetry_space_group_name_H-M   'P 1'
_cell_length_a   13.50432492
_cell_length_b   13.49750989
_cell_length_c   14.68458932
_cell_angle_alpha   89.93520817
_cell_angle_beta   90.08336843
_cell_angle_gamma   119.95679643
_symmetry_Int_Tables_number   1
_chemical_formula_structural   H2O
_chemical_formula_sum   'H144 O72'
_cell_volume   2319.03534268
_cell_formula_units_Z   72
loop_
 _symmetry_equiv_pos_site_id
 _symmetry_equiv_pos_as_xyz
  1  'x, y, z'
loop_
 _atom_type_symbol
 _atom_type_oxidation_number
  H+  1.0
  O2-  -2.0
loop_
 _atom_site_type_symbol
 _atom_site_label
 _atom_site_symmetry_multiplicity
 _atom_site_fract_x
 _atom_site_fract_y
 _atom_site_fract_z
 _atom_site_occupancy
  H+  H0  1  0.82606371  0.13549514  0.30679640  1
  H+  H1  1  0.85217228  0.15227206  0.98873472  1
  H+  H2  1  0.47859443  0.19540965  0.03424074  1
  H+  H3  1  0.46902844  0.50700779  0.50791133  1
  H+  H4  1  0.13622725  0.28301563  0.72878669  1
  H+  H5  1  0.17222010  -0.01707400  1.01904862  1
  H+  H6  1  0.70276904  0.84534752  0.74080705  1
  H+  H7  1  0.78917448  0.51388869  -0.00041716  1
  H+  H8  1  0.73878964  0.19297919  0.73019715  1
  H+  H9  1  0.52258069  0.83394172  0.25949450  1
  H+  H10  1  0.10727181  0.21345403  0.10598851  1
  H+  H11  1  0.36930590  0.53087030  0.24375270  1
  H+  H12  1  0.88958148  0.48943140  0.76280611  1
  H+  H13  1  0.47779058  0.84363450  0.00179439  1
  H+  H14  1  0.86632451  0.83134825  0.26439891  1
  H+  H15  1  0.18135729  0.15683794  -0.00657812  1
  H+  H16  1  0.79031651  0.63305289  -0.01503370  1
  H+  H17  1  0.35727234  0.84175475  1.00500444  1
  H+  H18  1  0.47258987  0.82676024  0.50830853  1
  H+  H19  1  0.16211212  0.86243537  0.74546925  1
  H+  H20  1  0.73645804  0.21979788  0.50794323  1
  H+  H21  1  0.02316352  0.16055574  0.73590308  1
  H+  H22  1  0.17277345  0.69376568  -0.00888215  1
  H+  H23  1  0.51200548  0.81243982  0.75728080  1
  H+  H24  1  0.61091323  0.48538887  -0.02705411  1
  H+  H25  1  0.81362537  0.84860945  0.50348551  1
  H+  H26  1  0.13541203  0.82467867  0.52400307  1
  H+  H27  1  0.44182286  0.56874347  0.10817812  1
  H+  H28  1  0.85133765  0.18514972  0.73490227  1
  H+  H29  1  0.72831311  0.53738714  0.23688277  1
  H+  H30  1  0.85980762  0.70724498  0.49543559  1
  H+  H31  1  0.63317066  0.81754403  0.49025698  1
  H+  H32  1  0.47049962  0.51874920  0.01783591  1
  H+  H33  1  0.54208631  0.51537075  0.24926023  1
  H+  H34  1  0.05334183  0.52164555  0.73854258  1
  H+  H35  1  0.18672257  0.02410042  0.49381150  1
  H+  H36  1  0.13100904  0.61968388  0.24221949  1
  H+  H37  1  0.35904370  0.19172901  1.02121764  1
  H+  H38  1  0.19311665  0.38191921  0.49261354  1
  H+  H39  1  0.43641729  0.92338777  0.50297167  1
  H+  H40  1  0.81840525  0.24250915  0.59353488  1
  H+  H41  1  0.30156411  0.49478631  1.01326729  1
  H+  H42  1  0.18882162  0.73315514  0.37507782  1
  H+  H43  1  0.99407901  0.48643183  1.00593748  1
  H+  H44  1  0.84917839  1.01907183  0.75969402  1
  H+  H45  1  0.64501412  0.52877191  0.78840923  1
  H+  H46  1  0.30510900  0.82259190  0.76315675  1
  H+  H47  1  0.28248130  0.75630528  0.30350765  1
  H+  H48  1  0.85387262  0.35546056  -0.00562412  1
  H+  H49  1  0.15553699  0.84709429  0.24798084  1
  H+  H50  1  0.18961320  0.15764784  0.75420574  1
  H+  H51  1  1.02960442  0.84619952  0.51682301  1
  H+  H52  1  0.80993377  1.01967696  0.44948485  1
  H+  H53  1  0.40860095  0.09303605  0.69313628  1
  H+  H54  1  0.30843031  0.13775482  0.48881548  1
  H+  H55  1  0.50506865  0.02257453  0.99907233  1
  H+  H56  1  0.26456953  0.44162811  0.67468130  1
  H+  H57  1  0.17176415  0.20053135  0.50155798  1
  H+  H58  1  -0.01402057  0.83403023  0.26615839  1
  H+  H59  1  0.62305398  0.48026238  0.75425103  1
  H+  H60  1  0.48233911  0.34278301  0.47590846  1
  H+  H61  1  0.80096751  -0.03202444  1.00670203  1
  H+  H62  1  0.50386918  0.18373367  0.50005147  1
  H+  H63  1  0.48701599  0.65262659  0.24294144  1
  H+  H64  1  0.60535778  0.06611460  0.46811537  1
  H+  H65  1  0.98832193  0.84450796  0.76298409  1
  H+  H66  1  0.19584985  0.04378019  0.76150355  1
  H+  H67  1  0.88323097  0.36617028  0.76089821  1
  H+  H68  1  0.48025241  0.52449385  0.74551263  1
  H+  H69  1  0.27426416  0.76172236  0.51285410  1
  H+  H70  1  0.53353352  0.04291358  0.25113090  1
  H+  H71  1  0.14233996  0.29548309  0.01937862  1
  H+  H72  1  0.41287058  0.35384614  0.78916272  1
  H+  H73  1  0.70241974  0.17719269  0.23992451  1
  H+  H74  1  0.96709198  0.14603843  0.99375354  1
  H+  H75  1  0.78358715  0.22384455  0.10179272  1
  H+  H76  1  0.89373237  0.46148161  0.40012866  1
  H+  H77  1  0.18759519  0.70527448  0.75706092  1
  H+  H78  1  0.51532287  0.69678719  0.48864562  1
  H+  H79  1  0.22278222  0.10698023  0.35170947  1
  H+  H80  1  0.41567830  0.37493715  0.40637321  1
  H+  H81  1  0.18792247  1.03067125  0.26176525  1
  H+  H82  1  0.84880869  0.64817918  0.24992407  1
  H+  H83  1  0.70008543  0.18808325  1.01557652  1
  H+  H84  1  0.85557914  0.49367123  0.26014462  1
  H+  H85  1  0.83152243  0.14591831  0.46105466  1
  H+  H86  1  0.17459385  0.53330729  0.72483968  1
  H+  H87  1  0.15881356  0.18351977  0.23863904  1
  H+  H88  1  0.19442733  0.50418857  0.48875768  1
  H+  H89  1  0.62243243  0.81647756  0.98713485  1
  H+  H90  1  0.16892119  0.86292714  1.01609383  1
  H+  H91  1  0.70912545  0.86371693  0.24164705  1
  H+  H92  1  0.52487818  0.66836927  0.73447020  1
  H+  H93  1  0.17818306  0.48258273  0.25681858  1
  H+  H94  1  0.49882440  0.96581003  0.73581368  1
  H+  H95  1  0.13999196  0.50864186  0.02408296  1
  H+  H96  1  0.55669570  0.15585810  0.77172826  1
  H+  H97  1  0.82547286  0.80990447  -0.01191533  1
  H+  H98  1  0.87169243  0.39000998  0.49193798  1
  H+  H99  1  0.36696174  0.16797373  0.73877983  1
  H+  H100  1  0.84920656  0.36809806  0.26443158  1
  H+  H101  1  0.37172023  0.89223457  0.22245082  1
  H+  H102  1  0.36161973  0.52466278  0.51724552  1
  H+  H103  1  0.76873593  0.54259822  0.74292030  1
  H+  H104  1  0.72307205  0.52837254  0.52923953  1
  H+  H105  1  0.50409055  0.69566805  0.98931403  1
  H+  H106  1  0.15730759  0.30027959  0.23621998  1
  H+  H107  1  0.36718824  0.16824941  0.25592795  1
  H+  H108  1  0.58468287  0.12744981  0.38487148  1
  H+  H109  1  0.54762105  0.76949466  0.84946385  1
  H+  H110  1  0.44494022  0.89447995  0.13838981  1
  H+  H111  1  0.22059019  0.45562631  0.92608319  1
  H+  H112  1  0.57432694  0.46106774  0.33028497  1
  H+  H113  1  0.22605802  0.45380377  0.34634435  1
  H+  H114  1  0.44129823  0.87895983  0.65130148  1
  H+  H115  1  0.82483804  0.98077475  0.23362060  1
  H+  H116  1  0.21688754  0.77119343  0.90051263  1
  H+  H117  1  0.77354190  0.88948874  0.59011321  1
  H+  H118  1  0.12196189  0.89999561  0.65540100  1
  H+  H119  1  0.90814175  0.43677553  0.90148344  1
  H+  H120  1  0.49920216  0.11059563  0.93120255  1
  H+  H121  1  0.52386816  0.15804187  0.25654702  1
  H+  H122  1  0.12051118  0.22627184  0.58877695  1
  H+  H123  1  0.13296416  0.60213944  0.58925953  1
  H+  H124  1  0.08899172  0.54485442  0.11230140  1
  H+  H125  1  0.01277235  0.50109704  0.24153863  1
  H+  H126  1  0.47925058  0.57624078  0.63626506  1
  H+  H127  1  0.49456658  0.36818048  0.99803417  1
  H+  H128  1  0.84033850  0.52515270  0.50777208  1
  H+  H129  1  0.46443506  0.43422374  0.87671243  1
  H+  H130  1  0.76450050  0.89163451  0.09662947  1
  H+  H131  1  0.29796300  0.43469043  0.77522838  1
  H+  H132  1  0.90161805  0.78993664  0.40724465  1
  H+  H133  1  0.82287239  0.84723972  0.73645284  1
  H+  H134  1  0.88204568  0.78421885  0.90362262  1
  H+  H135  1  0.55755305  0.79160846  0.34971977  1
  H+  H136  1  0.60981297  0.10852037  0.84554514  1
  H+  H137  1  0.88578085  0.71855973  0.75755206  1
  H+  H138  1  0.12968053  0.89552416  0.15509578  1
  H+  H139  1  0.22978183  0.12584511  0.90399012  1
  H+  H140  1  0.83498587  0.57437720  0.64967055  1
  H+  H141  1  0.45951667  0.21591524  0.58985702  1
  H+  H142  1  0.44764111  0.22752116  0.17112680  1
  H+  H143  1  0.89179631  0.10080873  0.84961928  1
  O2-  O144  1  0.11840838  0.22145760  0.21221681  1
  O2-  O145  1  0.10307738  0.20230436  0.71028307  1
  O2-  O146  1  0.09392765  0.54252803  0.21381215  1
  O2-  O147  1  0.13037304  0.57138435  0.71044201  1
  O2-  O148  1  0.12236941  0.89233372  0.22465712  1
  O2-  O149  1  0.12779065  0.90873630  0.72341994  1
  O2-  O150  1  0.44867768  0.20572597  0.23524664  1
  O2-  O151  1  0.43836261  0.17243370  0.71174791  1
  O2-  O152  1  0.44894962  0.57289234  0.21894423  1
  O2-  O153  1  0.51350957  0.59312298  0.70187186  1
  O2-  O154  1  0.44640468  0.90218259  0.20708996  1
  O2-  O155  1  0.44750759  0.88461080  0.71918933  1
  O2-  O156  1  0.78532394  0.22125614  0.21716541  1
  O2-  O157  1  0.81990184  0.23436892  0.71115168  1
  O2-  O158  1  0.81176341  0.56966694  0.22476902  1
  O2-  O159  1  0.84659499  0.57712339  0.71823497  1
  O2-  O160  1  0.78709099  0.90054946  0.21455472  1
  O2-  O161  1  0.78016216  0.88592291  0.71376513  1
  O2-  O162  1  0.22788708  0.11162641  0.28397049  1
  O2-  O163  1  0.23764860  0.12665690  0.78052560  1
  O2-  O164  1  0.22815482  0.45277016  0.27876648  1
  O2-  O165  1  0.23796454  0.43669547  0.73728250  1
  O2-  O166  1  0.20591809  0.74604784  0.30837959  1
  O2-  O167  1  0.22440979  0.78385830  0.78428077  1
  O2-  O168  1  0.57441144  0.12224228  0.27506923  1
  O2-  O169  1  0.59673910  0.11170450  0.78006124  1
  O2-  O170  1  0.58973837  0.48143368  0.26581497  1
  O2-  O171  1  0.42030970  0.42369755  0.81544925  1
  O2-  O172  1  0.56305130  0.79455952  0.28177912  1
  O2-  O173  1  0.55317004  0.77256173  0.78030934  1
  O2-  O174  1  0.83425201  0.14749021  0.23905265  1
  O2-  O175  1  0.89341313  0.10055649  0.78124092  1
  O2-  O176  1  0.89378888  0.44832779  0.28489674  1
  O2-  O177  1  0.92266989  0.44391172  0.79032619  1
  O2-  O178  1  0.90706109  0.79503660  0.29252983  1
  O2-  O179  1  0.90560485  0.79610712  0.77881649  1
  O2-  O180  1  0.22743753  0.10364393  0.46976084  1
  O2-  O181  1  0.23058566  0.12513242  0.97164467  1
  O2-  O182  1  0.23641747  0.46457384  0.47086278  1
  O2-  O183  1  0.21769650  0.45265348  0.99233460  1
  O2-  O184  1  0.19127989  0.72473822  0.49544212  1
  O2-  O185  1  0.22143898  0.77256727  0.96872218  1
  O2-  O186  1  0.58890359  0.12714816  0.45422694  1
  O2-  O187  1  0.54599649  0.10617719  0.97995698  1
  O2-  O188  1  0.48344141  0.40982082  0.44526894  1
  O2-  O189  1  0.52305713  0.44387622  0.96692068  1
  O2-  O190  1  0.55068815  0.77786037  0.46829637  1
  O2-  O191  1  0.54238636  0.77386478  0.96078025  1
  O2-  O192  1  0.81357793  0.08476303  0.41593215  1
  O2-  O193  1  0.88833255  0.10867343  0.96603136  1
  O2-  O194  1  0.89586424  0.46788289  0.46799038  1
  O2-  O195  1  0.90271972  0.43720572  0.97072782  1
  O2-  O196  1  0.89738512  0.78895806  0.47578792  1
  O2-  O197  1  0.86342343  0.76695331  0.96876809  1
  O2-  O198  1  0.10329183  0.21368258  0.03586363  1
  O2-  O199  1  0.14364381  0.25063214  0.52504550  1
  O2-  O200  1  0.09051850  0.54289511  0.04086843  1
  O2-  O201  1  0.14425616  0.60401464  0.52191412  1
  O2-  O202  1  0.14031998  0.90730266  0.04884630  1
  O2-  O203  1  0.11081375  0.88018884  0.53994874  1
  O2-  O204  1  0.43847400  0.23753850  0.04778202  1
  O2-  O205  1  0.45723688  0.21689327  0.52242045  1
  O2-  O206  1  0.43340734  0.56331700  0.03935450  1
  O2-  O207  1  0.44435912  0.55804067  0.53832987  1
  O2-  O208  1  0.43920142  0.88568754  0.02625757  1
  O2-  O209  1  0.41942830  0.85304844  0.53480784  1
  O2-  O210  1  0.78153484  0.22719739  0.03311272  1
  O2-  O211  1  0.81702517  0.25048468  0.52596373  1
  O2-  O212  1  0.74003631  0.54653321  -0.00983781  1
  O2-  O213  1  0.80507863  0.57061965  0.54103123  1
  O2-  O214  1  0.75359166  0.88791661  0.02917477  1
  O2-  O215  1  0.76717575  0.88424093  0.52259126  1
