# generated using pymatgen
data_H2O
_symmetry_space_group_name_H-M   'P 1'
_cell_length_a   13.49317850
_cell_length_b   13.48805249
_cell_length_c   14.67487459
_cell_angle_alpha   89.99816391
_cell_angle_beta   90.00738042
_cell_angle_gamma   119.98647901
_symmetry_Int_Tables_number   1
_chemical_formula_structural   H2O
_chemical_formula_sum   'H144 O72'
_cell_volume   2313.27729040
_cell_formula_units_Z   72
loop_
 _symmetry_equiv_pos_site_id
 _symmetry_equiv_pos_as_xyz
  1  'x, y, z'
loop_
 _atom_type_symbol
 _atom_type_oxidation_number
  H+  1.0
  O2-  -2.0
loop_
 _atom_site_type_symbol
 _atom_site_label
 _atom_site_symmetry_multiplicity
 _atom_site_fract_x
 _atom_site_fract_y
 _atom_site_fract_z
 _atom_site_occupancy
  H+  H0  1  0.82022177  0.63588250  0.52530031  1
  H+  H1  1  0.70329215  0.86477551  0.74231654  1
  H+  H2  1  0.81376043  0.28794273  0.74761313  1
  H+  H3  1  0.51759010  0.49200792  0.76369655  1
  H+  H4  1  0.54117338  0.77546762  0.38141206  1
  H+  H5  1  0.62797857  0.48026977  0.25466439  1
  H+  H6  1  0.48005465  0.64154707  0.73542689  1
  H+  H7  1  0.35914066  0.51806821  0.50561172  1
  H+  H8  1  0.36162751  0.17903909  0.77038097  1
  H+  H9  1  0.76810004  0.20974199  0.65634631  1
  H+  H10  1  0.11849002  0.96383988  0.75672939  1
  H+  H11  1  0.29160480  0.81119339  0.49552462  1
  H+  H12  1  0.03765027  0.17930127  0.73688026  1
  H+  H13  1  0.47517437  0.63900235  0.50032317  1
  H+  H14  1  0.18050706  0.67207850  0.77231664  1
  H+  H15  1  0.21135203  0.44416766  0.39995689  1
  H+  H16  1  0.14565741  0.85062600  0.24518069  1
  H+  H17  1  0.80368143  0.83972988  0.00897697  1
  H+  H18  1  0.47675307  0.96994128  0.50142044  1
  H+  H19  1  0.96163443  0.15647059  0.25552208  1
  H+  H20  1  0.51784054  0.84563717  0.75868398  1
  H+  H21  1  0.51071912  0.02004416  0.99686923  1
  H+  H22  1  0.69385448  0.50965187  0.01270016  1
  H+  H23  1  0.84563699  0.02882740  0.48482798  1
  H+  H24  1  0.62048561  0.80161194  0.99775674  1
  H+  H25  1  0.13880741  0.62766725  0.51512103  1
  H+  H26  1  0.62404277  0.80931011  0.24810869  1
  H+  H27  1  0.63499947  0.49375820  0.49175890  1
  H+  H28  1  0.95731827  0.81334952  0.76377762  1
  H+  H29  1  0.15497648  0.96880650  0.51760774  1
  H+  H30  1  0.81172708  0.51420883  0.24928535  1
  H+  H31  1  0.80965146  0.16974045  0.23728846  1
  H+  H32  1  0.10510216  0.21743528  0.59599312  1
  H+  H33  1  0.23741791  0.09343195  0.70711820  1
  H+  H34  1  0.02657379  0.84686043  0.01244446  1
  H+  H35  1  0.46732704  0.50674399  0.24173753  1
  H+  H36  1  0.21064719  0.75999235  -0.09202154  1
  H+  H37  1  0.68510615  0.52294787  0.74809610  1
  H+  H38  1  0.47009964  0.83664865  1.01584255  1
  H+  H39  1  0.96461963  0.45634904  0.76480429  1
  H+  H40  1  0.96326325  0.14762620  0.48846374  1
  H+  H41  1  0.30117991  0.47088333  0.74975684  1
  H+  H42  1  0.18487157  0.34801420  0.74839769  1
  H+  H43  1  0.29444350  0.79383103  0.76919750  1
  H+  H44  1  0.17498765  0.03285624  0.25661250  1
  H+  H45  1  0.51575792  0.49323142  0.48697853  1
  H+  H46  1  0.82687872  0.97737714  0.74367709  1
  H+  H47  1  0.17719082  0.36351276  0.48827103  1
  H+  H48  1  0.95446629  0.47665019  0.50305702  1
  H+  H49  1  0.98198101  0.81028028  0.51481383  1
  H+  H50  1  0.83550256  0.81141847  0.76562222  1
  H+  H51  1  0.29349639  0.15076757  0.25706162  1
  H+  H52  1  0.28481879  0.80794006  0.26852825  1
  H+  H53  1  0.95713786  0.47621637  0.99948879  1
  H+  H54  1  0.18659684  0.34413885  -0.01813731  1
  H+  H55  1  0.63251869  0.14782330  0.48229960  1
  H+  H56  1  0.80855656  0.84905771  0.22841539  1
  H+  H57  1  0.62038534  0.83670183  0.46744706  1
  H+  H58  1  0.84718207  0.14690409  0.75991818  1
  H+  H59  1  0.13471119  0.62801914  1.01754786  1
  H+  H60  1  0.14754168  0.49499667  0.74020208  1
  H+  H61  1  0.80720123  0.50994998  0.52452129  1
  H+  H62  1  0.16249819  0.49068781  0.25823630  1
  H+  H63  1  0.95903387  0.13966401  0.99388245  1
  H+  H64  1  0.16125064  0.69036741  0.27486019  1
  H+  H65  1  0.49022042  0.31375179  0.49543556  1
  H+  H66  1  0.35773999  0.48901836  0.00685481  1
  H+  H67  1  0.51727270  0.15348285  0.47422683  1
  H+  H68  1  0.47388020  0.96011208  0.23912807  1
  H+  H69  1  0.80658624  0.29598696  0.51376167  1
  H+  H70  1  0.05719354  0.59097385  0.18519836  1
  H+  H71  1  0.51294585  0.14128158  0.77640668  1
  H+  H72  1  0.97457931  0.49923171  0.27512073  1
  H+  H73  1  0.28628851  0.80751975  0.99816150  1
  H+  H74  1  0.42776096  0.54105406  0.15105024  1
  H+  H75  1  0.50381352  0.68775212  0.24972664  1
  H+  H76  1  0.35895892  0.17331811  0.00156687  1
  H+  H77  1  0.80881804  0.17827146  0.50848800  1
  H+  H78  1  0.71607528  0.79744321  0.53403294  1
  H+  H79  1  0.47757532  0.17324340  1.00734842  1
  H+  H80  1  0.68287394  0.16802426  0.23391258  1
  H+  H81  1  0.17840300  1.02264620  -0.01969890  1
  H+  H82  1  0.15519101  0.16954140  0.73504395  1
  H+  H83  1  0.15687860  0.85052887  0.52193847  1
  H+  H84  1  0.51443251  0.14980577  0.24969774  1
  H+  H85  1  0.68500796  0.16101162  0.01485289  1
  H+  H86  1  0.80952181  0.16377254  1.01541812  1
  H+  H87  1  -0.04099280  0.82321502  0.24191718  1
  H+  H88  1  0.47961229  0.29690923  0.23734771  1
  H+  H89  1  0.13895652  0.16309145  0.00551748  1
  H+  H90  1  0.47112281  0.61399003  0.01526340  1
  H+  H91  1  0.28083346  0.48827338  0.25500507  1
  H+  H92  1  0.47332027  -0.03544206  0.73694387  1
  H+  H93  1  0.85253761  0.37434852  0.27195168  1
  H+  H94  1  0.86974824  0.81813859  0.50573013  1
  H+  H95  1  0.21365029  0.10867521  0.39775457  1
  H+  H96  1  0.13790984  0.30429676  0.23712519  1
  H+  H97  1  0.13988464  0.50992840  0.51053777  1
  H+  H98  1  0.77895147  0.89152741  0.60862582  1
  H+  H99  1  0.84113940  0.69225826  0.99830196  1
  H+  H100  1  0.84102762  0.70401980  0.24344407  1
  H+  H101  1  0.14293073  0.18044388  0.50486452  1
  H+  H102  1  0.51102173  0.47542740  0.99560224  1
  H+  H103  1  0.29845239  0.15479737  0.48229187  1
  H+  H104  1  0.47211096  0.84950193  0.49842570  1
  H+  H105  1  0.83773271  1.02140515  -0.00933118  1
  H+  H106  1  0.51276565  0.35785935  -0.01203391  1
  H+  H107  1  0.83985265  0.35658047  -0.00003517  1
  H+  H108  1  0.55054885  0.44303034  0.34365646  1
  H+  H109  1  0.14242418  0.18704579  0.24221408  1
  H+  H110  1  0.76329551  0.88415339  0.09517169  1
  H+  H111  1  0.76435425  0.20042526  0.13011623  1
  H+  H112  1  0.14286161  0.84220260  0.00875192  1
  H+  H113  1  0.87643219  0.44224070  0.41388859  1
  H+  H114  1  0.53588574  0.76137875  0.91307339  1
  H+  H115  1  0.77307548  0.54711007  0.15529408  1
  H+  H116  1  0.88156854  0.11503218  0.34522725  1
  H+  H117  1  0.10393296  0.53958990  0.65641230  1
  H+  H118  1  0.47170475  0.84023934  0.23847645  1
  H+  H119  1  0.11460604  0.89158934  0.15136580  1
  H+  H120  1  0.88791538  0.10992042  0.85008861  1
  H+  H121  1  0.43123076  0.88109370  0.10231779  1
  H+  H122  1  0.55786654  0.45432277  0.85559487  1
  H+  H123  1  0.81204211  0.50896496  0.01260651  1
  H+  H124  1  0.76768754  0.56147592  0.65182583  1
  H+  H125  1  0.55671747  0.11084974  0.33886448  1
  H+  H126  1  0.23266022  0.42226669  0.89252610  1
  H+  H127  1  0.48142532  0.29570475  0.76819575  1
  H+  H128  1  0.87686180  0.76930229  0.90840762  1
  H+  H129  1  0.45346708  0.23052991  0.58137035  1
  H+  H130  1  0.63091350  0.13868031  0.76502167  1
  H+  H131  1  0.10246842  0.20814327  0.09479578  1
  H+  H132  1  0.45032537  0.56782496  0.64418916  1
  H+  H133  1  0.09147218  0.88363755  0.66973381  1
  H+  H134  1  0.81232117  0.65538611  0.74722725  1
  H+  H135  1  0.20888713  0.77224179  0.40873053  1
  H+  H136  1  0.21630954  0.10069296  0.89029083  1
  H+  H137  1  0.55673122  0.09871758  0.90681240  1
  H+  H138  1  0.43841983  0.88776525  0.64521425  1
  H+  H139  1  0.61191853  0.90306221  0.83330209  1
  H+  H140  1  0.80364542  0.96635628  0.23466736  1
  H+  H141  1  0.88360555  0.42113439  0.85217006  1
  H+  H142  1  0.43794994  0.21641351  0.14860758  1
  H+  H143  1  0.10782677  0.53851204  0.09838081  1
  O2-  O144  1  0.09851745  0.22247905  0.21669654  1
  O2-  O145  1  0.11537026  0.21621615  0.71012958  1
  O2-  O146  1  0.08357870  0.56499550  0.23720735  1
  O2-  O147  1  0.10479604  0.53544777  0.72417648  1
  O2-  O148  1  0.11099797  0.89509779  0.21922652  1
  O2-  O149  1  0.07428989  0.88143219  0.73559623  1
  O2-  O150  1  0.44012295  0.21498445  0.21672875  1
  O2-  O151  1  0.44332531  0.21437415  0.74959039  1
  O2-  O152  1  0.42782241  0.54802814  0.21943370  1
  O2-  O153  1  0.45188952  0.56409692  0.71259419  1
  O2-  O154  1  0.42903507  0.87935811  0.21826119  1
  O2-  O155  1  0.43867299  0.88428576  0.71334717  1
  O2-  O156  1  0.76506679  0.20570656  0.20799780  1
  O2-  O157  1  0.76833300  0.20485962  0.72396756  1
  O2-  O158  1  0.76809866  0.54969472  0.22309181  1
  O2-  O159  1  0.76663344  0.56879219  0.72198164  1
  O2-  O160  1  0.76202422  0.88745244  0.21002088  1
  O2-  O161  1  0.78291427  0.89568077  0.71949353  1
  O2-  O162  1  0.21330808  0.11394079  0.27996005  1
  O2-  O163  1  0.21059270  0.10641415  0.76529445  1
  O2-  O164  1  0.20055614  0.44696766  0.27822934  1
  O2-  O165  1  0.22234285  0.42865467  0.77373202  1
  O2-  O166  1  0.20708693  0.77521893  0.29503780  1
  O2-  O167  1  0.22119889  0.74910346  0.80124468  1
  O2-  O168  1  0.55731212  0.11011438  0.27017035  1
  O2-  O169  1  0.55137997  0.09571862  0.79121035  1
  O2-  O170  1  0.54596453  0.43813372  0.27595957  1
  O2-  O171  1  0.56085470  0.45516693  0.78670518  1
  O2-  O172  1  0.54336298  0.76946564  0.27182607  1
  O2-  O173  1  0.57513483  0.83322727  0.79668346  1
  O2-  O174  1  0.87947301  0.11673701  0.27691388  1
  O2-  O175  1  0.88957738  0.10768328  0.78227821  1
  O2-  O176  1  0.88518729  0.45057161  0.29884955  1
  O2-  O177  1  0.88331841  0.41212757  0.78518238  1
  O2-  O178  1  0.87581943  0.78737444  0.25429986  1
  O2-  O179  1  0.87069090  0.76545821  0.78637306  1
  O2-  O180  1  0.21612188  0.11072839  0.46607565  1
  O2-  O181  1  0.21905381  0.10385172  0.95797910  1
  O2-  O182  1  0.21875035  0.44522910  0.46781635  1
  O2-  O183  1  0.23973609  0.42254606  0.95997522  1
  O2-  O184  1  0.20944453  0.76937974  0.47751810  1
  O2-  O185  1  0.20564821  0.76641765  0.97697131  1
  O2-  O186  1  0.55374809  0.10851503  0.45422464  1
  O2-  O187  1  0.55710291  0.10183617  0.97547583  1
  O2-  O188  1  0.55634136  0.45307322  0.46471531  1
  O2-  O189  1  0.55464573  0.43974783  0.96824299  1
  O2-  O190  1  0.54131270  0.78129720  0.45077433  1
  O2-  O191  1  0.53708180  0.75873706  0.98019590  1
  O2-  O192  1  0.88272706  0.10858783  0.46347386  1
  O2-  O193  1  0.87730881  0.10403531  0.97184243  1
  O2-  O194  1  0.87264561  0.43719222  0.48253454  1
  O2-  O195  1  0.87587935  0.43478061  0.97524092  1
  O2-  O196  1  0.89934846  0.76572394  0.49663965  1
  O2-  O197  1  0.87855542  0.77349670  0.97621845  1
  O2-  O198  1  0.09601756  0.20132577  0.02717389  1
  O2-  O199  1  0.10103584  0.21938990  0.52717903  1
  O2-  O200  1  0.08805592  0.54566884  0.03560197  1
  O2-  O201  1  0.09739912  0.54623904  0.53642426  1
  O2-  O202  1  0.10842037  0.88894385  0.03136216  1
  O2-  O203  1  0.11893238  0.89234774  0.54715800  1
  O2-  O204  1  0.43809747  0.21486206  0.02801748  1
  O2-  O205  1  0.45111667  0.23074141  0.51456919  1
  O2-  O206  1  0.43703788  0.53373409  0.03710568  1
  O2-  O207  1  0.44073155  0.56127263  0.52759528  1
  O2-  O208  1  0.43482845  0.88340025  0.03391528  1
  O2-  O209  1  0.43644787  0.89084266  0.52751777  1
  O2-  O210  1  0.76568187  0.20058814  0.04228128  1
  O2-  O211  1  0.76399560  0.21301375  0.53232571  1
  O2-  O212  1  0.77404308  0.55167442  0.03625309  1
  O2-  O213  1  0.76881370  0.55321523  0.54634365  1
  O2-  O214  1  0.76136502  0.88067422  0.02652742  1
  O2-  O215  1  0.77032687  0.87923162  0.54001050  1
