# generated using pymatgen
data_H2O
_symmetry_space_group_name_H-M   'P 1'
_cell_length_a   13.52581402
_cell_length_b   13.52339685
_cell_length_c   14.70720212
_cell_angle_alpha   89.97450955
_cell_angle_beta   90.01838405
_cell_angle_gamma   120.02960885
_symmetry_Int_Tables_number   1
_chemical_formula_structural   H2O
_chemical_formula_sum   'H144 O72'
_cell_volume   2329.05743420
_cell_formula_units_Z   72
loop_
 _symmetry_equiv_pos_site_id
 _symmetry_equiv_pos_as_xyz
  1  'x, y, z'
loop_
 _atom_type_symbol
 _atom_type_oxidation_number
  H+  1.0
  O2-  -2.0
loop_
 _atom_site_type_symbol
 _atom_site_label
 _atom_site_symmetry_multiplicity
 _atom_site_fract_x
 _atom_site_fract_y
 _atom_site_fract_z
 _atom_site_occupancy
  H+  H0  1  0.17601855  0.96789657  0.75280958  1
  H+  H1  1  0.85382884  0.70430665  0.99214319  1
  H+  H2  1  0.30191728  0.81058586  1.00449712  1
  H+  H3  1  1.00626840  0.84109690  0.23426729  1
  H+  H4  1  0.52926909  0.35813714  0.26226113  1
  H+  H5  1  0.82334028  0.46828814  0.77111590  1
  H+  H6  1  0.52146503  0.13129118  0.74426896  1
  H+  H7  1  1.00552300  0.83012892  0.48546351  1
  H+  H8  1  0.50155753  0.30887674  0.01600251  1
  H+  H9  1  -0.01402616  0.19058886  -0.03197166  1
  H+  H10  1  0.78625306  0.01947352  0.95215062  1
  H+  H11  1  -0.02714125  0.81723313  0.76382377  1
  H+  H12  1  0.15957519  0.28463776  0.26669741  1
  H+  H13  1  0.19408874  0.48097589  0.96101570  1
  H+  H14  1  0.70449947  0.51061776  0.50503994  1
  H+  H15  1  0.52527116  0.70341637  -0.03676619  1
  H+  H16  1  -0.03504617  0.48363360  -0.01285401  1
  H+  H17  1  -0.02579826  0.13818445  0.25777784  1
  H+  H18  1  0.21104441  0.80651463  0.34802419  1
  H+  H19  1  0.81394714  0.84202097  0.22439238  1
  H+  H20  1  0.81037252  0.30247740  0.02428010  1
  H+  H21  1  0.84063946  0.68459288  0.47672591  1
  H+  H22  1  0.18558167  0.60088306  0.58078696  1
  H+  H23  1  0.18898657  0.05992316  0.27281911  1
  H+  H24  1  0.17657189  0.82347869  0.48630310  1
  H+  H25  1  0.31286370  0.80548604  0.76620482  1
  H+  H26  1  0.48360282  0.17268426  0.51852489  1
  H+  H27  1  0.38358506  0.50504841  0.26756102  1
  H+  H28  1  0.57290401  0.78603585  0.40135701  1
  H+  H29  1  0.64689349  0.82012907  0.25682875  1
  H+  H30  1  0.20554964  0.12744579  0.71469345  1
  H+  H31  1  0.48699500  0.29081875  0.51762556  1
  H+  H32  1  0.76925700  0.88736609  0.08493348  1
  H+  H33  1  0.37408942  0.85229254  0.50474454  1
  H+  H34  1  0.84133636  0.80521311  0.47868019  1
  H+  H35  1  0.81494966  0.85090429  0.99817142  1
  H+  H36  1  0.52862068  0.47661661  0.27245627  1
  H+  H37  1  0.82511205  0.52565654  0.01196416  1
  H+  H38  1  0.51916061  0.69302129  0.75160143  1
  H+  H39  1  0.10481896  0.31331189  0.47857256  1
  H+  H40  1  0.82578104  0.51777025  0.51098443  1
  H+  H41  1  0.11750071  0.18742907  0.77452714  1
  H+  H42  1  0.16278575  0.72344997  0.26107596  1
  H+  H43  1  0.64809903  0.49470115  0.99761267  1
  H+  H44  1  0.70883390  0.85237067  0.50690048  1
  H+  H45  1  0.27713491  0.04199595  0.32710432  1
  H+  H46  1  0.82010788  0.96278910  0.22934121  1
  H+  H47  1  0.49141491  0.96596784  0.23846300  1
  H+  H48  1  0.89809258  0.09023357  0.34497486  1
  H+  H49  1  0.22024040  0.16319289  -0.00951411  1
  H+  H50  1  0.69786332  0.51325499  0.24319273  1
  H+  H51  1  0.48163426  0.84253744  0.00857701  1
  H+  H52  1  0.77667594  0.21843154  0.10847981  1
  H+  H53  1  0.64438987  0.82348555  0.97336041  1
  H+  H54  1  0.38799659  0.18672550  1.01055891  1
  H+  H55  1  0.13053182  0.02343312  0.49497932  1
  H+  H56  1  0.82427447  0.29936348  0.52755602  1
  H+  H57  1  0.23124480  0.77696233  0.91174341  1
  H+  H58  1  -0.02922857  0.82382869  -0.00954974  1
  H+  H59  1  0.97112823  0.13390221  0.98993063  1
  H+  H60  1  0.53110774  0.70061505  0.26564961  1
  H+  H61  1  0.86974228  0.43961025  0.90910669  1
  H+  H62  1  0.18739125  0.71191829  0.47412796  1
  H+  H63  1  0.52271645  0.15094102  0.26518589  1
  H+  H64  1  0.52839905  0.49222653  -0.00163687  1
  H+  H65  1  0.52824644  0.82163169  0.49096512  1
  H+  H66  1  0.88114219  0.77157310  0.33713199  1
  H+  H67  1  0.16100832  -0.02836024  1.01164664  1
  H+  H68  1  0.47944572  0.28272512  0.74773828  1
  H+  H69  1  0.77726428  0.13094484  0.96212008  1
  H+  H70  1  0.36951258  0.53074220  0.73476779  1
  H+  H71  1  0.14972237  0.50667692  0.50741890  1
  H+  H72  1  0.52356441  0.02646128  0.49695349  1
  H+  H73  1  0.17682606  0.36192720  0.74431446  1
  H+  H74  1  0.48416063  -0.03298161  0.73380002  1
  H+  H75  1  0.97023036  0.48161106  0.49672233  1
  H+  H76  1  0.84559015  0.68901005  0.24987069  1
  H+  H77  1  0.82014239  0.84604478  0.73949345  1
  H+  H78  1  0.06997240  0.14141712  0.46626567  1
  H+  H79  1  0.93352309  0.46612286  0.28073989  1
  H+  H80  1  0.54938454  0.46984745  0.76404322  1
  H+  H81  1  0.10611386  0.53327771  0.22249513  1
  H+  H82  1  0.16429975  0.63922633  -0.00494418  1
  H+  H83  1  0.93566533  0.45974068  0.77770734  1
  H+  H84  1  0.21573604  0.38441699  0.53702031  1
  H+  H85  1  0.48576580  0.84755775  0.73054821  1
  H+  H86  1  0.20965878  0.32681946  1.01196441  1
  H+  H87  1  0.65584131  0.81851645  0.74696643  1
  H+  H88  1  0.53578094  0.48230326  0.49455997  1
  H+  H89  1  0.81498013  0.17108391  0.25640640  1
  H+  H90  1  0.38312441  0.18963307  0.24320519  1
  H+  H91  1  0.40712406  0.53732798  0.50640582  1
  H+  H92  1  0.21833444  0.47898334  0.29508324  1
  H+  H93  1  0.83385481  0.96306989  0.51498209  1
  H+  H94  1  0.36670551  0.52108595  -0.02033705  1
  H+  H95  1  0.14423486  0.62985291  0.75365063  1
  H+  H96  1  0.01043464  0.18733472  0.73477765  1
  H+  H97  1  0.69369365  0.16774799  0.25688205  1
  H+  H98  1  0.14089987  0.84795699  0.24742461  1
  H+  H99  1  0.49740214  0.85197826  0.23990262  1
  H+  H100  1  0.63844545  0.14598135  0.50197327  1
  H+  H101  1  0.81056546  0.62769323  0.73933671  1
  H+  H102  1  0.48477685  1.00528291  -0.01993613  1
  H+  H103  1  0.15473930  0.85024289  1.01657878  1
  H+  H104  1  0.83708781  0.04056454  0.73313082  1
  H+  H105  1  0.80859148  0.18495184  0.67588493  1
  H+  H106  1  0.80915277  0.50569957  0.24819084  1
  H+  H107  1  0.51012054  0.13322398  0.97789533  1
  H+  H108  1  0.23421280  0.42304253  0.38220577  1
  H+  H109  1  0.53372449  0.41994049  0.86248231  1
  H+  H110  1  0.06351354  0.87066840  0.58011302  1
  H+  H111  1  0.44835821  0.52595487  0.17358493  1
  H+  H112  1  0.44430962  0.88153028  0.59843958  1
  H+  H113  1  0.46028954  0.57277506  0.65231575  1
  H+  H114  1  0.54233831  0.08079240  0.83333781  1
  H+  H115  1  0.03742421  0.57671430  0.16672193  1
  H+  H116  1  0.19798839  0.80883169  0.78267675  1
  H+  H117  1  0.56552672  0.43259263  0.40608736  1
  H+  H118  1  0.23999265  0.11271014  0.89813505  1
  H+  H119  1  0.10034952  0.89080529  0.14567566  1
  H+  H120  1  0.52101194  0.65529921  0.50990044  1
  H+  H121  1  0.23367587  0.43735229  0.87500120  1
  H+  H122  1  0.57214868  0.78549423  0.84568933  1
  H+  H123  1  0.78462323  0.56316767  0.10130806  1
  H+  H124  1  0.32770143  0.14448965  0.74416396  1
  H+  H125  1  0.77406716  0.55118605  0.65165342  1
  H+  H126  1  0.45956258  0.22707371  0.15077695  1
  H+  H127  1  0.44839754  0.87910256  0.10482319  1
  H+  H128  1  0.42595196  0.59958490  0.06459510  1
  H+  H129  1  0.83922788  0.11430746  0.81591272  1
  H+  H130  1  0.45205789  0.21473774  0.65000218  1
  H+  H131  1  0.89039306  0.78090555  0.84900087  1
  H+  H132  1  0.87817172  0.42875914  0.41561050  1
  H+  H133  1  0.14452880  0.23035778  0.17043698  1
  H+  H134  1  0.17683116  0.48048262  0.75001259  1
  H+  H135  1  0.82436555  0.33972338  0.27989543  1
  H+  H136  1  0.55506572  0.10693708  0.35656938  1
  H+  H137  1  0.20570975  0.12033082  0.42573749  1
  H+  H138  1  0.14284161  0.54304531  0.06756553  1
  H+  H139  1  0.77738657  0.87569463  0.64581728  1
  H+  H140  1  0.88140438  0.16397984  0.50402073  1
  H+  H141  1  0.06378290  0.54761993  0.67398954  1
  H+  H142  1  0.10161950  0.21065117  0.03272822  1
  H+  H143  1  0.15565412  0.87319133  0.68085306  1
  O2-  O144  1  0.11802948  0.21173188  0.23383199  1
  O2-  O145  1  0.09553005  0.22134086  0.72572822  1
  O2-  O146  1  0.06849917  0.57858943  0.22713354  1
  O2-  O147  1  0.09734992  0.54804852  0.73275965  1
  O2-  O148  1  0.09194606  0.88818092  0.21528108  1
  O2-  O149  1  0.13142483  0.88151057  0.74137852  1
  O2-  O150  1  0.46231683  0.22959317  0.21980332  1
  O2-  O151  1  0.44866522  0.20536879  0.71903765  1
  O2-  O152  1  0.46008727  0.54842271  0.23740842  1
  O2-  O153  1  0.45203881  0.57907549  0.71896581  1
  O2-  O154  1  0.45585192  0.88762011  0.21280304  1
  O2-  O155  1  0.43782685  0.87952632  0.71134052  1
  O2-  O156  1  0.77637619  0.21421167  0.23850385  1
  O2-  O157  1  0.77853768  0.23071059  0.64524169  1
  O2-  O158  1  0.77924720  0.55290958  0.22047619  1
  O2-  O159  1  0.76668454  0.54767737  0.71873600  1
  O2-  O160  1  0.77450346  0.88351989  0.20373317  1
  O2-  O161  1  0.77241692  0.87774551  0.71397724  1
  O2-  O162  1  0.25754590  0.09998874  0.31071302  1
  O2-  O163  1  0.23970191  0.10284364  0.76172966  1
  O2-  O164  1  0.25328666  0.43518272  0.31583373  1
  O2-  O165  1  0.22388233  0.44437284  0.76384644  1
  O2-  O166  1  0.19862093  0.80443592  0.27989635  1
  O2-  O167  1  0.23488662  0.76262368  0.79617949  1
  O2-  O168  1  0.55630166  0.10496484  0.28860936  1
  O2-  O169  1  0.55202583  0.08203558  0.76549578  1
  O2-  O170  1  0.57081045  0.43709748  0.29053684  1
  O2-  O171  1  0.50123660  0.40210572  0.80016272  1
  O2-  O172  1  0.56969582  0.78057634  0.28701904  1
  O2-  O173  1  0.57117497  0.77989095  0.77334814  1
  O2-  O174  1  0.89269669  0.09414416  0.27853289  1
  O2-  O175  1  0.86735715  0.12103755  0.75066521  1
  O2-  O176  1  0.85546157  0.42081784  0.30439698  1
  O2-  O177  1  0.85876443  0.42853913  0.80293177  1
  O2-  O178  1  0.88501965  0.77223102  0.26857293  1
  O2-  O179  1  0.89159843  0.78283813  0.78084191  1
  O2-  O180  1  0.15847927  0.10477214  0.48077077  1
  O2-  O181  1  0.24195586  0.10822083  0.96505680  1
  O2-  O182  1  0.17278327  0.39399569  0.48776679  1
  O2-  O183  1  0.23927163  0.44386881  0.94374906  1
  O2-  O184  1  0.22371181  0.79385344  0.45782420  1
  O2-  O185  1  0.22096287  0.77333104  0.97941106  1
  O2-  O186  1  0.56111165  0.10706904  0.47485041  1
  O2-  O187  1  0.49931930  0.06925849  0.93939343  1
  O2-  O188  1  0.56828075  0.43474162  0.47419871  1
  O2-  O189  1  0.56554267  0.44896128  0.97935969  1
  O2-  O190  1  0.57343672  0.78536052  0.46992206  1
  O2-  O191  1  0.56521293  0.78481903  0.94346817  1
  O2-  O192  1  0.90699562  0.11055044  0.48086093  1
  O2-  O193  1  0.77964424  0.07723828  0.91658642  1
  O2-  O194  1  0.88822166  0.43571720  0.48378961  1
  O2-  O195  1  0.88211610  0.44958797  0.97818246  1
  O2-  O196  1  0.87881758  0.76497479  0.44989928  1
  O2-  O197  1  0.89157380  0.78390004  0.96635146  1
  O2-  O198  1  0.18374197  0.25401661  0.04644102  1
  O2-  O199  1  0.02525765  0.18393380  0.45003472  1
  O2-  O200  1  0.12610081  0.55257451  0.00489749  1
  O2-  O201  1  0.13759413  0.57082819  0.52663368  1
  O2-  O202  1  0.11607689  0.89281926  0.03800589  1
  O2-  O203  1  0.08404000  0.87494485  0.51606562  1
  O2-  O204  1  0.46389142  0.22910801  0.04007235  1
  O2-  O205  1  0.44395330  0.21226201  0.54235822  1
  O2-  O206  1  0.44380101  0.56894094  0.01106428  1
  O2-  O207  1  0.48248171  0.57412446  0.53433359  1
  O2-  O208  1  0.43430529  0.87094874  0.03628730  1
  O2-  O209  1  0.45184100  0.88349737  0.52978690  1
  O2-  O210  1  0.77142019  0.22105751  0.04183322  1
  O2-  O211  1  0.79090365  0.21751005  0.54705048  1
  O2-  O212  1  0.78633490  0.56890930  0.03368440  1
  O2-  O213  1  0.78590567  0.56095927  0.52550920  1
  O2-  O214  1  0.76694026  0.88430060  0.01709899  1
  O2-  O215  1  0.78811525  0.88130485  0.53163598  1
