# generated using pymatgen
data_H2O
_symmetry_space_group_name_H-M   'P 1'
_cell_length_a   13.51693273
_cell_length_b   13.51339112
_cell_length_c   14.69923041
_cell_angle_alpha   89.98826364
_cell_angle_beta   89.91881544
_cell_angle_gamma   120.05500970
_symmetry_Int_Tables_number   1
_chemical_formula_structural   H2O
_chemical_formula_sum   'H144 O72'
_cell_volume   2323.94608094
_cell_formula_units_Z   72
loop_
 _symmetry_equiv_pos_site_id
 _symmetry_equiv_pos_as_xyz
  1  'x, y, z'
loop_
 _atom_type_symbol
 _atom_type_oxidation_number
  H+  1.0
  O2-  -2.0
loop_
 _atom_site_type_symbol
 _atom_site_label
 _atom_site_symmetry_multiplicity
 _atom_site_fract_x
 _atom_site_fract_y
 _atom_site_fract_z
 _atom_site_occupancy
  H+  H0  1  0.64900076  0.82648842  0.48974629  1
  H+  H1  1  0.77909388  0.66538766  0.54183109  1
  H+  H2  1  0.83587358  -0.01416173  0.49807946  1
  H+  H3  1  -0.00553302  0.48356195  0.75975017  1
  H+  H4  1  0.51087829  0.82065426  0.98666597  1
  H+  H5  1  0.87738226  0.48120728  0.75134940  1
  H+  H6  1  0.47227206  0.52232663  0.50225680  1
  H+  H7  1  0.82359404  0.29874872  -0.01227194  1
  H+  H8  1  0.52330216  0.13931287  -0.01392156  1
  H+  H9  1  -0.06596969  0.85150741  0.80081943  1
  H+  H10  1  0.27195550  0.11247987  -0.01043454  1
  H+  H11  1  0.51794118  0.66597012  0.24724764  1
  H+  H12  1  0.88481396  0.11180885  0.39471869  1
  H+  H13  1  0.81199130  0.16517016  -0.01212644  1
  H+  H14  1  0.88716311  0.87194033  0.46814627  1
  H+  H15  1  0.83888255  0.03195424  0.25123605  1
  H+  H16  1  0.49689359  -0.00006180  0.74571843  1
  H+  H17  1  0.67915743  0.16944488  0.98142890  1
  H+  H18  1  0.17408477  0.63987718  0.74641876  1
  H+  H19  1  0.80172409  0.88821468  0.58016543  1
  H+  H20  1  0.90768584  0.76762552  0.46976844  1
  H+  H21  1  0.16787697  0.79852478  0.98694931  1
  H+  H22  1  0.80417461  0.51758627  0.20636342  1
  H+  H23  1  0.14149581  0.62451266  0.23740674  1
  H+  H24  1  0.35740671  0.50112137  0.74156671  1
  H+  H25  1  0.28651025  0.47300726  0.25511766  1
  H+  H26  1  0.47736493  0.96966975  0.52789574  1
  H+  H27  1  0.48782941  0.31612300  0.74669148  1
  H+  H28  1  0.82015993  0.28216686  0.53056527  1
  H+  H29  1  0.35179380  0.83563024  0.24402199  1
  H+  H30  1  0.68895847  0.94044724  0.64146723  1
  H+  H31  1  0.84265102  0.71725987  0.78917076  1
  H+  H32  1  0.81972262  0.28876347  0.75020284  1
  H+  H33  1  1.02296165  0.50759352  0.22336092  1
  H+  H34  1  0.95294817  0.13557170  0.98936361  1
  H+  H35  1  0.61986263  0.50054908  0.47490142  1
  H+  H36  1  0.79361652  0.83922756  0.02241309  1
  H+  H37  1  0.20615779  0.82362385  0.75384558  1
  H+  H38  1  1.04471087  0.50822391  0.53107673  1
  H+  H39  1  0.52109868  0.16420129  0.75319510  1
  H+  H40  1  0.18171122  0.47093230  0.76036327  1
  H+  H41  1  0.01594846  0.82418490  0.02668177  1
  H+  H42  1  0.51617945  0.52302751  -0.01575956  1
  H+  H43  1  0.75575130  0.63737345  0.49559908  1
  H+  H44  1  0.84738275  0.44848702  0.55261856  1
  H+  H45  1  0.35223618  0.83080480  0.00642253  1
  H+  H46  1  0.43494276  0.55073675  0.65257460  1
  H+  H47  1  0.84455285  0.03604865  0.74800687  1
  H+  H48  1  0.57048033  0.44378109  0.99773453  1
  H+  H49  1  0.82842322  0.35510366  0.21365817  1
  H+  H50  1  0.49157906  0.01225526  0.22643110  1
  H+  H51  1  0.51012017  0.70437690  -0.02606560  1
  H+  H52  1  0.12952228  0.94431079  0.00742458  1
  H+  H53  1  0.18574086  0.30117801  0.50580680  1
  H+  H54  1  0.30178747  0.48682389  0.48586835  1
  H+  H55  1  0.81004572  0.85613279  0.23138865  1
  H+  H56  1  0.23186192  0.78146687  0.85024711  1
  H+  H57  1  0.01733790  0.17152785  0.24129608  1
  H+  H58  1  0.17002178  0.47431056  0.25508832  1
  H+  H59  1  0.37497738  0.86406275  0.75493177  1
  H+  H60  1  0.18005529  0.78951948  0.50157625  1
  H+  H61  1  0.96220353  0.46031128  0.99023295  1
  H+  H62  1  0.07144835  0.91319678  0.48030126  1
  H+  H63  1  0.16553317  0.34423555  -0.01434986  1
  H+  H64  1  0.84902144  0.14359795  0.48927790  1
  H+  H65  1  0.63584361  0.83073327  0.26473354  1
  H+  H66  1  0.36811236  0.22467361  0.52311129  1
  H+  H67  1  0.64211029  0.15933829  0.75513048  1
  H+  H68  1  0.36789859  0.84318162  0.52309257  1
  H+  H69  1  1.03007404  0.85168593  0.23325735  1
  H+  H70  1  0.28216854  0.14338838  0.24958628  1
  H+  H71  1  0.17726510  0.34849430  0.75699232  1
  H+  H72  1  0.14009998  0.28819099  0.24235455  1
  H+  H73  1  0.77170122  0.58638954  0.13385751  1
  H+  H74  1  0.33496504  0.49904309  -0.00873108  1
  H+  H75  1  0.69525524  0.17205938  0.53321881  1
  H+  H76  1  0.51231777  0.37389074  0.48261379  1
  H+  H77  1  0.72325084  0.60663561  0.99533181  1
  H+  H78  1  0.84227544  0.15154715  0.24661216  1
  H+  H79  1  0.16144509  0.01417377  0.24642792  1
  H+  H80  1  0.37201143  0.19272923  0.74495425  1
  H+  H81  1  0.84926039  0.70921582  0.24933620  1
  H+  H82  1  0.47523596  0.84378405  0.24618564  1
  H+  H83  1  0.78957349  0.54208025  0.82160606  1
  H+  H84  1  0.19104154  0.67930880  0.49772645  1
  H+  H85  1  0.14059435  0.49934322  1.00154503  1
  H+  H86  1  0.13018544  0.21120973  0.65126928  1
  H+  H87  1  0.45217783  0.25421617  0.60798160  1
  H+  H88  1  0.20524300  0.95618035  0.46699366  1
  H+  H89  1  0.11546311  0.88696285  0.14869313  1
  H+  H90  1  0.15545026  0.14283519  0.25061882  1
  H+  H91  1  0.68305278  0.17325040  0.20834836  1
  H+  H92  1  1.03990760  0.15964239  0.73610830  1
  H+  H93  1  0.13101760  0.16013479  0.00689065  1
  H+  H94  1  0.75539231  0.53107848  0.56469601  1
  H+  H95  1  0.19537697  0.03240458  0.75361312  1
  H+  H96  1  0.53155094  0.82916653  0.50032243  1
  H+  H97  1  0.64633502  0.49774262  0.24423596  1
  H+  H98  1  0.19065854  0.10517200  0.49754816  1
  H+  H99  1  0.18769287  0.14670120  0.75926840  1
  H+  H100  1  0.50395808  0.16446688  0.52347008  1
  H+  H101  1  0.44363075  0.24992145  -0.00596850  1
  H+  H102  1  0.50721504  0.49300330  0.75178960  1
  H+  H103  1  0.16879354  0.68060040  -0.01935053  1
  H+  H104  1  0.67695095  0.84429893  1.00805749  1
  H+  H105  1  0.48242229  0.64435755  0.50968239  1
  H+  H106  1  0.45952971  0.16786528  0.22615525  1
  H+  H107  1  0.53170432  0.51655630  0.24895333  1
  H+  H108  1  0.16060190  0.50479318  0.51469039  1
  H+  H109  1  0.85766202  0.43270588  0.29918447  1
  H+  H110  1  0.75953241  0.49442970  0.66291016  1
  H+  H111  1  0.45152818  0.90083944  0.65836778  1
  H+  H112  1  0.55572170  0.13016142  0.44359328  1
  H+  H113  1  0.40705317  0.55389271  0.08084303  1
  H+  H114  1  0.77750312  0.20355757  0.66625337  1
  H+  H115  1  0.90069694  0.08504108  0.84349407  1
  H+  H116  1  0.09739996  0.20507345  0.09597714  1
  H+  H117  1  0.10835998  0.54540766  0.09079007  1
  H+  H118  1  0.76939571  0.20957304  0.12517919  1
  H+  H119  1  0.89298498  0.42507895  0.89706049  1
  H+  H120  1  0.05792321  0.83808203  0.69720247  1
  H+  H121  1  0.55080108  0.46517644  0.84572782  1
  H+  H122  1  0.76690105  0.83265815  0.74483002  1
  H+  H123  1  0.20175853  0.08764167  0.89809809  1
  H+  H124  1  0.21248331  0.76332904  0.35088932  1
  H+  H125  1  0.14884579  0.91375222  0.62473117  1
  H+  H126  1  0.86675084  0.76269498  0.93686688  1
  H+  H127  1  0.42143552  0.19462903  0.09202167  1
  H+  H128  1  0.55988009  0.45460145  0.34169538  1
  H+  H129  1  0.83166542  0.01846408  0.98866015  1
  H+  H130  1  0.17437854  0.80912412  0.26395561  1
  H+  H131  1  0.68462362  0.52977805  0.76628276  1
  H+  H132  1  0.55932519  0.78661905  0.35698276  1
  H+  H133  1  0.46310763  0.28836944  0.23059066  1
  H+  H134  1  0.55516127  0.62862802  0.15769208  1
  H+  H135  1  0.54671103  0.10140607  0.30413144  1
  H+  H136  1  0.13502019  0.56051746  0.65718707  1
  H+  H137  1  0.75883523  0.89155206  0.14696714  1
  H+  H138  1  0.88816028  0.44636250  0.45290112  1
  H+  H139  1  0.90182370  0.80322885  0.33013626  1
  H+  H140  1  0.56671210  0.12097066  0.88726176  1
  H+  H141  1  0.21584868  0.43594430  0.40043400  1
  H+  H142  1  0.20459910  0.42130390  0.89374170  1
  H+  H143  1  0.42767161  0.86721788  0.09577021  1
  O2-  O144  1  0.10022261  0.20705810  0.22093288  1
  O2-  O145  1  0.12286806  0.21148230  0.71854257  1
  O2-  O146  1  0.10656007  0.54531645  0.21221201  1
  O2-  O147  1  0.12997152  0.55915059  0.72528376  1
  O2-  O148  1  0.11407784  0.89304776  0.21754480  1
  O2-  O149  1  0.13966528  0.89150375  0.69031028  1
  O2-  O150  1  0.41660445  0.20880270  0.20974868  1
  O2-  O151  1  0.45216881  0.23663736  0.72102311  1
  O2-  O152  1  0.50291121  0.59457120  0.20940560  1
  O2-  O153  1  0.43792737  0.54430345  0.71939029  1
  O2-  O154  1  0.43164162  0.87862456  0.21983435  1
  O2-  O155  1  0.45573453  0.91197704  0.72724867  1
  O2-  O156  1  0.76572482  0.21661313  0.19273685  1
  O2-  O157  1  0.76709428  0.20838921  0.73287241  1
  O2-  O158  1  0.76277945  0.56144019  0.19951098  1
  O2-  O159  1  0.77316415  0.56734612  0.76412604  1
  O2-  O160  1  0.76444210  0.89324459  0.21601372  1
  O2-  O161  1  0.73320422  0.83551582  0.68588193  1
  O2-  O162  1  0.19947306  0.09930425  0.26958152  1
  O2-  O163  1  0.22988453  0.10763461  0.78384761  1
  O2-  O164  1  0.20852145  0.43191151  0.27879710  1
  O2-  O165  1  0.21761497  0.42713790  0.78402295  1
  O2-  O166  1  0.21077473  0.76413975  0.28327602  1
  O2-  O167  1  0.24709073  0.78765657  0.78197329  1
  O2-  O168  1  0.53319044  0.09896615  0.23890136  1
  O2-  O169  1  0.55625684  0.11802289  0.77437187  1
  O2-  O170  1  0.56304386  0.46085639  0.27125972  1
  O2-  O171  1  0.55383324  0.45705015  0.77888047  1
  O2-  O172  1  0.55498846  0.78369039  0.28855850  1
  O2-  O173  1  0.70371781  0.92542020  0.70388694  1
  O2-  O174  1  0.88312846  0.11378263  0.27183276  1
  O2-  O175  1  0.91733874  0.06842673  0.78163990  1
  O2-  O176  1  0.86792785  0.43833143  0.23336994  1
  O2-  O177  1  0.91130896  0.43923332  0.77827413  1
  O2-  O178  1  0.89241733  0.79219521  0.26266755  1
  O2-  O179  1  0.86162185  0.78867232  0.82289125  1
  O2-  O180  1  0.23506895  0.18866616  0.48575321  1
  O2-  O181  1  0.19299927  0.08054802  0.96622772  1
  O2-  O182  1  0.21963152  0.43606570  0.46792903  1
  O2-  O183  1  0.20420486  0.42465931  0.96272576  1
  O2-  O184  1  0.22799146  0.76172391  0.47522046  1
  O2-  O185  1  0.20884793  0.76188972  0.95925998  1
  O2-  O186  1  0.54202186  0.11820142  0.50869496  1
  O2-  O187  1  0.57720255  0.12082874  0.95508348  1
  O2-  O188  1  0.54494965  0.44939318  0.44802698  1
  O2-  O189  1  0.58081826  0.51028445  0.96388718  1
  O2-  O190  1  0.56640601  0.78698347  0.47213494  1
  O2-  O191  1  0.55829539  0.78699801  0.96398819  1
  O2-  O192  1  0.88918124  0.10640333  0.46165902  1
  O2-  O193  1  0.87423724  0.09839206  0.96314468  1
  O2-  O194  1  0.89908286  0.42956077  0.51530525  1
  O2-  O195  1  0.88320912  0.41499390  0.96413814  1
  O2-  O196  1  0.93916471  0.84298071  0.44137738  1
  O2-  O197  1  0.86545358  0.75801360  1.00574493  1
  O2-  O198  1  0.09432828  0.20431298  0.02852035  1
  O2-  O199  1  0.16388595  0.22565453  0.53488040  1
  O2-  O200  1  0.10149237  0.54146957  0.02332873  1
  O2-  O201  1  0.12887086  0.55220020  0.54159648  1
  O2-  O202  1  0.09975988  0.86819003  0.03819803  1
  O2-  O203  1  0.14934838  0.95350418  0.51055906  1
  O2-  O204  1  0.41957663  0.17787223  0.02561439  1
  O2-  O205  1  0.45013160  0.25206143  0.53926409  1
  O2-  O206  1  0.41615860  0.54844048  0.01552732  1
  O2-  O207  1  0.43434787  0.56238295  0.52775156  1
  O2-  O208  1  0.43186995  0.87145504  0.02886388  1
  O2-  O209  1  0.44665976  0.88922369  0.54864686  1
  O2-  O210  1  0.77281305  0.21028730  0.00861047  1
  O2-  O211  1  0.77623460  0.20008555  0.54824153  1
  O2-  O212  1  0.80030128  0.63314905  0.02327153  1
  O2-  O213  1  0.74907704  0.46583118  0.59916563  1
  O2-  O214  1  0.75819715  0.88623342  0.03636908  1
  O2-  O215  1  0.80035901  0.89942848  0.51339272  1
