# generated using pymatgen
data_H2O
_symmetry_space_group_name_H-M   'P 1'
_cell_length_a   13.51483554
_cell_length_b   13.52191956
_cell_length_c   14.68774967
_cell_angle_alpha   90.05546186
_cell_angle_beta   89.98212038
_cell_angle_gamma   120.03511263
_symmetry_Int_Tables_number   1
_chemical_formula_structural   H2O
_chemical_formula_sum   'H144 O72'
_cell_volume   2323.70517234
_cell_formula_units_Z   72
loop_
 _symmetry_equiv_pos_site_id
 _symmetry_equiv_pos_as_xyz
  1  'x, y, z'
loop_
 _atom_type_symbol
 _atom_type_oxidation_number
  H+  1.0
  O2-  -2.0
loop_
 _atom_site_type_symbol
 _atom_site_label
 _atom_site_symmetry_multiplicity
 _atom_site_fract_x
 _atom_site_fract_y
 _atom_site_fract_z
 _atom_site_occupancy
  H+  H0  1  0.52994760  0.18341453  0.26523935  1
  H+  H1  1  0.52483203  0.66557859  0.26889142  1
  H+  H2  1  1.02610091  0.17174982  0.99504188  1
  H+  H3  1  1.01315593  0.19100730  0.22551414  1
  H+  H4  1  0.48421250  0.64978236  0.30828206  1
  H+  H5  1  0.13932243  0.66308465  1.02614288  1
  H+  H6  1  0.48733319  0.63236675  0.74681977  1
  H+  H7  1  0.47230937  0.68642171  0.99256657  1
  H+  H8  1  0.49954979  0.44461947  0.48458961  1
  H+  H9  1  0.49571907  -0.02536420  0.75508403  1
  H+  H10  1  0.16826179  0.14808600  0.75445756  1
  H+  H11  1  0.19648871  0.82399185  0.92277218  1
  H+  H12  1  0.34841307  0.17992918  0.74180048  1
  H+  H13  1  0.84481496  0.81184235  0.76453761  1
  H+  H14  1  0.01202251  0.49045744  0.29468997  1
  H+  H15  1  0.95516565  0.39187006  0.80857308  1
  H+  H16  1  0.53103138  0.58539721  0.53053651  1
  H+  H17  1  1.00899431  0.48829141  0.51413157  1
  H+  H18  1  0.14355091  0.48950835  0.50962049  1
  H+  H19  1  0.18048103  0.83561324  0.72309745  1
  H+  H20  1  0.67699309  0.83545049  0.51248012  1
  H+  H21  1  0.16781278  0.65988628  0.71676164  1
  H+  H22  1  0.63017011  0.47415488  0.74951596  1
  H+  H23  1  0.53569334  0.87504982  0.27233059  1
  H+  H24  1  0.05033932  0.53446137  0.01935233  1
  H+  H25  1  0.85698233  0.14262707  0.97618032  1
  H+  H26  1  0.44591928  0.55726118  0.61251180  1
  H+  H27  1  0.35044954  0.86810775  0.02135304  1
  H+  H28  1  0.46386662  0.17449021  0.75103234  1
  H+  H29  1  0.50334579  0.01044916  0.49474910  1
  H+  H30  1  0.33817978  0.47545976  0.21937765  1
  H+  H31  1  0.13088022  0.28557855  0.72862626  1
  H+  H32  1  0.19235100  0.99218012  0.24866141  1
  H+  H33  1  0.55758102  0.44681678  0.89341041  1
  H+  H34  1  0.24026623  0.80807583  0.64456097  1
  H+  H35  1  0.70003038  0.53764309  0.00881317  1
  H+  H36  1  0.45617711  0.84389942  0.01309961  1
  H+  H37  1  0.14298262  1.01643566  0.47890230  1
  H+  H38  1  0.37183124  0.19038349  1.00692711  1
  H+  H39  1  0.16155445  0.38257652  0.25347192  1
  H+  H40  1  0.42650455  0.88469525  0.15212517  1
  H+  H41  1  0.84153650  0.96803311  0.00816178  1
  H+  H42  1  0.81071767  0.48528204  0.98187804  1
  H+  H43  1  0.46861044  0.50352555  -0.01161641  1
  H+  H44  1  0.42103204  -0.04995261  0.23929258  1
  H+  H45  1  0.85435797  0.85741661  0.01387874  1
  H+  H46  1  0.17471128  0.33596384  -0.02662345  1
  H+  H47  1  0.81659757  0.62833432  0.50092529  1
  H+  H48  1  0.89761453  0.37401729  0.26750641  1
  H+  H49  1  0.80870203  0.33075172  0.71819815  1
  H+  H50  1  0.81136394  0.29496228  0.99891680  1
  H+  H51  1  0.52097917  0.37341204  0.98567212  1
  H+  H52  1  0.48822617  0.17251916  0.52188370  1
  H+  H53  1  0.79813065  0.94719550  0.50990090  1
  H+  H54  1  0.83665534  0.79939438  0.48423642  1
  H+  H55  1  0.65902697  0.13228606  0.50041280  1
  H+  H56  1  0.47113829  0.84646173  0.52254510  1
  H+  H57  1  0.12682011  0.86445953  0.14919787  1
  H+  H58  1  0.90285844  0.43261320  0.41849839  1
  H+  H59  1  0.48991489  0.18976825  0.00891760  1
  H+  H60  1  1.05308519  0.54129140  0.73840523  1
  H+  H61  1  0.82119802  0.51911725  0.72799648  1
  H+  H62  1  0.21301169  0.11383584  0.84553201  1
  H+  H63  1  0.30923397  0.46574758  -0.02305074  1
  H+  H64  1  0.44960428  0.22215986  0.14721411  1
  H+  H65  1  0.29590218  0.76225992  0.27739291  1
  H+  H66  1  0.63937413  0.80938729  0.76928563  1
  H+  H67  1  0.78461576  0.20768110  0.72330501  1
  H+  H68  1  1.01492937  0.15921419  0.73858146  1
  H+  H69  1  0.70021020  0.50581672  0.50371229  1
  H+  H70  1  0.48695643  0.69642942  0.48993568  1
  H+  H71  1  0.91174414  0.77676232  0.89961598  1
  H+  H72  1  0.19093918  0.49186723  0.75178332  1
  H+  H73  1  0.05663370  0.83483921  -0.00248402  1
  H+  H74  1  0.14199096  0.22281894  0.23820047  1
  H+  H75  1  0.29753825  0.47355450  0.49267017  1
  H+  H76  1  0.86567224  0.82040692  0.25260745  1
  H+  H77  1  0.50812437  0.35667819  0.75470243  1
  H+  H78  1  0.48395830  0.51076273  0.74185193  1
  H+  H79  1  0.85880959  0.48442573  0.49904333  1
  H+  H80  1  0.12177480  0.16709272  0.49388273  1
  H+  H81  1  0.98694416  0.21090120  0.46873085  1
  H+  H82  1  0.95872458  0.80736686  0.48939151  1
  H+  H83  1  0.30196139  0.47931538  0.75182441  1
  H+  H84  1  0.89244381  0.11956457  0.32918169  1
  H+  H85  1  0.37767912  0.85997453  0.74001230  1
  H+  H86  1  0.95064018  0.28303087  0.40174212  1
  H+  H87  1  0.83003191  0.96293422  0.75183473  1
  H+  H88  1  0.87398131  0.70242501  0.99110663  1
  H+  H89  1  0.18498870  0.56020777  0.26064207  1
  H+  H90  1  0.81539508  0.18606174  0.49237555  1
  H+  H91  1  0.29664173  0.82898622  0.50308922  1
  H+  H92  1  0.81920909  0.63521084  0.23211831  1
  H+  H93  1  0.52222952  0.34255551  0.49397755  1
  H+  H94  1  0.13583660  0.84724275  0.51180832  1
  H+  H95  1  0.18174974  0.14351434  -0.00890819  1
  H+  H96  1  0.18847061  0.10255621  0.22473258  1
  H+  H97  1  0.85526122  1.02387736  0.24588999  1
  H+  H98  1  0.69737009  0.52072787  0.23129889  1
  H+  H99  1  0.61809958  0.16636990  0.76472987  1
  H+  H100  1  0.04422805  0.83274148  0.23502562  1
  H+  H101  1  0.81821264  0.17578751  0.22313456  1
  H+  H102  1  0.51299170  1.03396358  -0.00262182  1
  H+  H103  1  0.13874382  0.97221709  0.74185806  1
  H+  H104  1  0.85190371  0.11389978  0.76606968  1
  H+  H105  1  0.71075603  0.19424300  0.22906818  1
  H+  H106  1  0.36719657  0.16700520  0.23484770  1
  H+  H107  1  0.51518385  0.36123602  0.25553892  1
  H+  H108  1  0.75841934  0.21174421  0.58707684  1
  H+  H109  1  0.77801564  0.56428937  0.10016630  1
  H+  H110  1  0.55031083  0.10324638  0.40498634  1
  H+  H111  1  0.88712528  0.44586607  0.84996768  1
  H+  H112  1  0.80008086  0.89271627  0.14157640  1
  H+  H113  1  0.73504174  0.37690505  0.92224453  1
  H+  H114  1  0.89938298  0.09651871  0.88812132  1
  H+  H115  1  0.44683446  0.21887653  0.60536279  1
  H+  H116  1  0.77613010  0.87938393  0.66255409  1
  H+  H117  1  0.89675216  0.77412215  0.34157269  1
  H+  H118  1  0.63747881  0.25067697  0.32676704  1
  H+  H119  1  0.64704381  0.95210326  0.32873772  1
  H+  H120  1  0.54231001  0.79399164  0.41005410  1
  H+  H121  1  0.45164061  0.90069131  0.61380608  1
  H+  H122  1  0.40856404  0.51023829  0.08142049  1
  H+  H123  1  0.45521388  0.47229593  0.21697453  1
  H+  H124  1  0.10431507  0.22582414  0.08523893  1
  H+  H125  1  0.63774100  0.14797243  0.99326086  1
  H+  H126  1  0.78496527  0.21942135  0.08811345  1
  H+  H127  1  0.08955819  0.20821960  0.58903225  1
  H+  H128  1  0.77708253  0.55241431  0.63964895  1
  H+  H129  1  0.18908446  0.08929312  0.38769681  1
  H+  H130  1  0.21779306  0.42356272  0.88054849  1
  H+  H131  1  0.02251510  0.84788164  0.74416268  1
  H+  H132  1  0.09194821  0.88813430  0.59781278  1
  H+  H133  1  0.21914110  0.44678404  0.34690868  1
  H+  H134  1  0.71835026  0.86349043  0.23163617  1
  H+  H135  1  0.19604977  0.03219799  0.98609830  1
  H+  H136  1  0.20867622  0.75230385  0.42837032  1
  H+  H137  1  0.55467759  0.43819873  0.34410983  1
  H+  H138  1  0.52301750  0.81257847  0.76493441  1
  H+  H139  1  0.17953858  0.35234805  0.49168491  1
  H+  H140  1  0.52983246  0.77120167  0.91114131  1
  H+  H141  1  0.55198942  0.11590842  0.86008747  1
  H+  H142  1  0.84606515  0.69412851  0.75780718  1
  H+  H143  1  0.11323767  0.54596748  0.60119302  1
  O2-  O144  1  0.09454366  0.24563676  0.20452555  1
  O2-  O145  1  0.09442208  0.20606283  0.70639092  1
  O2-  O146  1  0.15509844  0.61511156  0.26307215  1
  O2-  O147  1  0.12868448  0.57415974  0.70847411  1
  O2-  O148  1  0.12593839  0.86855771  0.21619058  1
  O2-  O149  1  0.10148426  0.89205600  0.71741029  1
  O2-  O150  1  0.44861571  0.21854692  0.21555461  1
  O2-  O151  1  0.43111191  0.21881296  0.72300307  1
  O2-  O152  1  0.39292853  0.46839035  0.17882668  1
  O2-  O153  1  0.44390513  0.55232965  0.72065242  1
  O2-  O154  1  0.42401289  0.88218184  0.22131612  1
  O2-  O155  1  0.46109453  0.89623645  0.72826022  1
  O2-  O156  1  0.78809195  0.22622868  0.20261324  1
  O2-  O157  1  0.75536622  0.25285735  0.69430865  1
  O2-  O158  1  0.77540872  0.55746563  0.20489246  1
  O2-  O159  1  0.77362640  0.55060083  0.70866816  1
  O2-  O160  1  0.79832049  0.89607415  0.21226797  1
  O2-  O161  1  0.77865012  0.87821834  0.72960810  1
  O2-  O162  1  0.22947798  0.07839449  0.26523588  1
  O2-  O163  1  0.21097205  0.10987852  0.77775223  1
  O2-  O164  1  0.21750834  0.45768106  0.28022715  1
  O2-  O165  1  0.21981931  0.44062449  0.77143614  1
  O2-  O166  1  0.24341286  0.70409528  0.32204680  1
  O2-  O167  1  0.23049569  0.80001509  0.71070546  1
  O2-  O168  1  0.58910524  0.17389786  0.30226478  1
  O2-  O169  1  0.54335441  0.11286854  0.79152079  1
  O2-  O170  1  0.55376325  0.44204388  0.27661881  1
  O2-  O171  1  0.55182451  0.43871650  0.77561973  1
  O2-  O172  1  0.59717250  0.87342913  0.30945547  1
  O2-  O173  1  0.55654401  0.76630084  0.78715372  1
  O2-  O174  1  0.88743438  0.10812559  0.26243438  1
  O2-  O175  1  0.90075480  0.08458232  0.78586454  1
  O2-  O176  1  0.94953484  0.41647842  0.31812953  1
  O2-  O177  1  0.92026700  0.43710466  0.79025789  1
  O2-  O178  1  0.90276807  0.77684673  0.27391570  1
  O2-  O179  1  0.88808234  0.77200718  0.78420119  1
  O2-  O180  1  0.16992045  0.09318141  0.45178572  1
  O2-  O181  1  0.22991355  0.11268731  0.96614813  1
  O2-  O182  1  0.21790550  0.43499502  0.47075926  1
  O2-  O183  1  0.22090830  0.41816045  0.94942157  1
  O2-  O184  1  0.21384258  0.78530828  0.48963922  1
  O2-  O185  1  0.19655461  0.81822733  0.98945328  1
  O2-  O186  1  0.55438693  0.09317539  0.47226904  1
  O2-  O187  1  0.55617533  0.11402331  0.97294822  1
  O2-  O188  1  0.55646644  0.42366606  0.46704141  1
  O2-  O189  1  0.55781429  0.45307332  0.96134699  1
  O2-  O190  1  0.53405159  0.77938881  0.47718259  1
  O2-  O191  1  0.50696465  0.76754173  0.97555105  1
  O2-  O192  1  0.92100996  0.20852809  0.43204161  1
  O2-  O193  1  0.90066172  0.10454153  0.95922926  1
  O2-  O194  1  0.89789751  0.43926323  0.48637224  1
  O2-  O195  1  0.81395002  0.42260215  0.94309535  1
  O2-  O196  1  0.87933863  0.76227694  0.46213252  1
  O2-  O197  1  0.92629304  0.78100644  0.96679431  1
  O2-  O198  1  0.10903902  0.21499699  0.01870976  1
  O2-  O199  1  0.09375310  0.21871601  0.52105426  1
  O2-  O200  1  0.12970543  0.58690725  0.03501968  1
  O2-  O201  1  0.09970200  0.52748138  0.53356973  1
  O2-  O202  1  0.13999775  0.88121181  0.02117540  1
  O2-  O203  1  0.08844148  0.88225843  0.53006233  1
  O2-  O204  1  0.45193400  0.23276382  0.03067878  1
  O2-  O205  1  0.45794592  0.22278125  0.53809406  1
  O2-  O206  1  0.41393951  0.52742324  0.01231371  1
  O2-  O207  1  0.45073560  0.55995624  0.54265107  1
  O2-  O208  1  0.43049493  0.89718797  0.04029291  1
  O2-  O209  1  0.43933129  0.89487180  0.54577448  1
  O2-  O210  1  0.78055058  0.21546981  0.01973142  1
  O2-  O211  1  0.74473617  0.16155804  0.53264989  1
  O2-  O212  1  0.78031474  0.56793239  0.02961865  1
  O2-  O213  1  0.78038709  0.54849490  0.52698510  1
  O2-  O214  1  0.81034866  0.89207290  0.03798420  1
  O2-  O215  1  0.75841981  0.86880169  0.53217370  1
