# generated using pymatgen
data_H2O
_symmetry_space_group_name_H-M   'P 1'
_cell_length_a   13.52118221
_cell_length_b   13.51478680
_cell_length_c   14.68588208
_cell_angle_alpha   90.02306532
_cell_angle_beta   89.97858939
_cell_angle_gamma   120.00967349
_symmetry_Int_Tables_number   1
_chemical_formula_structural   H2O
_chemical_formula_sum   'H144 O72'
_cell_volume   2323.87170179
_cell_formula_units_Z   72
loop_
 _symmetry_equiv_pos_site_id
 _symmetry_equiv_pos_as_xyz
  1  'x, y, z'
loop_
 _atom_type_symbol
 _atom_type_oxidation_number
  H+  1.0
  O2-  -2.0
loop_
 _atom_site_type_symbol
 _atom_site_label
 _atom_site_symmetry_multiplicity
 _atom_site_fract_x
 _atom_site_fract_y
 _atom_site_fract_z
 _atom_site_occupancy
  H+  H0  1  0.15481477  0.53718000  0.51764412  1
  H+  H1  1  0.63500722  0.85503620  0.79500465  1
  H+  H2  1  0.84808279  0.48091115  0.49351191  1
  H+  H3  1  0.71237008  0.02892139  0.79624060  1
  H+  H4  1  0.30471978  0.82495041  1.00215798  1
  H+  H5  1  0.63081246  0.81700655  1.00298071  1
  H+  H6  1  0.80571188  0.51138789  0.23864398  1
  H+  H7  1  0.21638995  0.78161501  0.88202970  1
  H+  H8  1  0.51216001  0.19282336  0.69800981  1
  H+  H9  1  0.17093256  0.50870448  0.75463216  1
  H+  H10  1  1.02160266  0.52398038  0.49943976  1
  H+  H11  1  0.32439357  0.49453794  0.00018022  1
  H+  H12  1  0.81606633  0.63149608  0.51404034  1
  H+  H13  1  0.42931422  0.23804173  0.58498163  1
  H+  H14  1  0.19235869  0.69753779  0.00226007  1
  H+  H15  1  0.61328300  0.14391991  0.25646263  1
  H+  H16  1  0.97271973  0.80726705  0.77055156  1
  H+  H17  1  0.48424902  0.85606763  0.01741592  1
  H+  H18  1  0.13495692  0.69769299  0.80531249  1
  H+  H19  1  -0.04996626  0.11314125  -0.02947100  1
  H+  H20  1  0.87064428  0.05828825  0.36154966  1
  H+  H21  1  0.85563885  0.36389397  0.49047845  1
  H+  H22  1  0.50777207  0.48437517  -0.00617563  1
  H+  H23  1  0.29277723  0.14090390  0.25368074  1
  H+  H24  1  0.84994109  0.79268696  0.75211368  1
  H+  H25  1  1.00406804  0.19560647  0.82710924  1
  H+  H26  1  0.92131445  0.43145932  0.25569953  1
  H+  H27  1  0.79107384  0.90704759  0.70802769  1
  H+  H28  1  0.11584083  0.12271807  0.21754401  1
  H+  H29  1  0.09876930  0.31039243  0.21594050  1
  H+  H30  1  0.30862191  0.14021990  0.48179993  1
  H+  H31  1  0.80818020  0.16706165  0.50152143  1
  H+  H32  1  0.50145684  0.52414312  0.24682189  1
  H+  H33  1  0.83111289  1.00849365  -0.00323267  1
  H+  H34  1  0.47815258  0.35467403  -0.00437170  1
  H+  H35  1  0.50369780  0.81228968  0.77581300  1
  H+  H36  1  0.47570105  0.85445657  0.24930177  1
  H+  H37  1  0.85595705  0.48110771  0.76115838  1
  H+  H38  1  0.17000958  0.61675317  0.71547662  1
  H+  H39  1  0.67813570  0.49380841  0.00617301  1
  H+  H40  1  0.51127265  0.53045048  0.75404767  1
  H+  H41  1  0.12833913  0.82647370  1.02188310  1
  H+  H42  1  0.81257518  0.81789469  0.24434986  1
  H+  H43  1  0.63670156  0.90858716  0.30978334  1
  H+  H44  1  0.82569852  0.67450006  -0.01131156  1
  H+  H45  1  0.47654741  0.97763907  0.50869519  1
  H+  H46  1  0.34331458  0.51817712  0.30838897  1
  H+  H47  1  0.17801580  0.35449931  0.69766201  1
  H+  H48  1  0.50790840  0.36277202  0.25672815  1
  H+  H49  1  0.41799548  0.22390531  0.15237603  1
  H+  H50  1  0.83626091  -0.01150099  0.26906083  1
  H+  H51  1  0.51881922  0.36843483  0.48422329  1
  H+  H52  1  0.70045619  0.51255189  0.50728534  1
  H+  H53  1  0.49472673  0.81097811  0.49955463  1
  H+  H54  1  0.80367190  1.01959587  0.85458757  1
  H+  H55  1  0.33430466  0.21234773  0.72418313  1
  H+  H56  1  0.51397372  0.70180459  0.50097888  1
  H+  H57  1  0.63970786  0.47939012  0.76993026  1
  H+  H58  1  0.33546540  0.49570883  0.76672943  1
  H+  H59  1  0.51285797  0.65174989  0.75508436  1
  H+  H60  1  0.56042345  0.18009413  0.69755813  1
  H+  H61  1  0.50980949  0.14720034  0.98174395  1
  H+  H62  1  0.16371868  0.21686891  -0.01041297  1
  H+  H63  1  0.82066701  0.18080253  0.02064169  1
  H+  H64  1  0.63534932  0.15101901  0.48537836  1
  H+  H65  1  0.97509830  0.48029437  0.76538330  1
  H+  H66  1  0.32140741  0.80826851  0.75287072  1
  H+  H67  1  0.80139039  0.82736950  0.00782208  1
  H+  H68  1  0.45308597  0.32877604  0.72206200  1
  H+  H69  1  0.93124224  0.07941451  0.50382319  1
  H+  H70  1  0.16484024  0.13650375  0.80738319  1
  H+  H71  1  0.86823621  0.49251220  0.93729812  1
  H+  H72  1  0.96501528  0.80695959  0.26780575  1
  H+  H73  1  0.29256296  0.82281924  0.49090475  1
  H+  H74  1  0.52688093  0.49048837  0.49184206  1
  H+  H75  1  0.16927467  0.82111874  0.25611763  1
  H+  H76  1  0.18038378  0.53343898  0.00940783  1
  H+  H77  1  0.55185245  0.43870905  0.85566173  1
  H+  H78  1  0.14698896  0.66030884  0.49759811  1
  H+  H79  1  0.10842947  0.37032229  0.21897063  1
  H+  H80  1  0.38403746  0.53268686  0.53624839  1
  H+  H81  1  0.09229748  0.21624662  0.45450906  1
  H+  H82  1  0.77605785  0.27483348  0.24942929  1
  H+  H83  1  0.01898506  0.16131647  0.79539103  1
  H+  H84  1  0.09012564  0.86745016  0.15212268  1
  H+  H85  1  0.47000412  0.18150046  0.23649338  1
  H+  H86  1  0.26058248  0.12247893  -0.02130590  1
  H+  H87  1  0.35327408  0.84862028  0.24376382  1
  H+  H88  1  0.18725955  0.66717994  0.24722111  1
  H+  H89  1  0.84615658  0.68664373  0.26620552  1
  H+  H90  1  0.14043752  0.95569198  0.23850593  1
  H+  H91  1  0.19942907  0.38543305  1.00770869  1
  H+  H92  1  0.87755288  0.78133372  0.40967375  1
  H+  H93  1  0.54094032  0.02861856  0.77753730  1
  H+  H94  1  0.00587994  0.81896931  0.02015795  1
  H+  H95  1  0.83630220  0.30783856  0.72458719  1
  H+  H96  1  0.09308189  0.53667910  0.23745896  1
  H+  H97  1  0.82330074  0.62575505  0.74780216  1
  H+  H98  1  0.19185951  0.41452578  0.54727710  1
  H+  H99  1  0.18167942  0.12253040  0.48142929  1
  H+  H100  1  0.69494062  0.82175555  0.24502925  1
  H+  H101  1  0.15612998  0.96341634  0.51400823  1
  H+  H102  1  0.78751362  0.22339945  0.58923790  1
  H+  H103  1  0.51516013  0.64899374  0.24846417  1
  H+  H104  1  0.17081900  0.81938655  0.49566429  1
  H+  H105  1  0.18389591  0.03646928  0.77578153  1
  H+  H106  1  0.48553433  0.18900897  0.50959955  1
  H+  H107  1  0.15565956  0.85818453  0.76212255  1
  H+  H108  1  0.79610793  0.83367279  0.62132471  1
  H+  H109  1  0.71386793  0.19701586  0.01877733  1
  H+  H110  1  0.24129826  0.47733853  0.44516499  1
  H+  H111  1  0.23693160  0.53441171  0.30212647  1
  H+  H112  1  0.08710426  0.13749163  0.06932231  1
  H+  H113  1  0.36677143  0.75219968  0.68308147  1
  H+  H114  1  0.59420922  0.09713406  0.86876653  1
  H+  H115  1  0.10850088  0.21867195  0.56131682  1
  H+  H116  1  0.69116835  0.51560761  0.23639312  1
  H+  H117  1  0.76480732  0.53845869  0.08927761  1
  H+  H118  1  -0.00534902  0.11359882  0.21866635  1
  H+  H119  1  0.87526221  0.43622574  0.35505784  1
  H+  H120  1  0.55928907  0.80107892  0.37096894  1
  H+  H121  1  0.75920709  0.20752402  0.15681427  1
  H+  H122  1  0.21305234  0.78791756  0.34905022  1
  H+  H123  1  0.45283062  0.56693271  0.10943974  1
  H+  H124  1  0.49266356  0.02901569  0.26181455  1
  H+  H125  1  0.03096707  0.85414697  0.52306722  1
  H+  H126  1  0.54749855  0.78055917  0.91595790  1
  H+  H127  1  0.73316798  0.18192779  0.72971824  1
  H+  H128  1  0.24720054  0.43902820  0.85025785  1
  H+  H129  1  0.21671277  0.09051673  0.34308263  1
  H+  H130  1  0.87555806  0.76041771  0.90432716  1
  H+  H131  1  0.82607770  0.95668542  0.49119144  1
  H+  H132  1  0.54883087  0.11211997  0.39977754  1
  H+  H133  1  0.77710724  0.54673001  0.65894516  1
  H+  H134  1  0.05199011  0.30063689  0.66209552  1
  H+  H135  1  0.12037856  0.89331152  0.66800193  1
  H+  H136  1  0.48751959  0.64726847  0.02014188  1
  H+  H137  1  0.51563235  0.03542800  1.00208848  1
  H+  H138  1  0.42529725  0.89709706  0.59763478  1
  H+  H139  1  0.44057814  0.89359054  0.10501994  1
  H+  H140  1  0.76864069  0.86518829  0.10119066  1
  H+  H141  1  0.47598993  0.57002038  0.61430660  1
  H+  H142  1  0.55584166  0.44361893  0.34607554  1
  H+  H143  1  0.16438259  0.57841314  0.10534999  1
  O2-  O144  1  0.06363092  0.13748630  0.18029475  1
  O2-  O145  1  0.12766015  0.31596259  0.64337841  1
  O2-  O146  1  0.17376326  0.58881247  0.22697509  1
  O2-  O147  1  0.12022313  0.53667192  0.73029105  1
  O2-  O148  1  0.09657697  0.87217006  0.22234846  1
  O2-  O149  1  0.11736521  0.89817563  0.73520133  1
  O2-  O150  1  0.43096376  0.22559138  0.22059208  1
  O2-  O151  1  0.39258515  0.27018608  0.68261180  1
  O2-  O152  1  0.46432988  0.57058127  0.22845729  1
  O2-  O153  1  0.47241538  0.57286322  0.72965969  1
  O2-  O154  1  0.43331891  0.88835241  0.21980351  1
  O2-  O155  1  0.39047337  0.82397532  0.71490692  1
  O2-  O156  1  0.73792699  0.19775938  0.22342491  1
  O2-  O157  1  0.80358481  0.23091725  0.69536652  1
  O2-  O158  1  0.77227190  0.55683568  0.21465075  1
  O2-  O159  1  0.77906630  0.54393687  0.72627802  1
  O2-  O160  1  0.77007874  0.85341622  0.21522951  1
  O2-  O161  1  0.78370765  0.83410989  0.68897515  1
  O2-  O162  1  0.21236049  0.09061734  0.27545993  1
  O2-  O163  1  0.22431402  0.11681296  0.79873107  1
  O2-  O164  1  0.27142488  0.49900994  0.34034096  1
  O2-  O165  1  0.25220943  0.44787703  0.78282058  1
  O2-  O166  1  0.21730819  0.78722069  0.28155579  1
  O2-  O167  1  0.20270053  0.77367143  0.81050164  1
  O2-  O168  1  0.53294838  0.10925287  0.28437809  1
  O2-  O169  1  0.61351744  0.07856958  0.80711785  1
  O2-  O170  1  0.55384659  0.44455992  0.27792682  1
  O2-  O171  1  0.55800772  0.44765561  0.78772516  1
  O2-  O172  1  0.57838372  0.82800647  0.30379437  1
  O2-  O173  1  0.55560587  0.78787005  0.80157878  1
  O2-  O174  1  0.87630908  0.06684020  0.29441257  1
  O2-  O175  1  0.75646874  -0.01163282  0.79851618  1
  O2-  O176  1  0.85731700  0.42858370  0.28810533  1
  O2-  O177  1  0.89225020  0.43509689  0.77950094  1
  O2-  O178  1  0.88504618  0.76555921  0.29333193  1
  O2-  O179  1  0.89108858  0.75952024  0.78810228  1
  O2-  O180  1  0.22739897  0.08713363  0.46171397  1
  O2-  O181  1  0.33864045  0.13853709  0.99217331  1
  O2-  O182  1  0.23103587  0.48730733  0.51292725  1
  O2-  O183  1  0.24561800  0.45244456  0.97021312  1
  O2-  O184  1  0.21089801  0.77896621  0.46898969  1
  O2-  O185  1  0.22400455  0.78011194  0.98010199  1
  O2-  O186  1  0.55275704  0.11171607  0.46841434  1
  O2-  O187  1  0.55925585  0.11416493  0.97481975  1
  O2-  O188  1  0.56424845  0.45019323  0.46371322  1
  O2-  O189  1  0.53525102  0.43327821  0.97058037  1
  O2-  O190  1  0.53738229  0.77693912  0.47210752  1
  O2-  O191  1  0.54761776  0.78056520  0.98426214  1
  O2-  O192  1  0.85063162  0.04020992  0.48463272  1
  O2-  O193  1  0.86698060  0.08338841  0.96383562  1
  O2-  O194  1  0.89383792  0.44583550  0.46925328  1
  O2-  O195  1  0.94894763  0.52949128  0.91634708  1
  O2-  O196  1  0.88415709  0.78411110  0.47822886  1
  O2-  O197  1  0.86701664  0.75791677  0.97212544  1
  O2-  O198  1  0.09946447  0.14105282  0.00120740  1
  O2-  O199  1  0.08792709  0.16897314  0.50622437  1
  O2-  O200  1  0.14755375  0.57578487  0.03967543  1
  O2-  O201  1  0.10403599  0.57525930  0.52203007  1
  O2-  O202  1  0.08349586  0.85939542  0.04783289  1
  O2-  O203  1  0.11163962  0.88461529  0.54197623  1
  O2-  O204  1  0.38282353  0.24073434  0.04836356  1
  O2-  O205  1  0.44141112  0.22927616  0.51802167  1
  O2-  O206  1  0.44895364  0.56527769  0.04153351  1
  O2-  O207  1  0.46684333  0.56570867  0.54617293  1
  O2-  O208  1  0.44377100  0.89778298  0.03682304  1
  O2-  O209  1  0.42706817  0.89624142  0.53057602  1
  O2-  O210  1  0.78943347  0.22683028  0.04718655  1
  O2-  O211  1  0.78242706  0.22083807  0.51941806  1
  O2-  O212  1  0.76087612  0.53531700  0.02193029  1
  O2-  O213  1  0.78092589  0.54954622  0.53095035  1
  O2-  O214  1  0.76385676  0.86994323  0.03347208  1
  O2-  O215  1  0.80381242  0.82116603  0.50816325  1
