# generated using pymatgen
data_H2O
_symmetry_space_group_name_H-M   'P 1'
_cell_length_a   13.51224991
_cell_length_b   13.51493705
_cell_length_c   14.69644444
_cell_angle_alpha   89.99242920
_cell_angle_beta   90.04122179
_cell_angle_gamma   120.02667157
_symmetry_Int_Tables_number   1
_chemical_formula_structural   H2O
_chemical_formula_sum   'H144 O72'
_cell_volume   2323.63384490
_cell_formula_units_Z   72
loop_
 _symmetry_equiv_pos_site_id
 _symmetry_equiv_pos_as_xyz
  1  'x, y, z'
loop_
 _atom_type_symbol
 _atom_type_oxidation_number
  H+  1.0
  O2-  -2.0
loop_
 _atom_site_type_symbol
 _atom_site_label
 _atom_site_symmetry_multiplicity
 _atom_site_fract_x
 _atom_site_fract_y
 _atom_site_fract_z
 _atom_site_occupancy
  H+  H0  1  0.85809381  0.36122086  0.49447184  1
  H+  H1  1  0.30206574  0.14828976  0.98943230  1
  H+  H2  1  0.16223230  0.51110066  1.01830373  1
  H+  H3  1  0.17491490  0.48318040  0.75645501  1
  H+  H4  1  0.53692134  0.07547463  0.88267083  1
  H+  H5  1  0.15524548  0.63277652  0.24333231  1
  H+  H6  1  0.07879628  0.21676646  0.33286038  1
  H+  H7  1  0.71236390  0.53727160  0.25077739  1
  H+  H8  1  0.95087941  0.82351915  0.27382513  1
  H+  H9  1  0.80971314  0.62765933  0.72538868  1
  H+  H10  1  0.27008362  0.48664590  0.35756081  1
  H+  H11  1  0.49766691  0.20107515  0.21306648  1
  H+  H12  1  0.48243349  0.53016600  0.73125160  1
  H+  H13  1  0.85825963  0.02483989  0.48031933  1
  H+  H14  1  0.82813397  0.66027691  0.25962351  1
  H+  H15  1  0.04982073  0.20183573  0.50604509  1
  H+  H16  1  0.84031770  0.03728471  0.75496172  1
  H+  H17  1  0.15144308  0.15828042  0.73744396  1
  H+  H18  1  1.00429281  0.82483259  0.50926353  1
  H+  H19  1  0.26959440  0.14032731  0.76610497  1
  H+  H20  1  0.45922838  0.24229568  0.06385257  1
  H+  H21  1  0.66141424  0.52090510  1.01083122  1
  H+  H22  1  0.49599514  0.33773343  0.99126371  1
  H+  H23  1  0.46651805  0.95655624  0.24811102  1
  H+  H24  1  0.16232385  0.79977959  0.49542945  1
  H+  H25  1  0.81413493  0.30877327  0.25249368  1
  H+  H26  1  0.69536106  0.83722642  0.00753315  1
  H+  H27  1  0.51472827  0.69567615  0.75665589  1
  H+  H28  1  0.52728418  0.41721850  0.80547752  1
  H+  H29  1  0.79929616  0.50259690  0.50483348  1
  H+  H30  1  0.15837512  0.96102314  0.01807120  1
  H+  H31  1  0.96167162  0.15227486  0.76330540  1
  H+  H32  1  0.77392639  0.87623623  0.15692028  1
  H+  H33  1  0.15399153  -0.03101635  0.24926595  1
  H+  H34  1  0.88151506  0.44351612  0.83014975  1
  H+  H35  1  0.54741052  0.09181689  0.16069076  1
  H+  H36  1  0.69522861  0.86004501  0.73731000  1
  H+  H37  1  0.52363480  0.13629949  0.45843863  1
  H+  H38  1  0.15849524  0.29851297  0.95756619  1
  H+  H39  1  0.81521317  0.34817580  -0.01884088  1
  H+  H40  1  0.83314277  0.17619986  0.49396249  1
  H+  H41  1  0.97293575  0.48180016  0.49732337  1
  H+  H42  1  0.83500092  0.69367732  0.48218610  1
  H+  H43  1  0.17343569  0.68659612  0.49410220  1
  H+  H44  1  0.15311111  0.30663030  0.74194082  1
  H+  H45  1  0.43894412  0.21882504  0.84397382  1
  H+  H46  1  0.18630218  0.33160751  0.29398945  1
  H+  H47  1  -0.02599463  0.82760002  -0.00829945  1
  H+  H48  1  0.32439233  0.49721475  0.25442289  1
  H+  H49  1  0.37983452  0.20033880  0.21099322  1
  H+  H50  1  0.82708886  0.53410648  0.03202334  1
  H+  H51  1  0.30918867  0.49908191  0.99489698  1
  H+  H52  1  0.80648676  0.50682624  0.72991015  1
  H+  H53  1  0.64630010  0.50968371  0.75818070  1
  H+  H54  1  0.45187212  0.61497975  0.49530322  1
  H+  H55  1  0.52877358  0.38277162  0.24796440  1
  H+  H56  1  0.83764445  0.01045741  0.24953846  1
  H+  H57  1  0.15899837  0.18963607  0.51600420  1
  H+  H58  1  0.95070192  0.13028381  0.23105623  1
  H+  H59  1  0.13849740  0.84448684  0.25194974  1
  H+  H60  1  0.15095236  0.01737572  0.73946025  1
  H+  H61  1  0.49429456  0.66864933  -0.00764511  1
  H+  H62  1  0.28193941  0.80784814  0.26819275  1
  H+  H63  1  0.84880920  0.79154559  0.79569093  1
  H+  H64  1  0.50210708  0.97434023  0.00699609  1
  H+  H65  1  0.15289225  0.64240519  0.74513522  1
  H+  H66  1  0.85836521  0.71271943  0.99860470  1
  H+  H67  1  0.49017895  0.77888544  0.48984747  1
  H+  H68  1  0.47919473  0.51924694  0.22159052  1
  H+  H69  1  0.17741423  0.52428776  0.24545663  1
  H+  H70  1  0.63509680  0.81896347  0.26936804  1
  H+  H71  1  0.61618643  0.13585247  0.97015321  1
  H+  H72  1  0.18224920  0.13462233  0.96345269  1
  H+  H73  1  0.96073978  0.80728752  0.74847618  1
  H+  H74  1  0.81433261  0.83897275  0.25269228  1
  H+  H75  1  0.47995038  0.82758715  0.73985650  1
  H+  H76  1  0.43201030  0.85446282  0.64705707  1
  H+  H77  1  0.15198643  0.85532446  0.74409133  1
  H+  H78  1  0.85640313  0.37059964  0.73811505  1
  H+  H79  1  0.28780319  0.13013098  0.49163203  1
  H+  H80  1  0.03227357  0.52473918  0.73700085  1
  H+  H81  1  0.61579126  0.47074572  0.48882505  1
  H+  H82  1  0.71322067  0.17274936  0.49350429  1
  H+  H83  1  0.81149437  0.17999329  1.01001895  1
  H+  H84  1  0.18098806  0.52920225  0.52227985  1
  H+  H85  1  0.69144001  0.83845357  0.50144373  1
  H+  H86  1  0.81987634  0.85100163  1.00753631  1
  H+  H87  1  0.47779936  0.29032888  0.48546343  1
  H+  H88  1  0.81011732  0.84022593  0.50133892  1
  H+  H89  1  0.81580033  0.18699145  0.24499839  1
  H+  H90  1  0.49583904  0.99577691  0.74648568  1
  H+  H91  1  0.04203323  0.18278381  -0.04477332  1
  H+  H92  1  0.21211262  0.17638502  0.29162713  1
  H+  H93  1  0.82981672  0.19840394  0.73261611  1
  H+  H94  1  0.15471211  0.63075145  1.02473947  1
  H+  H95  1  0.64760194  0.16085694  0.22950328  1
  H+  H96  1  0.30158367  0.81399104  0.76468509  1
  H+  H97  1  0.18007559  0.81174351  1.00554135  1
  H+  H98  1  0.50932833  0.79545930  0.98384360  1
  H+  H99  1  0.48101429  0.10436538  0.75226902  1
  H+  H100  1  0.24643973  0.39903083  0.50349017  1
  H+  H101  1  0.46031057  0.51482825  0.01180897  1
  H+  H102  1  0.51232509  0.81108840  0.27193843  1
  H+  H103  1  0.49121148  0.46186367  0.48672761  1
  H+  H104  1  0.79675520  0.57745224  0.12595049  1
  H+  H105  1  0.29579203  0.80625072  1.00307880  1
  H+  H106  1  0.84330342  0.03100149  0.98935340  1
  H+  H107  1  0.12474662  0.94126826  0.51750978  1
  H+  H108  1  0.59507448  0.51200795  0.91804199  1
  H+  H109  1  0.34946360  0.83162819  0.50194801  1
  H+  H110  1  0.46759791  0.26611024  0.74227781  1
  H+  H111  1  0.74920017  0.39698888  0.92926205  1
  H+  H112  1  0.56175843  0.92305436  0.06954129  1
  H+  H113  1  0.47529982  0.94090283  0.49758134  1
  H+  H114  1  0.87322304  0.10920613  0.90019231  1
  H+  H115  1  0.19067951  0.08412741  0.41769420  1
  H+  H116  1  0.53876019  0.74857610  0.40108482  1
  H+  H117  1  0.21968134  0.46278753  0.90581976  1
  H+  H118  1  0.55201360  0.45026696  0.34146055  1
  H+  H119  1  0.19964549  0.76289641  0.35485956  1
  H+  H120  1  0.84119143  0.48331157  0.27169952  1
  H+  H121  1  0.11640879  0.23601736  0.64540989  1
  H+  H122  1  0.55306496  0.76393349  0.85136223  1
  H+  H123  1  0.22383232  0.78173341  0.85506106  1
  H+  H124  1  0.87697942  0.43753303  0.35885320  1
  H+  H125  1  0.87686129  0.77791178  0.38991926  1
  H+  H126  1  0.79983053  0.23346719  0.63724590  1
  H+  H127  1  0.12403708  0.55833468  0.60567062  1
  H+  H128  1  0.29318048  0.48376238  0.75580515  1
  H+  H129  1  0.42385845  0.54941281  0.64240333  1
  H+  H130  1  0.77124751  0.89914398  0.64744182  1
  H+  H131  1  0.11182252  0.88178156  0.10714827  1
  H+  H132  1  0.42239789  0.54743565  0.13199014  1
  H+  H133  1  0.31440903  0.16024336  0.33254169  1
  H+  H134  1  0.42970586  0.87651554  0.16375653  1
  H+  H135  1  0.75621459  0.54032186  0.59118210  1
  H+  H136  1  0.77602966  0.22532288  0.09801327  1
  H+  H137  1  0.15630382  0.22250932  0.11565086  1
  H+  H138  1  0.13099471  0.55517246  0.12910016  1
  H+  H139  1  0.09237644  0.18849868  0.12063862  1
  H+  H140  1  0.57078414  0.09267479  0.38006851  1
  H+  H141  1  0.09884094  0.87359955  0.65068851  1
  H+  H142  1  0.89743737  0.09947999  0.38960852  1
  H+  H143  1  0.45535771  0.19969139  0.56249110  1
  O2-  O144  1  0.14689702  0.24405796  0.29559345  1
  O2-  O145  1  0.11298791  0.22697205  0.71368554  1
  O2-  O146  1  0.13265101  0.55652545  0.21551255  1
  O2-  O147  1  0.11534308  0.56336909  0.71930184  1
  O2-  O148  1  0.10597823  0.89075898  0.22648143  1
  O2-  O149  1  0.10795233  0.89019165  0.71802286  1
  O2-  O150  1  0.46114240  0.24616083  0.19413079  1
  O2-  O151  1  0.41248514  0.20393490  0.78041640  1
  O2-  O152  1  0.42444598  0.54320013  0.20228196  1
  O2-  O153  1  0.43045104  0.55774362  0.70959012  1
  O2-  O154  1  0.42208319  0.87498826  0.23123683  1
  O2-  O155  1  0.43138086  0.85869669  0.71446945  1
  O2-  O156  1  0.77697268  0.22810984  0.22272535  1
  O2-  O157  1  0.80176690  0.24643199  0.70355727  1
  O2-  O158  1  0.79482589  0.57703853  0.23422762  1
  O2-  O159  1  0.76159778  0.54352825  0.70865392  1
  O2-  O160  1  0.77415010  0.88271781  0.22437907  1
  O2-  O161  1  0.77428647  0.90907112  0.71430683  1
  O2-  O162  1  0.24838943  0.12523650  0.29204061  1
  O2-  O163  1  0.18487758  0.10129043  0.75986868  1
  O2-  O164  1  0.24711311  0.46445800  0.29385341  1
  O2-  O165  1  0.21269979  0.43983005  0.77806625  1
  O2-  O166  1  0.19986786  0.76457304  0.28651300  1
  O2-  O167  1  0.22153530  0.78381417  0.78747094  1
  O2-  O168  1  0.55888775  0.11422197  0.22482857  1
  O2-  O169  1  0.53077716  0.07519793  0.77130717  1
  O2-  O170  1  0.56395097  0.46052448  0.27488364  1
  O2-  O171  1  0.57278184  0.49735697  0.78919634  1
  O2-  O172  1  0.55954732  0.78322912  0.30053913  1
  O2-  O173  1  0.55580065  0.77384190  0.78301968  1
  O2-  O174  1  0.88166054  0.09636104  0.26835862  1
  O2-  O175  1  0.88139524  0.11678607  0.78294297  1
  O2-  O176  1  0.86487422  0.42781218  0.29212139  1
  O2-  O177  1  0.89112021  0.45262921  0.76327450  1
  O2-  O178  1  0.87140531  0.78141894  0.29548052  1
  O2-  O179  1  0.87665314  0.75799575  0.75107383  1
  O2-  O180  1  0.20326677  0.09322412  0.48403689  1
  O2-  O181  1  0.22182955  0.09049898  0.97631176  1
  O2-  O182  1  0.28646681  0.48138528  0.48588853  1
  O2-  O183  1  0.21995627  0.45675900  0.97283872  1
  O2-  O184  1  0.20815016  0.76659269  0.46978705  1
  O2-  O185  1  0.21728509  0.76716067  0.98048890  1
  O2-  O186  1  0.56390526  0.09329952  0.44621877  1
  O2-  O187  1  0.53797317  0.07911652  0.95145410  1
  O2-  O188  1  0.53478383  0.42552576  0.46466369  1
  O2-  O189  1  0.58402774  0.48331800  0.98086836  1
  O2-  O190  1  0.52637694  0.73369188  0.47009111  1
  O2-  O191  1  0.54767256  0.75335887  0.96498915  1
  O2-  O192  1  0.90503794  0.10528762  0.45715320  1
  O2-  O193  1  0.87948283  0.11196166  0.96816817  1
  O2-  O194  1  0.89175365  0.44376969  0.47854365  1
  O2-  O195  1  0.82642433  0.41893224  0.94887986  1
  O2-  O196  1  0.88012900  0.77514655  0.46490534  1
  O2-  O197  1  0.89379717  0.78935944  0.96963035  1
  O2-  O198  1  0.12247573  0.21865077  -0.06451337  1
  O2-  O199  1  0.12854681  0.24120585  0.53185658  1
  O2-  O200  1  0.12229704  0.55190254  0.05071069  1
  O2-  O201  1  0.12579312  0.55425944  0.53727524  1
  O2-  O202  1  0.11751795  0.87883033  0.03955471  1
  O2-  O203  1  0.08484365  0.86041913  0.53696835  1
  O2-  O204  1  0.45286954  0.25292497  -0.00195944  1
  O2-  O205  1  0.44060940  0.20451968  0.49815472  1
  O2-  O206  1  0.42077289  0.55636335  0.02876765  1
  O2-  O207  1  0.40458255  0.52784701  0.52095685  1
  O2-  O208  1  0.48559688  0.90698741  0.05144286  1
  O2-  O209  1  0.43053135  0.86297244  0.52278356  1
  O2-  O210  1  0.76823855  0.21871359  0.03074542  1
  O2-  O211  1  0.79275834  0.21667557  0.51581902  1
  O2-  O212  1  0.79338263  0.57856278  0.05636060  1
  O2-  O213  1  0.75258249  0.53746975  0.52303683  1
  O2-  O214  1  0.77426176  0.88617326  0.03153286  1
  O2-  O215  1  0.77186837  0.88495077  0.52089417  1
