# generated using pymatgen
data_H2O
_symmetry_space_group_name_H-M   'P 1'
_cell_length_a   13.51749755
_cell_length_b   13.52584694
_cell_length_c   14.70568317
_cell_angle_alpha   89.95311484
_cell_angle_beta   90.00464772
_cell_angle_gamma   119.96122617
_symmetry_Int_Tables_number   1
_chemical_formula_structural   H2O
_chemical_formula_sum   'H144 O72'
_cell_volume   2329.41023399
_cell_formula_units_Z   72
loop_
 _symmetry_equiv_pos_site_id
 _symmetry_equiv_pos_as_xyz
  1  'x, y, z'
loop_
 _atom_type_symbol
 _atom_type_oxidation_number
  H+  1.0
  O2-  -2.0
loop_
 _atom_site_type_symbol
 _atom_site_label
 _atom_site_symmetry_multiplicity
 _atom_site_fract_x
 _atom_site_fract_y
 _atom_site_fract_z
 _atom_site_occupancy
  H+  H0  1  0.18890057  0.65710650  0.47730281  1
  H+  H1  1  0.49225505  0.66717985  0.48916712  1
  H+  H2  1  0.20686694  0.79227193  0.16420770  1
  H+  H3  1  0.82086432  0.94421411  0.71781693  1
  H+  H4  1  0.17686170  0.48105588  0.25761375  1
  H+  H5  1  0.33078840  0.52492228  1.02397530  1
  H+  H6  1  0.15335047  0.34416190  0.00329411  1
  H+  H7  1  0.83974827  0.81736040  -0.00536918  1
  H+  H8  1  0.19489370  0.69073542  0.78005164  1
  H+  H9  1  0.80995694  0.51627099  0.01023269  1
  H+  H10  1  0.78141915  0.23247078  0.17517036  1
  H+  H11  1  0.37155441  0.16922393  0.50138745  1
  H+  H12  1  -0.01698617  0.49045926  0.78018742  1
  H+  H13  1  0.18660343  0.14113016  0.47956835  1
  H+  H14  1  0.13258514  0.50667467  0.01307609  1
  H+  H15  1  0.52380337  0.38384934  0.24675036  1
  H+  H16  1  0.12587009  0.21586579  0.59118237  1
  H+  H17  1  0.34981907  0.18655825  0.23100157  1
  H+  H18  1  0.85411066  0.76663019  0.79548686  1
  H+  H19  1  0.10790347  0.86012531  0.66634719  1
  H+  H20  1  0.48301149  -0.02732548  1.01524322  1
  H+  H21  1  0.84118665  0.16465755  0.99235242  1
  H+  H22  1  0.44799781  0.88300222  0.14481178  1
  H+  H23  1  0.21709245  0.35143845  0.47774906  1
  H+  H24  1  0.20285955  0.86588022  0.48609976  1
  H+  H25  1  0.72419197  0.84875348  0.23937815  1
  H+  H26  1  0.78232475  0.54706833  0.58074388  1
  H+  H27  1  0.15418343  0.02408241  0.25045953  1
  H+  H28  1  0.51785300  0.36973529  0.97231669  1
  H+  H29  1  0.83610782  -0.02738035  0.24136463  1
  H+  H30  1  0.15387366  -0.04634358  0.74588274  1
  H+  H31  1  0.50707933  0.34453062  0.51092075  1
  H+  H32  1  0.01092394  0.82948859  0.50165895  1
  H+  H33  1  0.70451427  0.82793683  0.72628588  1
  H+  H34  1  0.85897776  0.15832093  0.49790829  1
  H+  H35  1  0.43074300  0.23381062  0.09478942  1
  H+  H36  1  0.50255964  0.02908640  0.24327228  1
  H+  H37  1  0.52579667  1.01767682  0.48406207  1
  H+  H38  1  0.48602978  0.16677139  0.50150399  1
  H+  H39  1  0.96595282  0.14678133  0.26136727  1
  H+  H40  1  0.54376608  0.47644683  0.74111990  1
  H+  H41  1  0.85713703  0.14638915  0.74099260  1
  H+  H42  1  0.56044731  0.76445719  0.84167892  1
  H+  H43  1  0.85150815  0.81666468  0.46500473  1
  H+  H44  1  0.49845998  -0.04028253  0.74491946  1
  H+  H45  1  0.46656011  0.18625583  0.22762351  1
  H+  H46  1  0.82287630  0.31256232  1.01815475  1
  H+  H47  1  0.13376307  0.62234744  0.23264751  1
  H+  H48  1  0.84802239  0.31730627  0.74954034  1
  H+  H49  1  0.82688984  0.64565637  0.22996538  1
  H+  H50  1  0.85412078  0.03658544  0.49551634  1
  H+  H51  1  0.51216303  0.81764088  0.97654010  1
  H+  H52  1  0.93367025  0.18099334  0.91864148  1
  H+  H53  1  0.37397443  0.84549756  0.74904934  1
  H+  H54  1  0.84203951  0.33213332  0.50864420  1
  H+  H55  1  0.67800968  0.15734136  0.76383090  1
  H+  H56  1  0.70077620  0.53039488  0.23669157  1
  H+  H57  1  0.81334140  0.62487247  0.49052928  1
  H+  H58  1  0.43759205  0.57555916  0.15836736  1
  H+  H59  1  -0.02631587  0.78123783  0.77018628  1
  H+  H60  1  0.02950396  0.46541575  0.51545546  1
  H+  H61  1  0.82767955  0.60903326  0.72446831  1
  H+  H62  1  0.63533419  0.48607152  0.97861646  1
  H+  H63  1  0.51014743  0.63839181  0.72334819  1
  H+  H64  1  0.68132311  0.19861255  0.24539894  1
  H+  H65  1  0.52273719  0.80486123  0.75299533  1
  H+  H66  1  0.15461842  0.48656957  0.76882914  1
  H+  H67  1  0.52145789  0.82525075  0.48762806  1
  H+  H68  1  0.70885969  0.85086768  0.49758884  1
  H+  H69  1  0.70989596  0.49138289  0.72323568  1
  H+  H70  1  0.51042503  0.16258999  0.01410500  1
  H+  H71  1  0.71785063  0.23261412  0.53522104  1
  H+  H72  1  0.19752157  0.02830292  0.46706505  1
  H+  H73  1  0.18836363  0.67704729  0.52509872  1
  H+  H74  1  0.85796904  0.47654570  0.75880235  1
  H+  H75  1  0.49376077  0.28757263  0.76594955  1
  H+  H76  1  0.86425472  0.07133643  0.82025716  1
  H+  H77  1  0.14500916  0.18323915  0.24108547  1
  H+  H78  1  0.07674590  0.93957107  0.56075515  1
  H+  H79  1  0.52421099  0.50098555  0.25025010  1
  H+  H80  1  0.15619131  0.96232369  0.02742780  1
  H+  H81  1  0.40283719  0.51405746  0.70845949  1
  H+  H82  1  0.77475447  0.89820173  0.09786493  1
  H+  H83  1  0.61449290  0.46069486  0.48680244  1
  H+  H84  1  0.36940973  0.52992554  0.24958079  1
  H+  H85  1  0.19134409  0.14082834  0.75055963  1
  H+  H86  1  0.45273993  0.63961367  0.01258604  1
  H+  H87  1  0.04371824  0.17965749  0.50487040  1
  H+  H88  1  0.80293120  0.96982922  0.00569702  1
  H+  H89  1  0.89221575  0.84562959  0.23138985  1
  H+  H90  1  0.49612698  0.17197509  0.77240375  1
  H+  H91  1  0.14963558  0.30516609  0.23935318  1
  H+  H92  1  0.35571746  0.17676486  1.00539562  1
  H+  H93  1  0.64109337  0.11844023  0.44307915  1
  H+  H94  1  0.15753996  0.84651865  1.02695247  1
  H+  H95  1  0.26693994  0.47417565  0.79719174  1
  H+  H96  1  0.36961549  0.84377475  0.23281507  1
  H+  H97  1  0.36551883  0.85101903  0.00957315  1
  H+  H98  1  0.30587505  0.13484044  0.76984597  1
  H+  H99  1  0.86873375  0.49662391  0.48636181  1
  H+  H100  1  0.53588849  0.82694414  0.25862390  1
  H+  H101  1  0.14600638  0.29502538  0.73648119  1
  H+  H102  1  0.19685553  0.81057058  0.77162497  1
  H+  H103  1  0.37061866  0.52167744  0.49029236  1
  H+  H104  1  0.84933288  0.70791273  -0.00754320  1
  H+  H105  1  0.70470046  0.19604502  1.03144601  1
  H+  H106  1  0.03839049  0.17076143  0.72874355  1
  H+  H107  1  0.84965263  0.49659790  0.26271203  1
  H+  H108  1  0.78645617  0.87413784  0.58545954  1
  H+  H109  1  0.09772213  0.54887591  0.10199165  1
  H+  H110  1  0.46634735  0.57268449  0.57892272  1
  H+  H111  1  0.88793928  0.10312914  0.34949262  1
  H+  H112  1  0.09951985  0.57455878  0.69068517  1
  H+  H113  1  0.62549341  0.81208166  0.98608581  1
  H+  H114  1  0.21107175  0.09602106  0.89885332  1
  H+  H115  1  0.12510135  0.50051556  0.59220014  1
  H+  H116  1  0.45176799  0.88768035  0.60475967  1
  H+  H117  1  0.10184224  0.21150801  0.10854191  1
  H+  H118  1  0.14546189  0.80577231  0.24593488  1
  H+  H119  1  0.18736382  0.44727072  0.48743218  1
  H+  H120  1  0.53017510  0.10011480  0.33379006  1
  H+  H121  1  0.81142342  0.24953187  0.65368736  1
  H+  H122  1  0.01544651  0.16225109  0.02513622  1
  H+  H123  1  0.56281237  0.78833370  0.39356895  1
  H+  H124  1  0.83747285  0.37154139  0.26659199  1
  H+  H125  1  0.52652509  0.70475881  0.26330226  1
  H+  H126  1  0.17035710  0.13602305  0.98719211  1
  H+  H127  1  0.76962933  0.55532505  0.09768382  1
  H+  H128  1  0.05754974  0.86467103  0.15612727  1
  H+  H129  1  0.90630848  0.45476631  0.39799790  1
  H+  H130  1  0.88517314  0.44049432  0.90601155  1
  H+  H131  1  0.22487939  0.44131901  0.34267211  1
  H+  H132  1  0.57386473  0.44350599  0.83888438  1
  H+  H133  1  0.21357883  0.10446365  0.33636145  1
  H+  H134  1  0.90637344  0.78721049  0.37859565  1
  H+  H135  1  0.22896533  0.77668890  0.90955215  1
  H+  H136  1  0.17662904  0.41642435  0.91159078  1
  H+  H137  1  0.56663062  0.14065378  0.92936884  1
  H+  H138  1  0.96239049  0.48712217  0.99564442  1
  H+  H139  1  0.62998170  0.07158854  0.84504941  1
  H+  H140  1  0.37983049  0.87355334  0.51258630  1
  H+  H141  1  0.25069879  0.83797315  0.39831503  1
  H+  H142  1  0.01662853  0.50419516  0.24239977  1
  H+  H143  1  0.18286093  0.69453981  0.99697646  1
  O2-  O144  1  0.10467232  0.22372396  0.21874585  1
  O2-  O145  1  0.11933321  0.21786380  0.70961282  1
  O2-  O146  1  0.09755812  0.54018055  0.21791309  1
  O2-  O147  1  0.11361200  0.56147348  0.75315077  1
  O2-  O148  1  0.05293085  0.86906668  0.22568643  1
  O2-  O149  1  0.11672973  0.86951940  0.73266315  1
  O2-  O150  1  0.42988836  0.23122717  0.20914932  1
  O2-  O151  1  0.44599014  0.20400591  0.77798200  1
  O2-  O152  1  0.44916748  0.57443665  0.22645827  1
  O2-  O153  1  0.48109460  0.56390590  0.68857027  1
  O2-  O154  1  0.44990345  0.88568212  0.21342123  1
  O2-  O155  1  0.45303310  0.88113092  0.72106432  1
  O2-  O156  1  0.76565906  0.24115743  0.23917995  1
  O2-  O157  1  0.80922575  0.23755281  0.72082673  1
  O2-  O158  1  0.78370042  0.56379227  0.21550624  1
  O2-  O159  1  0.78854878  0.53014308  0.69611972  1
  O2-  O160  1  0.80183968  0.89271293  0.21281534  1
  O2-  O161  1  0.78198281  0.86340004  0.69875936  1
  O2-  O162  1  0.20571214  0.10418945  0.26833635  1
  O2-  O163  1  0.22015463  0.09272642  0.77739723  1
  O2-  O164  1  0.22217336  0.44386878  0.27509736  1
  O2-  O165  1  0.18488484  0.42749607  0.78875727  1
  O2-  O166  1  0.19927211  0.77846288  0.22987797  1
  O2-  O167  1  0.24270209  0.77655150  0.79501456  1
  O2-  O168  1  0.53108229  0.10799796  0.26665889  1
  O2-  O169  1  0.60461031  0.10273721  0.79643359  1
  O2-  O170  1  0.57077260  0.46481359  0.26406556  1
  O2-  O171  1  0.57762785  0.43459684  0.76971682  1
  O2-  O172  1  0.57343883  0.78673226  0.28571971  1
  O2-  O173  1  0.56256865  0.76324240  0.77309435  1
  O2-  O174  1  0.88683733  0.09414577  0.28281183  1
  O2-  O175  1  0.88644608  0.09289534  0.75685922  1
  O2-  O176  1  0.88878037  0.45464922  0.28515889  1
  O2-  O177  1  0.89677189  0.44036424  0.79248551  1
  O2-  O178  1  0.93202187  0.80196384  0.25295983  1
  O2-  O179  1  0.89225076  0.72405995  0.77964349  1
  O2-  O180  1  0.22972220  0.10788191  0.44792032  1
  O2-  O181  1  0.21254167  0.09744685  0.96671406  1
  O2-  O182  1  0.24720207  0.43250377  0.45904065  1
  O2-  O183  1  0.18511175  0.42336563  0.97882362  1
  O2-  O184  1  0.27375052  0.88150714  0.45466362  1
  O2-  O185  1  0.22676567  0.77663360  0.97797012  1
  O2-  O186  1  0.56013352  0.09252473  0.45028265  1
  O2-  O187  1  0.55780742  0.12602345  0.99490865  1
  O2-  O188  1  0.53137266  0.42423484  0.49372414  1
  O2-  O189  1  0.56124699  0.44644855  0.94498645  1
  O2-  O190  1  0.56046186  0.78412542  0.46313584  1
  O2-  O191  1  0.54902577  0.77382186  0.95545368  1
  O2-  O192  1  0.89807098  0.11797656  0.47537774  1
  O2-  O193  1  0.87820593  0.12396629  0.96011448  1
  O2-  O194  1  0.91099999  0.45597377  0.46646695  1
  O2-  O195  1  0.88143909  0.44107676  0.97434268  1
  O2-  O196  1  0.89251405  0.77572571  0.44491856  1
  O2-  O197  1  0.89138363  0.78971607  0.97624910  1
  O2-  O198  1  0.09759320  0.20438364  0.03984047  1
  O2-  O199  1  0.12518435  0.21076426  0.52326594  1
  O2-  O200  1  0.10096515  0.55599307  0.03407400  1
  O2-  O201  1  0.08532761  0.44628495  0.54368085  1
  O2-  O202  1  0.13990751  0.89558858  0.06596461  1
  O2-  O203  1  0.08471445  0.87636724  0.53756904  1
  O2-  O204  1  0.43589048  0.22382773  0.02761394  1
  O2-  O205  1  0.44335861  0.19561651  0.53553648  1
  O2-  O206  1  0.40378485  0.57636482  0.05419187  1
  O2-  O207  1  0.45004151  0.58210618  0.51330300  1
  O2-  O208  1  0.44744171  0.89017688  0.03058700  1
  O2-  O209  1  0.45598857  0.89044408  0.53653543  1
  O2-  O210  1  0.78805064  0.23197488  0.04310671  1
  O2-  O211  1  0.79772752  0.25206241  0.53714574  1
  O2-  O212  1  0.76689390  0.55436542  0.02989518  1
  O2-  O213  1  0.78342750  0.54606058  0.51245889  1
  O2-  O214  1  0.75855541  0.89271167  0.03112114  1
  O2-  O215  1  0.78982030  0.88748883  0.51744664  1
