# generated using pymatgen
data_H2O
_symmetry_space_group_name_H-M   'P 1'
_cell_length_a   13.48219982
_cell_length_b   13.47522649
_cell_length_c   14.68133043
_cell_angle_alpha   90.03710185
_cell_angle_beta   90.02662358
_cell_angle_gamma   120.00845610
_symmetry_Int_Tables_number   1
_chemical_formula_structural   H2O
_chemical_formula_sum   'H144 O72'
_cell_volume   2309.70010842
_cell_formula_units_Z   72
loop_
 _symmetry_equiv_pos_site_id
 _symmetry_equiv_pos_as_xyz
  1  'x, y, z'
loop_
 _atom_type_symbol
 _atom_type_oxidation_number
  H+  1.0
  O2-  -2.0
loop_
 _atom_site_type_symbol
 _atom_site_label
 _atom_site_symmetry_multiplicity
 _atom_site_fract_x
 _atom_site_fract_y
 _atom_site_fract_z
 _atom_site_occupancy
  H+  H0  1  0.01137643  0.84985464  0.04394368  1
  H+  H1  1  1.03997291  0.17892143  1.00915482  1
  H+  H2  1  0.30970467  0.15943822  -0.01405550  1
  H+  H3  1  0.18746432  0.69244667  0.25466314  1
  H+  H4  1  0.51239618  0.14413750  0.50461772  1
  H+  H5  1  0.50831991  0.68953201  0.26025149  1
  H+  H6  1  0.47812210  -0.03836384  0.49917058  1
  H+  H7  1  0.52257668  0.13664313  0.74928203  1
  H+  H8  1  0.52178869  0.36045113  0.98588203  1
  H+  H9  1  0.56126528  0.10897313  0.88987706  1
  H+  H10  1  0.69120197  0.83642466  0.74711607  1
  H+  H11  1  0.85011839  0.69204997  0.97395752  1
  H+  H12  1  0.18371327  0.54784559  1.01785908  1
  H+  H13  1  0.82087821  -0.03375425  0.49519091  1
  H+  H14  1  0.48002010  0.83552637  0.73297418  1
  H+  H15  1  0.70870120  0.18096420  -0.00216499  1
  H+  H16  1  0.18192235  0.66729455  0.02120271  1
  H+  H17  1  0.48512801  0.84675128  0.24404856  1
  H+  H18  1  0.62689631  0.81134258  0.25742792  1
  H+  H19  1  0.85424405  0.86610083  0.01145152  1
  H+  H20  1  0.53105689  0.44113347  0.86115205  1
  H+  H21  1  0.25331795  0.96575044  0.68538194  1
  H+  H22  1  0.81436938  0.15754815  0.73624759  1
  H+  H23  1  0.82466839  0.19339834  0.22624944  1
  H+  H24  1  0.21561722  0.76624787  0.39270004  1
  H+  H25  1  0.16602132  0.52228010  0.24662047  1
  H+  H26  1  0.82179385  0.63826623  0.48755900  1
  H+  H27  1  0.88147242  1.04803124  -0.01203101  1
  H+  H28  1  0.96635715  0.81372022  0.48135815  1
  H+  H29  1  0.83836657  0.02478376  0.76134440  1
  H+  H30  1  0.03190454  0.19057373  0.73366708  1
  H+  H31  1  0.49441053  0.30365891  0.53493006  1
  H+  H32  1  0.83616652  0.31596929  0.21653487  1
  H+  H33  1  0.83666062  0.02930192  0.26470168  1
  H+  H34  1  0.88777374  0.71630532  0.73751788  1
  H+  H35  1  0.12584843  0.15290600  0.24418766  1
  H+  H36  1  0.51649163  0.49084965  0.51835230  1
  H+  H37  1  0.81131483  0.50794856  0.98031933  1
  H+  H38  1  0.15593362  0.30480615  0.73356648  1
  H+  H39  1  0.51951446  1.01160969  0.74873988  1
  H+  H40  1  0.09238405  0.39670291  0.94982173  1
  H+  H41  1  0.84291584  0.47820349  0.46962094  1
  H+  H42  1  0.70342103  0.84966484  0.49473653  1
  H+  H43  1  0.85838213  0.54043644  0.21420296  1
  H+  H44  1  0.80673920  0.29206022  0.50357504  1
  H+  H45  1  0.15071012  0.48759809  0.50885618  1
  H+  H46  1  0.15485009  0.29683938  0.01215596  1
  H+  H47  1  0.20386664  0.43103721  0.89215923  1
  H+  H48  1  0.70080997  0.51972126  0.50428658  1
  H+  H49  1  0.75484553  0.53974435  0.71165655  1
  H+  H50  1  0.45135729  0.45521589  0.03724351  1
  H+  H51  1  0.48743611  0.17528968  -0.01240578  1
  H+  H52  1  0.48789385  0.00413016  0.26999193  1
  H+  H53  1  0.54929791  0.80304726  0.86585583  1
  H+  H54  1  0.95854475  0.47355234  0.46817512  1
  H+  H55  1  0.63496958  0.48579366  -0.01334864  1
  H+  H56  1  0.50947952  0.64768314  -0.01176257  1
  H+  H57  1  0.15016056  0.85360536  0.49652244  1
  H+  H58  1  0.59514068  0.47883924  0.76760665  1
  H+  H59  1  0.35492631  0.17380202  0.75423532  1
  H+  H60  1  0.17666419  0.03711407  0.76255188  1
  H+  H61  1  0.13621273  0.02413892  0.32072168  1
  H+  H62  1  0.67965336  0.15460251  0.73080060  1
  H+  H63  1  0.37047493  0.52795875  0.53000898  1
  H+  H64  1  0.48529176  0.83357018  0.48688224  1
  H+  H65  1  0.50978390  0.70214400  0.49209599  1
  H+  H66  1  0.17592198  0.69096012  0.48416837  1
  H+  H67  1  0.05290841  0.51599516  0.73575534  1
  H+  H68  1  0.20463930  0.49731509  0.76012205  1
  H+  H69  1  0.17022011  0.15367431  0.76571854  1
  H+  H70  1  0.45650479  0.59439609  0.61412351  1
  H+  H71  1  0.18256819  0.16657811  0.99805019  1
  H+  H72  1  0.78886980  0.22619124  0.08747460  1
  H+  H73  1  0.14190601  0.97206518  0.48795298  1
  H+  H74  1  0.52049297  0.04047415  0.98503892  1
  H+  H75  1  0.18682513  0.81603244  0.76012553  1
  H+  H76  1  0.81138680  0.85215435  0.24738255  1
  H+  H77  1  0.34523352  0.47425300  0.03950247  1
  H+  H78  1  0.09422778  0.96477056  0.22051194  1
  H+  H79  1  0.81394428  0.17570350  0.50293009  1
  H+  H80  1  0.96220789  0.15403082  0.48740733  1
  H+  H81  1  0.48383170  0.62382454  0.94237118  1
  H+  H82  1  0.17846810  0.35875584  0.27365648  1
  H+  H83  1  0.18974124  0.69974080  0.76742513  1
  H+  H84  1  0.84728809  0.81424767  0.47716811  1
  H+  H85  1  0.32672459  0.51239946  0.77406607  1
  H+  H86  1  0.30731208  0.83772074  0.99613664  1
  H+  H87  1  0.47214735  0.50006649  0.26810303  1
  H+  H88  1  0.45106319  0.11104162  0.28679439  1
  H+  H89  1  0.19242587  0.35844473  0.49472158  1
  H+  H90  1  0.45422647  0.31221735  0.29099915  1
  H+  H91  1  0.86307360  0.36166232  0.73684883  1
  H+  H92  1  -0.00766682  0.84115328  0.74684164  1
  H+  H93  1  0.84363943  0.36081553  0.97244833  1
  H+  H94  1  0.77162136  0.20145025  0.63739184  1
  H+  H95  1  0.34241198  0.15920518  0.34401125  1
  H+  H96  1  0.49415247  0.87780651  -0.00254222  1
  H+  H97  1  0.46949406  0.29248709  0.75652445  1
  H+  H98  1  0.18150752  0.80905940  0.25257707  1
  H+  H99  1  0.32312493  0.16672885  0.48822825  1
  H+  H100  1  0.81808022  0.85312081  0.75166282  1
  H+  H101  1  0.86397885  0.15866889  0.98600522  1
  H+  H102  1  0.36417940  0.84494660  0.23977741  1
  H+  H103  1  0.64116419  0.85603840  0.94464307  1
  H+  H104  1  0.87872802  0.48733206  0.72816975  1
  H+  H105  1  0.12741021  0.16196707  0.48831510  1
  H+  H106  1  0.87676165  0.73186435  0.24030418  1
  H+  H107  1  0.51484870  0.59585894  0.76479566  1
  H+  H108  1  0.45054399  0.21233995  0.07918956  1
  H+  H109  1  0.30369357  0.11519012  0.24597403  1
  H+  H110  1  0.45937814  0.90401037  0.09709773  1
  H+  H111  1  0.14208385  0.91222643  0.62530423  1
  H+  H112  1  0.23300202  0.44339401  0.40982986  1
  H+  H113  1  0.42629677  0.51597376  0.17374616  1
  H+  H114  1  0.11152646  0.20963764  0.58566521  1
  H+  H115  1  0.54440518  0.77131654  0.39399223  1
  H+  H116  1  0.13188865  0.95773860  0.05779655  1
  H+  H117  1  0.90848444  0.78363791  0.89396251  1
  H+  H118  1  0.89347552  0.78806816  0.33859694  1
  H+  H119  1  0.14401497  0.57464488  0.15154391  1
  H+  H120  1  0.81683148  0.57114330  0.61705126  1
  H+  H121  1  0.93874014  0.95304905  0.07805417  1
  H+  H122  1  0.30064696  0.47486535  0.27362661  1
  H+  H123  1  0.88433719  0.43749496  0.88235236  1
  H+  H124  1  0.77976567  0.89647895  0.15919457  1
  H+  H125  1  0.14164931  0.56775183  0.65422215  1
  H+  H126  1  0.03916277  0.44497090  0.56700921  1
  H+  H127  1  0.22477473  0.78759936  0.91140076  1
  H+  H128  1  0.95950378  0.14451116  0.26513381  1
  H+  H129  1  0.52891908  0.09063171  0.36654721  1
  H+  H130  1  0.35374240  0.83518256  0.49077051  1
  H+  H131  1  0.79347186  0.56169039  0.07163229  1
  H+  H132  1  0.44593275  0.21474928  0.61760269  1
  H+  H133  1  0.62942287  0.14010070  0.49311409  1
  H+  H134  1  0.90057934  0.45456648  0.32366748  1
  H+  H135  1  0.88060958  0.11475663  0.39861477  1
  H+  H136  1  0.53108598  0.43043178  0.43013071  1
  H+  H137  1  -0.00504826  0.50098574  0.24374833  1
  H+  H138  1  0.37066314  0.85022690  0.75048196  1
  H+  H139  1  0.21514132  0.11605774  0.89816915  1
  H+  H140  1  0.10799964  0.21725322  0.16278779  1
  H+  H141  1  0.58244736  0.40692004  0.28735419  1
  H+  H142  1  0.88802200  0.11955389  0.84201901  1
  H+  H143  1  0.74650127  0.55068486  0.21237636  1
  O2-  O144  1  0.10375979  0.21166773  0.22988180  1
  O2-  O145  1  0.11308450  0.22325089  0.71442748  1
  O2-  O146  1  0.13386780  0.56936027  0.22194489  1
  O2-  O147  1  0.13666227  0.56435906  0.72144448  1
  O2-  O148  1  0.15056025  1.03376079  0.25353634  1
  O2-  O149  1  0.17014896  0.92714714  0.69227133  1
  O2-  O150  1  0.37659911  0.16252789  0.27995172  1
  O2-  O151  1  0.43633764  0.21164973  0.73481301  1
  O2-  O152  1  0.43886438  0.54313863  0.23919659  1
  O2-  O153  1  0.47060233  0.62755349  0.73601145  1
  O2-  O154  1  0.44759736  0.89209641  0.22432719  1
  O2-  O155  1  0.44873065  0.88917053  0.72360941  1
  O2-  O156  1  0.79113767  0.23542207  0.19561069  1
  O2-  O157  1  0.76847796  0.19775039  0.70761149  1
  O2-  O158  1  0.82372069  0.58606618  0.18773393  1
  O2-  O159  1  0.83161339  0.57592125  0.68600030  1
  O2-  O160  1  0.76435952  0.88787794  0.22550126  1
  O2-  O161  1  0.77487189  0.89396379  0.74647684  1
  O2-  O162  1  0.16294261  0.07541877  0.43752111  1
  O2-  O163  1  0.20774012  0.11234868  0.79449282  1
  O2-  O164  1  0.21943246  0.43935208  0.29592707  1
  O2-  O165  1  0.24425873  0.45639232  0.78424255  1
  O2-  O166  1  0.22525016  0.77619225  0.27876890  1
  O2-  O167  1  0.22631581  0.78014354  0.79021908  1
  O2-  O168  1  0.51108900  0.08458546  0.29843685  1
  O2-  O169  1  0.56805798  0.09985456  0.76591500  1
  O2-  O170  1  0.50836145  0.39333062  0.30892075  1
  O2-  O171  1  0.51839090  0.43566909  0.79273274  1
  O2-  O172  1  0.54553294  0.77129333  0.28087989  1
  O2-  O173  1  0.53966406  0.75368031  0.75857835  1
  O2-  O174  1  0.87858178  0.11080950  0.28601913  1
  O2-  O175  1  0.87977108  0.11232915  0.77390182  1
  O2-  O176  1  0.91026228  0.46383930  0.25669155  1
  O2-  O177  1  0.91076095  0.44177867  0.75650967  1
  O2-  O178  1  0.89606159  0.80392448  0.27198901  1
  O2-  O179  1  0.91504969  0.79042933  0.76955386  1
  O2-  O180  1  0.28451766  0.16631870  0.43026965  1
  O2-  O181  1  0.22517469  0.12364621  0.96857297  1
  O2-  O182  1  0.23348979  0.44223955  0.47851697  1
  O2-  O183  1  0.17171072  0.41436737  0.95627455  1
  O2-  O184  1  0.22050373  0.76973760  0.46140853  1
  O2-  O185  1  0.22542237  0.79154711  0.97881174  1
  O2-  O186  1  0.54605331  0.09956467  0.47538480  1
  O2-  O187  1  0.55952370  0.11966730  0.95668734  1
  O2-  O188  1  0.55129406  0.44512312  0.49562759  1
  O2-  O189  1  0.55044115  0.44209192  0.97060020  1
  O2-  O190  1  0.54411475  0.78019321  0.46254025  1
  O2-  O191  1  0.57080618  0.85124085  0.92295155  1
  O2-  O192  1  0.88014818  0.11513969  0.46752414  1
  O2-  O193  1  0.91157503  0.12595835  0.96033562  1
  O2-  O194  1  0.87789581  0.43180329  0.44794697  1
  O2-  O195  1  0.87429293  0.43991677  0.94852298  1
  O2-  O196  1  0.88722783  0.77088912  0.45619441  1
  O2-  O197  1  0.89707117  0.77621471  0.96075370  1
  O2-  O198  1  0.12087956  0.21579503  0.03474289  1
  O2-  O199  1  0.10512042  0.21600218  0.51909550  1
  O2-  O200  1  0.15164714  0.58881876  0.05032372  1
  O2-  O201  1  0.09569110  0.51300628  0.53419073  1
  O2-  O202  1  0.06013629  0.90898004  0.08957040  1
  O2-  O203  1  0.11161122  0.89314893  0.52246812  1
  O2-  O204  1  0.44302703  0.21339922  0.01310437  1
  O2-  O205  1  0.45449188  0.21997573  0.54972190  1
  O2-  O206  1  0.38658160  0.44637690  0.07608342  1
  O2-  O207  1  0.45270374  0.57635651  0.54782457  1
  O2-  O208  1  0.45381226  0.91274832  0.03074322  1
  O2-  O209  1  0.43769306  0.87583826  0.50981069  1
  O2-  O210  1  0.78976547  0.22072448  0.01788999  1
  O2-  O211  1  0.76971392  0.21303131  0.52970184  1
  O2-  O212  1  0.77462746  0.55265025  0.00544025  1
  O2-  O213  1  0.78569501  0.55684914  0.51239937  1
  O2-  O214  1  0.86395734  0.93190787  0.04998067  1
  O2-  O215  1  0.78503297  0.88344675  0.50956819  1
