# generated using pymatgen
data_H2O
_symmetry_space_group_name_H-M   'P 1'
_cell_length_a   13.52300376
_cell_length_b   13.52910087
_cell_length_c   14.68725429
_cell_angle_alpha   89.97764773
_cell_angle_beta   90.02271694
_cell_angle_gamma   119.95128641
_symmetry_Int_Tables_number   1
_chemical_formula_structural   H2O
_chemical_formula_sum   'H144 O72'
_cell_volume   2328.23212607
_cell_formula_units_Z   72
loop_
 _symmetry_equiv_pos_site_id
 _symmetry_equiv_pos_as_xyz
  1  'x, y, z'
loop_
 _atom_type_symbol
 _atom_type_oxidation_number
  H+  1.0
  O2-  -2.0
loop_
 _atom_site_type_symbol
 _atom_site_label
 _atom_site_symmetry_multiplicity
 _atom_site_fract_x
 _atom_site_fract_y
 _atom_site_fract_z
 _atom_site_occupancy
  H+  H0  1  0.50843002  0.79214396  0.25751065  1
  H+  H1  1  0.78224854  0.47764094  0.25866105  1
  H+  H2  1  0.18647857  0.47614512  0.27064999  1
  H+  H3  1  0.36372380  0.16740355  0.73642987  1
  H+  H4  1  0.17582580  0.35211990  -0.03116831  1
  H+  H5  1  0.16126734  0.30715494  0.52283692  1
  H+  H6  1  0.11527076  -0.05220703  0.25619756  1
  H+  H7  1  0.66552640  0.48406809  0.25585749  1
  H+  H8  1  0.87140154  0.78444416  1.01601104  1
  H+  H9  1  0.45997389  0.30105394  0.49438210  1
  H+  H10  1  0.86379745  0.05240569  0.75583436  1
  H+  H11  1  0.04861481  0.51876666  0.50246965  1
  H+  H12  1  0.13147678  0.57856280  0.67028048  1
  H+  H13  1  0.46096755  0.60981793  0.19910983  1
  H+  H14  1  0.55228098  0.75912146  0.70282052  1
  H+  H15  1  0.48748385  0.95381502  0.55079699  1
  H+  H16  1  0.46694655  0.84053522  0.99999257  1
  H+  H17  1  0.08221225  0.89166200  0.03684274  1
  H+  H18  1  0.34408604  0.48720220  0.99626572  1
  H+  H19  1  0.47728958  0.47996803  0.49877541  1
  H+  H20  1  0.32054764  0.47400003  0.75607422  1
  H+  H21  1  0.47528739  0.88495218  0.69624450  1
  H+  H22  1  0.88665066  0.48542499  0.49606488  1
  H+  H23  1  0.51659293  0.01700924  0.79831678  1
  H+  H24  1  0.20150189  0.16362212  0.95885537  1
  H+  H25  1  0.15447278  0.73200355  0.96493993  1
  H+  H26  1  0.30467319  0.47540878  0.25612371  1
  H+  H27  1  0.35789880  0.69198421  0.17483712  1
  H+  H28  1  0.30444503  0.48401464  0.50718164  1
  H+  H29  1  -0.02158572  0.47678998  -0.02864114  1
  H+  H30  1  0.80972306  0.66388531  0.28338772  1
  H+  H31  1  0.83459341  0.19738450  0.99649309  1
  H+  H32  1  0.62091993  0.48612923  -0.01955392  1
  H+  H33  1  0.30874885  0.84016324  0.76897654  1
  H+  H34  1  0.84176035  0.30415365  0.49893705  1
  H+  H35  1  0.44826029  0.22932431  0.09121274  1
  H+  H36  1  1.03674658  0.86242114  0.74117944  1
  H+  H37  1  0.47760053  0.82451874  0.78697402  1
  H+  H38  1  0.45058674  0.20904577  0.42864106  1
  H+  H39  1  0.87045652  0.75959519  0.40498260  1
  H+  H40  1  0.14766348  0.18181899  0.51719780  1
  H+  H41  1  0.66071512  0.17431578  0.99543230  1
  H+  H42  1  0.59125828  0.47923018  0.47998197  1
  H+  H43  1  0.28255230  0.13314127  0.48856066  1
  H+  H44  1  0.16388545  0.61713740  0.03485019  1
  H+  H45  1  0.10721461  0.82841324  0.24436159  1
  H+  H46  1  0.38138208  0.83494724  0.58202425  1
  H+  H47  1  0.27656305  0.77467417  0.24075102  1
  H+  H48  1  0.18345733  0.15062574  0.26694682  1
  H+  H49  1  0.80542835  0.60338785  0.03135517  1
  H+  H50  1  0.71622422  0.86901897  0.23163528  1
  H+  H51  1  0.80047557  0.22879900  0.61735243  1
  H+  H52  1  0.85852216  0.34003859  0.23617826  1
  H+  H53  1  0.57253773  0.72512747  0.28703772  1
  H+  H54  1  0.28334588  0.80472577  0.45929935  1
  H+  H55  1  0.73993522  0.23056050  0.24221679  1
  H+  H56  1  0.14450702  0.96178792  0.48896650  1
  H+  H57  1  0.46917750  0.49165639  -0.00403857  1
  H+  H58  1  0.51908157  0.13390600  0.52677683  1
  H+  H59  1  -0.02754420  0.15613360  0.26887668  1
  H+  H60  1  0.29778600  0.14389326  0.26109086  1
  H+  H61  1  0.37772210  0.18971360  -0.00307872  1
  H+  H62  1  0.17148142  0.67705832  0.48193466  1
  H+  H63  1  0.47478696  0.98979047  0.22807178  1
  H+  H64  1  0.57373605  0.10752438  0.29606417  1
  H+  H65  1  0.01254361  0.83409107  0.48833529  1
  H+  H66  1  0.62882108  0.80205292  0.98534131  1
  H+  H67  1  0.51482730  -0.02614255  0.25156088  1
  H+  H68  1  0.17940472  0.46988103  0.98830841  1
  H+  H69  1  0.93138072  0.54040695  0.28020172  1
  H+  H70  1  0.91491130  0.45196029  0.39548261  1
  H+  H71  1  0.48839249  0.47570599  0.24344580  1
  H+  H72  1  0.83211243  0.46614100  0.74799093  1
  H+  H73  1  0.82231532  0.17543539  0.49789753  1
  H+  H74  1  0.82074999  0.90579591  -0.00449565  1
  H+  H75  1  0.51162224  0.36581249  0.97016863  1
  H+  H76  1  0.15842942  0.16922521  0.74174210  1
  H+  H77  1  0.82095144  0.84146291  0.51649641  1
  H+  H78  1  0.02823085  0.48819726  0.25498126  1
  H+  H79  1  0.14099121  0.83281566  0.48366346  1
  H+  H80  1  0.85544783  0.06722279  0.96497390  1
  H+  H81  1  0.86352599  0.69835075  0.50284501  1
  H+  H82  1  0.34222844  0.83363769  1.00561599  1
  H+  H83  1  0.69924467  0.83536956  0.51697115  1
  H+  H84  1  0.86179520  0.16681666  0.25415813  1
  H+  H85  1  0.91727447  0.78925471  0.27727964  1
  H+  H86  1  0.01465123  0.17786197  -0.02985074  1
  H+  H87  1  0.48358207  0.62959750  0.53313936  1
  H+  H88  1  0.17107064  0.52748447  0.50616071  1
  H+  H89  1  0.53535529  0.17559719  0.99661090  1
  H+  H90  1  0.75132710  0.51078243  0.50609316  1
  H+  H91  1  1.03265924  0.17820954  0.74261444  1
  H+  H92  1  0.49268942  0.20536793  0.24442605  1
  H+  H93  1  0.84729759  0.82591379  0.74612037  1
  H+  H94  1  0.83839127  1.01995961  0.48591594  1
  H+  H95  1  0.46799804  0.30649983  0.23813735  1
  H+  H96  1  0.82395441  0.30949174  0.72241157  1
  H+  H97  1  0.14240276  0.60824266  0.24243579  1
  H+  H98  1  0.52190100  0.80861218  0.51372464  1
  H+  H99  1  0.84534088  0.19504397  0.71917064  1
  H+  H100  1  0.16310333  0.31234767  0.26879771  1
  H+  H101  1  0.80489490  0.63530651  0.73152825  1
  H+  H102  1  0.19103465  0.88527591  -0.00120776  1
  H+  H103  1  0.53027925  0.64916295  0.75850173  1
  H+  H104  1  0.45290459  0.54179239  0.62096345  1
  H+  H105  1  0.71568189  0.85877160  0.74438621  1
  H+  H106  1  0.18006029  0.03199292  0.74919590  1
  H+  H107  1  0.85830927  0.36645543  -0.02467453  1
  H+  H108  1  0.87165248  0.09398839  0.39401720  1
  H+  H109  1  0.78305171  0.86461731  0.09704100  1
  H+  H110  1  0.22349614  0.45978319  0.82015281  1
  H+  H111  1  0.23551193  0.11954576  0.83595771  1
  H+  H112  1  0.21006552  0.04964978  0.97655404  1
  H+  H113  1  0.56314662  0.77530924  0.89273269  1
  H+  H114  1  0.62512989  0.18638753  0.38015655  1
  H+  H115  1  0.47289220  0.24234390  0.67445765  1
  H+  H116  1  0.15178030  0.67015201  0.74389998  1
  H+  H117  1  0.41940279  0.51894049  0.11123225  1
  H+  H118  1  0.23677517  0.44634529  0.41161364  1
  H+  H119  1  0.15817697  0.87035548  0.74076850  1
  H+  H120  1  0.68054735  0.52600089  0.72205509  1
  H+  H121  1  0.11426717  0.24310670  0.17884968  1
  H+  H122  1  0.10697680  0.52615836  0.11363368  1
  H+  H123  1  0.11912560  0.22036981  0.64719638  1
  H+  H124  1  0.94826380  0.75212907  0.95275665  1
  H+  H125  1  0.20238361  0.75499515  0.33121654  1
  H+  H126  1  0.87941500  0.42643220  0.83329544  1
  H+  H127  1  0.79354003  0.55664054  0.60734229  1
  H+  H128  1  0.51208910  0.13292363  0.77946741  1
  H+  H129  1  0.73631312  0.52478820  0.11286029  1
  H+  H130  1  0.85918508  0.76912118  0.83486803  1
  H+  H131  1  0.09933770  0.18136983  0.05234922  1
  H+  H132  1  0.20806271  0.09917179  0.39831418  1
  H+  H133  1  0.56655265  0.12052959  0.89931076  1
  H+  H134  1  0.78557387  0.89828027  0.65041277  1
  H+  H135  1  0.82952538  0.98539313  0.21958235  1
  H+  H136  1  0.22715616  0.81272655  0.85611704  1
  H+  H137  1  0.52848406  0.46769839  0.82302620  1
  H+  H138  1  0.51200741  0.44039731  0.34390836  1
  H+  H139  1  0.40954473  0.81450862  0.12413437  1
  H+  H140  1  0.55463399  0.77813226  0.41695356  1
  H+  H141  1  0.80052101  0.23719454  0.09185141  1
  H+  H142  1  0.90291208  0.13966795  0.84388001  1
  H+  H143  1  0.45434939  0.04509665  0.45272327  1
  O2-  O144  1  0.11856190  0.23084273  0.24365077  1
  O2-  O145  1  0.11442523  0.21028591  0.71880745  1
  O2-  O146  1  0.10948322  0.52507962  0.22709862  1
  O2-  O147  1  0.09664367  0.59191545  0.72360907  1
  O2-  O148  1  0.06098531  0.86562498  0.24974847  1
  O2-  O149  1  0.11470946  0.90792661  0.71733132  1
  O2-  O150  1  0.43830535  0.22512984  0.21747536  1
  O2-  O151  1  0.44506095  0.18895440  0.72488603  1
  O2-  O152  1  0.42119260  0.52760620  0.19083023  1
  O2-  O153  1  0.47450175  0.53595170  0.72997298  1
  O2-  O154  1  0.39834133  0.77253972  0.19105816  1
  O2-  O155  1  0.45735498  0.87954207  0.76208254  1
  O2-  O156  1  0.81514382  0.25868234  0.21359280  1
  O2-  O157  1  0.80062886  0.22902305  0.69084536  1
  O2-  O158  1  0.74716248  0.52229388  0.23668864  1
  O2-  O159  1  0.76266411  0.55559965  0.70770120  1
  O2-  O160  1  0.78673655  0.90579322  0.19585054  1
  O2-  O161  1  0.79351709  0.90614665  0.71898517  1
  O2-  O162  1  0.21932564  0.10559327  0.28756307  1
  O2-  O163  1  0.22626622  0.11709589  0.76739711  1
  O2-  O164  1  0.23324933  0.44172057  0.29432142  1
  O2-  O165  1  0.24351858  0.46443158  0.75555953  1
  O2-  O166  1  0.19800886  0.74893983  0.26376130  1
  O2-  O167  1  0.22854240  0.81357435  0.78454301  1
  O2-  O168  1  0.60729567  0.18744706  0.31540993  1
  O2-  O169  1  0.55482703  0.10024271  0.81173380  1
  O2-  O170  1  0.52416866  0.43593668  0.27773242  1
  O2-  O171  1  0.53572098  0.47469481  0.75540186  1
  O2-  O172  1  0.57055591  0.79505185  0.29831117  1
  O2-  O173  1  0.56592474  0.74190214  0.76458379  1
  O2-  O174  1  0.88818295  0.11381517  0.27586118  1
  O2-  O175  1  0.90713031  0.13452903  0.77223596  1
  O2-  O176  1  0.91039758  0.46201370  0.29471114  1
  O2-  O177  1  0.85187698  0.40926147  0.76843729  1
  O2-  O178  1  0.84180042  0.74251144  0.30764250  1
  O2-  O179  1  0.87611914  0.77451901  0.77004460  1
  O2-  O180  1  0.20211008  0.09084126  0.46715090  1
  O2-  O181  1  0.25050610  0.12970421  0.94577740  1
  O2-  O182  1  0.22710293  0.44479115  0.47902887  1
  O2-  O183  1  0.21974577  0.43563496  0.95613624  1
  O2-  O184  1  0.20098493  0.76147693  0.45155697  1
  O2-  O185  1  0.22431275  0.80497756  0.95780785  1
  O2-  O186  1  0.52063265  0.07220716  0.49260078  1
  O2-  O187  1  0.57678283  0.13471270  0.97487616  1
  O2-  O188  1  0.51086146  0.43689543  0.46361581  1
  O2-  O189  1  0.54498621  0.44566965  0.94785065  1
  O2-  O190  1  0.55547314  0.76619792  0.48399700  1
  O2-  O191  1  0.56915222  0.80924699  0.95278444  1
  O2-  O192  1  0.87050460  0.09792016  0.46141402  1
  O2-  O193  1  0.90319083  0.14548903  0.94504690  1
  O2-  O194  1  0.91981347  0.44322542  0.46646899  1
  O2-  O195  1  0.90185678  0.44138789  0.94440320  1
  O2-  O196  1  0.89285735  0.77541864  0.47449982  1
  O2-  O197  1  0.92466850  0.75301739  1.01517431  1
  O2-  O198  1  0.10342888  0.20720817  -0.00985145  1
  O2-  O199  1  0.12222724  0.22900406  0.54954728  1
  O2-  O200  1  0.11488295  0.53547920  0.04539230  1
  O2-  O201  1  0.13094837  0.57082021  0.52170927  1
  O2-  O202  1  0.16465757  0.93932994  0.02774672  1
  O2-  O203  1  0.10153149  0.87610263  0.50483730  1
  O2-  O204  1  0.45706966  0.23060529  0.02409285  1
  O2-  O205  1  0.43526548  0.21758254  0.49226692  1
  O2-  O206  1  0.42262249  0.52264599  0.02596983  1
  O2-  O207  1  0.43922275  0.54846560  0.55302544  1
  O2-  O208  1  0.41786400  0.85886611  0.03836313  1
  O2-  O209  1  0.46449404  0.87682224  0.57781572  1
  O2-  O210  1  0.78748534  0.22971543  0.02502001  1
  O2-  O211  1  0.79068544  0.22487131  0.52198969  1
  O2-  O212  1  0.73405552  0.53290123  0.04613573  1
  O2-  O213  1  0.81850104  0.56443796  0.54006219  1
  O2-  O214  1  0.77975746  0.83645696  0.03134418  1
  O2-  O215  1  0.77927644  0.88015584  0.53939241  1
