# generated using pymatgen
data_H2O
_symmetry_space_group_name_H-M   'P 1'
_cell_length_a   13.52007386
_cell_length_b   13.50204148
_cell_length_c   14.69110390
_cell_angle_alpha   90.02119923
_cell_angle_beta   90.02388440
_cell_angle_gamma   120.01777816
_symmetry_Int_Tables_number   1
_chemical_formula_structural   H2O
_chemical_formula_sum   'H144 O72'
_cell_volume   2322.12503023
_cell_formula_units_Z   72
loop_
 _symmetry_equiv_pos_site_id
 _symmetry_equiv_pos_as_xyz
  1  'x, y, z'
loop_
 _atom_type_symbol
 _atom_type_oxidation_number
  H+  1.0
  O2-  -2.0
loop_
 _atom_site_type_symbol
 _atom_site_label
 _atom_site_symmetry_multiplicity
 _atom_site_fract_x
 _atom_site_fract_y
 _atom_site_fract_z
 _atom_site_occupancy
  H+  H0  1  0.01917630  0.84448636  -0.02017257  1
  H+  H1  1  0.85042567  0.15938756  0.76190016  1
  H+  H2  1  0.54529159  0.07518271  1.01297837  1
  H+  H3  1  0.22682964  0.12297029  0.88421175  1
  H+  H4  1  0.30694829  0.16932747  0.50141169  1
  H+  H5  1  0.49387473  0.21194794  0.21372338  1
  H+  H6  1  0.40564434  0.87649211  0.74694089  1
  H+  H7  1  0.20572830  1.03371050  0.27964087  1
  H+  H8  1  0.96585775  0.14772399  0.98510176  1
  H+  H9  1  0.50124322  0.34709824  0.52130915  1
  H+  H10  1  0.86173372  0.16052839  0.50058564  1
  H+  H11  1  0.83661650  0.87823224  0.25663408  1
  H+  H12  1  0.38171942  0.52051247  0.19014210  1
  H+  H13  1  0.84851640  0.69954365  0.98940312  1
  H+  H14  1  0.84733293  0.70477788  0.26963778  1
  H+  H15  1  1.03088672  0.18177601  0.50812275  1
  H+  H16  1  0.17613496  0.49094072  0.50394141  1
  H+  H17  1  0.95825290  0.82903175  0.50415211  1
  H+  H18  1  0.18587061  0.16217784  0.48559585  1
  H+  H19  1  0.24574673  0.12540813  0.36200135  1
  H+  H20  1  0.85078220  0.37596691  0.98211479  1
  H+  H21  1  0.14939325  0.17679313  -0.00301694  1
  H+  H22  1  0.50655221  0.50812026  0.74470838  1
  H+  H23  1  0.56971885  0.17150628  0.47429754  1
  H+  H24  1  0.82070762  0.85221374  0.02209560  1
  H+  H25  1  0.43556993  0.23888037  0.65446108  1
  H+  H26  1  0.14057769  0.96943807  0.74742444  1
  H+  H27  1  0.18728316  0.15633571  0.75127202  1
  H+  H28  1  0.53846580  1.05790938  0.75704972  1
  H+  H29  1  0.50303432  0.37157121  0.75319977  1
  H+  H30  1  0.36256052  0.51382542  0.51083629  1
  H+  H31  1  0.16211889  0.64696347  0.25905314  1
  H+  H32  1  0.11587754  0.22599822  0.64743395  1
  H+  H33  1  0.36970555  0.19196051  0.23984274  1
  H+  H34  1  0.13266550  0.50514356  0.00270453  1
  H+  H35  1  0.17285927  0.16975046  0.24618916  1
  H+  H36  1  0.85386736  0.37767395  0.26015646  1
  H+  H37  1  0.13408379  0.50928595  0.74203905  1
  H+  H38  1  0.82903386  0.00351778  0.74865620  1
  H+  H39  1  0.31276094  0.81993085  0.48384431  1
  H+  H40  1  0.51108612  0.69554718  0.95956090  1
  H+  H41  1  0.02432385  0.51890314  0.25672243  1
  H+  H42  1  0.26928712  0.44318762  0.29506661  1
  H+  H43  1  0.17601127  0.35934648  0.98891777  1
  H+  H44  1  0.63862334  0.49402269  0.97907726  1
  H+  H45  1  1.04030359  0.18855867  0.73745651  1
  H+  H46  1  0.69265796  0.19996828  0.23229299  1
  H+  H47  1  0.14586261  0.30496701  0.51373731  1
  H+  H48  1  0.71183831  0.51928340  0.53318133  1
  H+  H49  1  0.17099712  0.80784604  -0.03062628  1
  H+  H50  1  1.03410472  0.52891522  0.50568412  1
  H+  H51  1  0.80355562  0.91404474  0.16074480  1
  H+  H52  1  0.51185917  0.70007168  0.26432695  1
  H+  H53  1  0.14031171  0.97898467  0.51402079  1
  H+  H54  1  0.49963807  0.52914121  0.21313354  1
  H+  H55  1  0.14861648  0.67379129  0.74848147  1
  H+  H56  1  0.81433914  0.85313069  0.52371730  1
  H+  H57  1  0.15716376  0.33321865  0.26298387  1
  H+  H58  1  0.30597371  0.15609195  0.75594302  1
  H+  H59  1  0.81378156  0.96496249  0.01875652  1
  H+  H60  1  0.51804052  0.37611574  0.97521092  1
  H+  H61  1  0.04412129  0.12460011  0.22534627  1
  H+  H62  1  0.30286627  0.80399773  0.25721246  1
  H+  H63  1  0.51146378  0.81218472  -0.03162488  1
  H+  H64  1  0.18403207  1.03605616  -0.03327434  1
  H+  H65  1  0.14294068  0.50842854  0.25357226  1
  H+  H66  1  0.73101783  0.19717987  0.51476522  1
  H+  H67  1  0.71275359  0.20542852  0.00446479  1
  H+  H68  1  0.54124554  0.83319135  0.74414946  1
  H+  H69  1  0.15690598  0.83814184  0.27047395  1
  H+  H70  1  0.82579081  0.52761316  0.24068078  1
  H+  H71  1  0.70749059  0.52696331  0.24084141  1
  H+  H72  1  0.84547778  0.04211067  0.26231949  1
  H+  H73  1  0.85597359  0.49877813  0.48914960  1
  H+  H74  1  0.12384645  0.84271290  0.74515866  1
  H+  H75  1  0.82314995  0.64069429  0.51877529  1
  H+  H76  1  0.81674159  0.52093750  0.00424799  1
  H+  H77  1  0.83145538  0.79624739  0.76084614  1
  H+  H78  1  0.82992697  0.31714706  0.74660881  1
  H+  H79  1  0.36115284  0.19013634  -0.00917092  1
  H+  H80  1  0.86341749  0.38252188  0.49017996  1
  H+  H81  1  0.50931940  0.65154140  0.73079085  1
  H+  H82  1  0.97031359  0.49396311  0.98328221  1
  H+  H83  1  0.49857336  0.97268849  0.51125395  1
  H+  H84  1  0.47585968  0.09437153  0.30320389  1
  H+  H85  1  0.96584236  0.81632562  0.29139823  1
  H+  H86  1  0.13590260  0.62407998  -0.00179070  1
  H+  H87  1  0.88139151  0.45935898  0.85607183  1
  H+  H88  1  0.43525049  0.92439643  -0.01578447  1
  H+  H89  1  0.50953714  0.37774960  0.25649872  1
  H+  H90  1  0.70174893  0.86632188  0.74361963  1
  H+  H91  1  0.01430639  0.51271363  0.73591240  1
  H+  H92  1  0.49103220  0.20825319  0.74306034  1
  H+  H93  1  0.48019839  0.50932319  0.51249038  1
  H+  H94  1  0.51124692  1.01214158  0.25627307  1
  H+  H95  1  0.48144106  0.83982877  0.24669692  1
  H+  H96  1  0.17972950  0.37923324  0.75591696  1
  H+  H97  1  0.23399989  0.76793754  0.35650428  1
  H+  H98  1  0.63458521  0.81884844  0.50199490  1
  H+  H99  1  0.19301606  0.70132502  0.48577622  1
  H+  H100  1  0.85196422  0.15597811  0.98650566  1
  H+  H101  1  0.52064539  0.17551241  0.99004207  1
  H+  H102  1  0.44895594  0.17648673  0.54368535  1
  H+  H103  1  0.52661712  0.46792111  0.33486958  1
  H+  H104  1  0.24204041  0.79453605  0.71415094  1
  H+  H105  1  0.84784905  0.57803713  0.75864745  1
  H+  H106  1  0.48273967  0.52090753  -0.01933783  1
  H+  H107  1  0.81582722  -0.02613941  0.51706067  1
  H+  H108  1  0.54138276  0.77154095  0.35849696  1
  H+  H109  1  0.19728970  0.43654636  0.41575490  1
  H+  H110  1  0.87196095  0.77954045  0.41904709  1
  H+  H111  1  0.51629543  0.69836331  0.49939338  1
  H+  H112  1  0.87989075  0.11204179  0.40704378  1
  H+  H113  1  0.58382551  0.42615091  0.43967792  1
  H+  H114  1  0.11378764  0.20907533  0.09071497  1
  H+  H115  1  0.56783436  0.78684357  0.83756141  1
  H+  H116  1  0.49076710  0.85073101  0.51610932  1
  H+  H117  1  0.88511185  0.11185676  0.85220392  1
  H+  H118  1  0.77654366  0.55963242  0.09363442  1
  H+  H119  1  0.55265210  0.45996806  0.84118418  1
  H+  H120  1  0.11299313  0.90112112  0.05705621  1
  H+  H121  1  0.80415418  0.19086352  0.24165662  1
  H+  H122  1  0.87709098  0.77195493  0.89719750  1
  H+  H123  1  0.44398217  0.87906798  0.15316476  1
  H+  H124  1  0.10590998  0.56159655  0.59856022  1
  H+  H125  1  0.57102181  0.13322162  0.84747443  1
  H+  H126  1  0.45717722  0.57292451  0.06760848  1
  H+  H127  1  0.78901976  0.23956168  0.09370610  1
  H+  H128  1  0.89280873  0.45533614  0.35257772  1
  H+  H129  1  0.80383588  0.24360755  0.60661670  1
  H+  H130  1  0.95402453  0.81112420  0.76278331  1
  H+  H131  1  0.43442790  0.23895678  0.08252217  1
  H+  H132  1  0.94509174  0.17768773  0.27090320  1
  H+  H133  1  0.78724873  0.91287079  0.65060498  1
  H+  H134  1  0.29281515  0.48047011  -0.01765324  1
  H+  H135  1  0.21345437  0.76270819  0.88741497  1
  H+  H136  1  0.71224185  0.20031036  0.74398323  1
  H+  H137  1  0.46415380  0.90803561  0.64766457  1
  H+  H138  1  0.33642616  0.80960847  0.01074669  1
  H+  H139  1  0.45569706  0.56448314  0.64489130  1
  H+  H140  1  0.09813795  0.87227063  0.19502908  1
  H+  H141  1  0.20214187  0.44809726  0.84828090  1
  H+  H142  1  0.59073261  0.10636743  0.39614070  1
  H+  H143  1  0.09470894  0.90116147  0.60282110  1
  O2-  O144  1  0.11859725  0.19443679  0.22000022  1
  O2-  O145  1  0.12006195  0.22776440  0.71573131  1
  O2-  O146  1  0.11000382  0.55799479  0.23786800  1
  O2-  O147  1  0.09477494  0.55111122  0.71374622  1
  O2-  O148  1  0.11844772  0.88458935  0.25920451  1
  O2-  O149  1  0.08939640  0.88925730  0.72592457  1
  O2-  O150  1  0.44459491  0.24548780  0.20773659  1
  O2-  O151  1  0.44339569  0.24229944  0.72643723  1
  O2-  O152  1  0.46374610  0.57219187  0.18632809  1
  O2-  O153  1  0.46565711  0.56936314  0.71272353  1
  O2-  O154  1  0.44320060  0.88367859  0.22041169  1
  O2-  O155  1  0.47922453  0.91647188  0.71604851  1
  O2-  O156  1  0.77366319  0.23897984  0.21450982  1
  O2-  O157  1  0.79406101  0.23652435  0.72396569  1
  O2-  O158  1  0.78621042  0.56816801  0.21707853  1
  O2-  O159  1  0.80404174  0.49407017  0.75234280  1
  O2-  O160  1  0.81680961  0.93239568  0.22806247  1
  O2-  O161  1  0.78716764  0.91567749  0.72144818  1
  O2-  O162  1  0.24752611  0.11768356  0.29166048  1
  O2-  O163  1  0.22382210  0.11302339  0.77617641  1
  O2-  O164  1  0.18754083  0.41286602  0.28656288  1
  O2-  O165  1  0.20111733  0.45530972  0.78089505  1
  O2-  O166  1  0.22387380  0.76187401  0.28404526  1
  O2-  O167  1  0.19133230  0.75979247  0.76599118  1
  O2-  O168  1  0.54398820  0.09345034  0.28239548  1
  O2-  O169  1  0.57438196  0.13779551  0.78018215  1
  O2-  O170  1  0.55099753  0.46101839  0.27371578  1
  O2-  O171  1  0.54502259  0.45620723  0.77260183  1
  O2-  O172  1  0.53521948  0.77529178  0.29131234  1
  O2-  O173  1  0.58113979  0.79302464  0.76709724  1
  O2-  O174  1  0.86715861  0.12420181  0.28983895  1
  O2-  O175  1  0.88535687  0.11210597  0.78253366  1
  O2-  O176  1  0.89807763  0.45821613  0.28310613  1
  O2-  O177  1  0.88321887  0.45662810  0.78512110  1
  O2-  O178  1  0.88258511  0.78067280  0.30071089  1
  O2-  O179  1  0.87380313  0.76082871  0.78515567  1
  O2-  O180  1  0.23155372  0.12637422  0.46571560  1
  O2-  O181  1  0.22634784  0.11963804  0.95361558  1
  O2-  O182  1  0.21371002  0.44658317  0.48131392  1
  O2-  O183  1  0.20972630  0.43953969  0.96719694  1
  O2-  O184  1  0.23757666  0.77606319  0.45341213  1
  O2-  O185  1  0.21053433  0.76404166  0.95480815  1
  O2-  O186  1  0.59534197  0.11643809  0.46368723  1
  O2-  O187  1  0.56774033  0.13934782  0.97161102  1
  O2-  O188  1  0.55210657  0.43333857  0.49694173  1
  O2-  O189  1  0.55942244  0.45648446  0.95260804  1
  O2-  O190  1  0.55414314  0.78007562  0.47921545  1
  O2-  O191  1  0.55059427  0.77658245  0.93784989  1
  O2-  O192  1  0.88959161  0.11016294  0.47436146  1
  O2-  O193  1  0.88596561  0.11099498  0.96132547  1
  O2-  O194  1  0.89805864  0.45996459  0.46201877  1
  O2-  O195  1  0.88669155  0.45668053  0.96024841  1
  O2-  O196  1  0.87391830  0.78321601  0.48686795  1
  O2-  O197  1  0.88887820  0.77967083  0.96531809  1
  O2-  O198  1  0.10724243  0.21343847  0.02419605  1
  O2-  O199  1  0.11121540  0.22282536  0.53158605  1
  O2-  O200  1  0.09114475  0.54511605  0.02222122  1
  O2-  O201  1  0.11392834  0.56518759  0.53053280  1
  O2-  O202  1  0.10663067  0.88915499  -0.00835939  1
  O2-  O203  1  0.08966078  0.89996911  0.53554646  1
  O2-  O204  1  0.44169305  0.23420224  0.01579440  1
  O2-  O205  1  0.42512544  0.23243244  0.55456682  1
  O2-  O206  1  0.44054871  0.56021370  0.00145106  1
  O2-  O207  1  0.44403639  0.55542119  0.53040513  1
  O2-  O208  1  0.41872881  0.86292419  0.02726741  1
  O2-  O209  1  0.45294488  0.89514977  0.53749842  1
  O2-  O210  1  0.79280419  0.23861508  0.02592533  1
  O2-  O211  1  0.80983940  0.24441815  0.53848643  1
  O2-  O212  1  0.77327974  0.55889719  0.02602081  1
  O2-  O213  1  0.79578648  0.55953958  0.53582288  1
  O2-  O214  1  0.78618146  0.89288374  0.05261502  1
  O2-  O215  1  0.77514593  0.89652104  0.54683289  1
