# generated using pymatgen
data_H2O
_symmetry_space_group_name_H-M   'P 1'
_cell_length_a   13.52596537
_cell_length_b   13.52279033
_cell_length_c   14.69765178
_cell_angle_alpha   90.07271394
_cell_angle_beta   89.96913834
_cell_angle_gamma   120.00203778
_symmetry_Int_Tables_number   1
_chemical_formula_structural   H2O
_chemical_formula_sum   'H144 O72'
_cell_volume   2328.11216696
_cell_formula_units_Z   72
loop_
 _symmetry_equiv_pos_site_id
 _symmetry_equiv_pos_as_xyz
  1  'x, y, z'
loop_
 _atom_type_symbol
 _atom_type_oxidation_number
  H+  1.0
  O2-  -2.0
loop_
 _atom_site_type_symbol
 _atom_site_label
 _atom_site_symmetry_multiplicity
 _atom_site_fract_x
 _atom_site_fract_y
 _atom_site_fract_z
 _atom_site_occupancy
  H+  H0  1  0.14663516  -0.03138285  0.48899300  1
  H+  H1  1  0.81751171  0.67355966  0.74448233  1
  H+  H2  1  0.68411013  0.50623123  0.24828763  1
  H+  H3  1  0.79354892  0.88635175  0.08854346  1
  H+  H4  1  0.21183453  0.48829764  0.74458902  1
  H+  H5  1  0.62610755  0.69608044  0.91248137  1
  H+  H6  1  0.50260215  0.36334982  0.99019754  1
  H+  H7  1  0.64409453  0.16582791  0.28607410  1
  H+  H8  1  0.36746186  0.53820804  0.01144977  1
  H+  H9  1  0.23735565  0.95944812  0.66288522  1
  H+  H10  1  0.19610633  0.80811632  1.00376468  1
  H+  H11  1  0.18239033  0.00123221  0.26589651  1
  H+  H12  1  0.42050189  0.59283137  0.24733715  1
  H+  H13  1  0.18776001  0.49880324  0.47583120  1
  H+  H14  1  0.47987606  0.84665366  0.49741379  1
  H+  H15  1  0.13640222  0.63777649  0.50235513  1
  H+  H16  1  0.19823521  0.11789107  0.23251676  1
  H+  H17  1  0.44127502  0.89805456  0.11880716  1
  H+  H18  1  0.63508524  0.47705848  0.48910446  1
  H+  H19  1  0.16318792  0.65228161  0.25475062  1
  H+  H20  1  0.18385524  0.13342477  0.99693665  1
  H+  H21  1  0.47355514  0.51936931  0.01832787  1
  H+  H22  1  0.49326010  0.15988713  0.98303036  1
  H+  H23  1  0.16922845  0.81602413  0.73410112  1
  H+  H24  1  0.96526663  0.81163367  0.48197845  1
  H+  H25  1  0.92708538  0.96916292  0.18455756  1
  H+  H26  1  0.80839457  0.96010947  0.50676262  1
  H+  H27  1  0.61264201  0.16977847  0.99036951  1
  H+  H28  1  0.18122073  0.48912048  0.98839636  1
  H+  H29  1  0.95275364  0.13920771  0.49766310  1
  H+  H30  1  0.37546348  0.17219810  0.24311613  1
  H+  H31  1  0.42814452  0.85093337  0.21714452  1
  H+  H32  1  0.50506649  0.14765765  0.75357211  1
  H+  H33  1  0.48338143  -0.02302802  0.98349243  1
  H+  H34  1  0.19947392  0.97886194  0.02515393  1
  H+  H35  1  0.88689017  -0.00127392  0.96003229  1
  H+  H36  1  0.18290271  0.82031441  0.47979692  1
  H+  H37  1  0.70952904  0.83237312  -0.00054104  1
  H+  H38  1  0.85840951  0.15590505  1.01102683  1
  H+  H39  1  0.35642487  0.18550796  0.01231608  1
  H+  H40  1  0.48696108  0.46360542  0.26904954  1
  H+  H41  1  0.51860679  0.48605076  0.75676886  1
  H+  H42  1  0.81729132  0.34009752  0.75761443  1
  H+  H43  1  0.01671119  0.82456289  0.24694576  1
  H+  H44  1  0.79722801  0.50330588  0.74097593  1
  H+  H45  1  0.91929211  0.45950539  0.72914005  1
  H+  H46  1  0.48160874  0.30239063  0.73947204  1
  H+  H47  1  0.07720186  0.51594145  0.75693728  1
  H+  H48  1  0.18185708  0.15355180  0.77426301  1
  H+  H49  1  0.52081986  0.48758576  0.49308249  1
  H+  H50  1  0.30118119  0.14960625  0.48981496  1
  H+  H51  1  0.87786944  0.76319186  0.35041775  1
  H+  H52  1  0.43906273  0.22393279  0.64922131  1
  H+  H53  1  0.48275867  0.29893799  0.24383120  1
  H+  H54  1  0.30304675  0.15784449  0.75948960  1
  H+  H55  1  0.17194491  0.63930785  0.73354241  1
  H+  H56  1  0.44040091  0.22808528  0.10065240  1
  H+  H57  1  0.09181778  0.20991632  0.85086769  1
  H+  H58  1  0.67977244  0.16946416  0.74162420  1
  H+  H59  1  0.68123386  0.50510580  0.73321140  1
  H+  H60  1  0.51293312  0.03515738  0.49729004  1
  H+  H61  1  0.62668739  0.81349117  0.47440808  1
  H+  H62  1  0.84101849  0.50706263  0.98594738  1
  H+  H63  1  0.77561198  0.21211829  0.03458354  1
  H+  H64  1  0.36276024  0.84963804  0.72764229  1
  H+  H65  1  0.81213662  0.12868321  -0.02522050  1
  H+  H66  1  -0.05875946  0.51178296  0.51230089  1
  H+  H67  1  0.38339441  0.84811829  -0.01550395  1
  H+  H68  1  0.75024682  0.62908653  0.05037046  1
  H+  H69  1  1.01372662  0.50661059  1.01930528  1
  H+  H70  1  0.13655029  0.21397093  0.27975863  1
  H+  H71  1  0.04695899  0.15574745  0.00774151  1
  H+  H72  1  0.85589567  0.04859452  0.26616354  1
  H+  H73  1  0.62292527  0.47672065  0.99440537  1
  H+  H74  1  0.19129103  0.53084281  0.23262586  1
  H+  H75  1  0.30113006  0.81659462  0.48331759  1
  H+  H76  1  0.83787055  0.14709596  0.49873492  1
  H+  H77  1  0.83422292  0.68170867  0.26204220  1
  H+  H78  1  0.51158966  0.81961712  0.75373319  1
  H+  H79  1  0.85630283  0.68717861  0.48812803  1
  H+  H80  1  0.86209275  0.82064328  0.97283277  1
  H+  H81  1  0.19700579  0.36688819  0.77132835  1
  H+  H82  1  0.52833506  0.67705722  0.98081363  1
  H+  H83  1  0.49181837  0.63751595  0.73218281  1
  H+  H84  1  0.56372503  0.77487670  0.23759651  1
  H+  H85  1  0.37958631  0.51394303  0.73397456  1
  H+  H86  1  0.21998661  0.39010757  0.24468099  1
  H+  H87  1  0.52373816  0.15680524  0.27557126  1
  H+  H88  1  0.11424030  0.54577380  0.15438174  1
  H+  H89  1  0.47930079  0.17991416  0.51424698  1
  H+  H90  1  0.47824064  0.29840865  0.51056889  1
  H+  H91  1  0.80474879  0.50628796  0.25795501  1
  H+  H92  1  0.13663418  0.61842614  1.02461661  1
  H+  H93  1  0.68456825  0.83750835  0.72979046  1
  H+  H94  1  0.89270893  0.72071238  0.97024918  1
  H+  H95  1  0.15537405  0.78412082  0.26333245  1
  H+  H96  1  0.37147952  0.52364375  0.50385596  1
  H+  H97  1  0.81828198  0.19805245  0.24984673  1
  H+  H98  1  0.45339846  0.55968627  0.59205895  1
  H+  H99  1  0.02468053  0.20772717  0.24892956  1
  H+  H100  1  0.84708663  0.85747102  0.23651872  1
  H+  H101  1  0.78666724  0.33217652  0.02571615  1
  H+  H102  1  0.16626573  0.98997089  0.72611174  1
  H+  H103  1  1.02492443  0.18255058  0.76098025  1
  H+  H104  1  0.80981936  0.84113527  0.50317049  1
  H+  H105  1  0.68528791  0.18361341  0.51663727  1
  H+  H106  1  0.83574808  0.14043393  0.74153931  1
  H+  H107  1  0.13832458  0.16375132  0.50886975  1
  H+  H108  1  0.51828879  0.75344956  0.33878482  1
  H+  H109  1  0.76855436  0.55206456  0.11987154  1
  H+  H110  1  0.22657172  0.11102981  0.39817484  1
  H+  H111  1  0.88192223  0.11920745  0.35901238  1
  H+  H112  1  0.10566473  0.89165193  0.57635191  1
  H+  H113  1  0.11169710  0.87140862  0.16458291  1
  H+  H114  1  0.76386520  0.86954228  0.63854672  1
  H+  H115  1  0.91233849  0.07813046  0.87418562  1
  H+  H116  1  0.84163094  0.02443943  0.73117225  1
  H+  H117  1  0.20431058  0.74992484  0.35406146  1
  H+  H118  1  0.55763260  0.77402571  0.83784238  1
  H+  H119  1  0.79810162  0.30651027  0.52389968  1
  H+  H120  1  0.26721469  0.94107530  0.09196404  1
  H+  H121  1  0.79461106  0.52924500  0.59252563  1
  H+  H122  1  0.10434134  0.55533543  0.58762378  1
  H+  H123  1  0.84057573  0.37517026  0.28547717  1
  H+  H124  1  0.54319754  0.43715092  0.35405823  1
  H+  H125  1  0.81375990  0.80233061  0.74048627  1
  H+  H126  1  0.55666724  0.12289889  0.41260537  1
  H+  H127  1  0.54171351  0.11146628  0.84541893  1
  H+  H128  1  0.86984483  0.76637047  0.83467003  1
  H+  H129  1  0.51092419  0.69532206  0.48154821  1
  H+  H130  1  0.47872869  0.96965840  0.73596461  1
  H+  H131  1  0.76007486  0.21579264  0.65203215  1
  H+  H132  1  0.44300753  0.88442411  0.58892713  1
  H+  H133  1  0.22391807  0.09780606  0.90391890  1
  H+  H134  1  0.23938690  0.47122218  0.89945835  1
  H+  H135  1  0.76689263  0.24621733  0.17290709  1
  H+  H136  1  0.87092757  0.45080744  0.90146794  1
  H+  H137  1  0.18834436  0.73026468  0.91795488  1
  H+  H138  1  0.10980633  0.21766825  0.59330461  1
  H+  H139  1  0.86020662  0.45275396  0.37281555  1
  H+  H140  1  0.11394567  0.21010604  0.10143166  1
  H+  H141  1  0.24696153  0.47080177  0.39482840  1
  H+  H142  1  0.55395630  0.44376356  0.84800835  1
  H+  H143  1  0.23780103  0.83272000  0.82131622  1
  O2-  O144  1  0.10708512  0.24051531  0.23074074  1
  O2-  O145  1  0.10551443  0.22234831  0.78521943  1
  O2-  O146  1  0.13350240  0.55467825  0.22124470  1
  O2-  O147  1  0.13656915  0.55922857  0.71212452  1
  O2-  O148  1  0.10070454  0.86394654  0.23177292  1
  O2-  O149  1  0.15949529  0.92491987  0.68660275  1
  O2-  O150  1  0.45172187  0.22117674  0.21618248  1
  O2-  O151  1  0.43816836  0.22139502  0.71775421  1
  O2-  O152  1  0.38253455  0.50778286  0.23533511  1
  O2-  O153  1  0.46008732  0.55731588  0.71027899  1
  O2-  O154  1  0.40763675  0.89711635  0.17898644  1
  O2-  O155  1  0.44389921  0.88991875  0.71013459  1
  O2-  O156  1  0.77835959  0.24198432  0.23918224  1
  O2-  O157  1  0.76158302  0.21267885  0.72078907  1
  O2-  O158  1  0.76492561  0.54573804  0.22690182  1
  O2-  O159  1  0.76350821  0.54586351  0.71083922  1
  O2-  O160  1  0.84744397  0.92301592  0.20320413  1
  O2-  O161  1  0.76584144  0.86924432  0.70752982  1
  O2-  O162  1  0.22630331  0.08594690  0.27839810  1
  O2-  O163  1  0.22286666  0.10996767  0.78334186  1
  O2-  O164  1  0.26672468  0.46822981  0.27093397  1
  O2-  O165  1  0.24900556  0.45104948  0.77635185  1
  O2-  O166  1  0.19358987  0.74107505  0.28571292  1
  O2-  O167  1  0.20662122  0.78017793  0.76977712  1
  O2-  O168  1  0.56501878  0.12640164  0.31061067  1
  O2-  O169  1  0.54215540  0.10454416  0.77708389  1
  O2-  O170  1  0.53965045  0.43569054  0.28591067  1
  O2-  O171  1  0.55568322  0.44213537  0.77968931  1
  O2-  O172  1  0.49410707  0.73568866  0.27354533  1
  O2-  O173  1  0.55340258  0.77861030  0.77000909  1
  O2-  O174  1  0.88800263  0.12686302  0.29061847  1
  O2-  O175  1  0.88308264  0.10408425  0.75371675  1
  O2-  O176  1  0.87002620  0.45538342  0.30635856  1
  O2-  O177  1  0.85992822  0.42512520  0.77545506  1
  O2-  O178  1  0.88037334  0.76405861  0.28206655  1
  O2-  O179  1  0.85482766  0.75744217  0.76522045  1
  O2-  O180  1  0.22079076  0.10805999  0.46546336  1
  O2-  O181  1  0.22692058  0.09560246  0.97155112  1
  O2-  O182  1  0.24035867  0.47053385  0.46163533  1
  O2-  O183  1  0.23999728  0.47196237  0.96649952  1
  O2-  O184  1  0.21926096  0.77435196  0.46238531  1
  O2-  O185  1  0.21736557  0.75138286  0.97967837  1
  O2-  O186  1  0.55267843  0.11829622  0.48322039  1
  O2-  O187  1  0.53850762  0.12527831  0.95829058  1
  O2-  O188  1  0.55442327  0.44003011  0.47051348  1
  O2-  O189  1  0.54731700  0.44339108  0.96510923  1
  O2-  O190  1  0.54554432  0.77401244  0.45446891  1
  O2-  O191  1  0.59416030  0.73966232  0.93996612  1
  O2-  O192  1  0.87238893  0.10292903  0.47360843  1
  O2-  O193  1  0.94908032  0.06347987  0.92633514  1
  O2-  O194  1  0.85584977  0.46370794  0.50145600  1
  O2-  O195  1  0.87367482  0.45864124  0.96856734  1
  O2-  O196  1  0.88190316  0.76535339  0.46603108  1
  O2-  O197  1  0.90099881  0.78649060  0.93639452  1
  O2-  O198  1  0.12333648  0.19902958  0.03666819  1
  O2-  O199  1  0.08699234  0.19139643  0.53124006  1
  O2-  O200  1  0.09184337  0.53685111  0.04393436  1
  O2-  O201  1  0.08662676  0.55687838  0.52275777  1
  O2-  O202  1  0.19259619  0.91254394  0.06266079  1
  O2-  O203  1  0.10410741  0.88614025  0.50885228  1
  O2-  O204  1  0.43797752  0.23260019  0.03260264  1
  O2-  O205  1  0.43517902  0.21866548  0.53436198  1
  O2-  O206  1  0.44862088  0.57439844  0.03443350  1
  O2-  O207  1  0.45376021  0.56001111  0.52406732  1
  O2-  O208  1  0.46484352  0.89788566  -0.00224458  1
  O2-  O209  1  0.43869241  0.88569619  0.52142649  1
  O2-  O210  1  0.73945862  0.25573946  0.05498993  1
  O2-  O211  1  0.76709336  0.22534878  0.53997538  1
  O2-  O212  1  0.76738265  0.56709152  0.05127188  1
  O2-  O213  1  0.80504009  0.53540292  0.52483196  1
  O2-  O214  1  0.79070956  0.87750235  0.02143461  1
  O2-  O215  1  0.76727873  0.87821384  0.52678896  1
