# generated using pymatgen
data_H2O
_symmetry_space_group_name_H-M   'P 1'
_cell_length_a   13.51366044
_cell_length_b   13.51114928
_cell_length_c   14.68268942
_cell_angle_alpha   90.06345274
_cell_angle_beta   89.96604434
_cell_angle_gamma   119.98266968
_symmetry_Int_Tables_number   1
_chemical_formula_structural   H2O
_chemical_formula_sum   'H144 O72'
_cell_volume   2322.07951322
_cell_formula_units_Z   72
loop_
 _symmetry_equiv_pos_site_id
 _symmetry_equiv_pos_as_xyz
  1  'x, y, z'
loop_
 _atom_type_symbol
 _atom_type_oxidation_number
  H+  1.0
  O2-  -2.0
loop_
 _atom_site_type_symbol
 _atom_site_label
 _atom_site_symmetry_multiplicity
 _atom_site_fract_x
 _atom_site_fract_y
 _atom_site_fract_z
 _atom_site_occupancy
  H+  H0  1  0.48656243  0.32675560  0.49772876  1
  H+  H1  1  0.15905975  0.51658144  0.01059693  1
  H+  H2  1  0.87487866  0.43476601  0.27971604  1
  H+  H3  1  0.36088062  0.52000578  0.75256370  1
  H+  H4  1  0.28658937  0.15252220  0.48595411  1
  H+  H5  1  0.80666454  0.35846742  0.25083339  1
  H+  H6  1  0.94177109  0.80658806  0.96933691  1
  H+  H7  1  0.53235091  0.82152282  0.24172549  1
  H+  H8  1  0.69265837  0.18532841  0.73896579  1
  H+  H9  1  0.19774509  0.05720717  0.75684793  1
  H+  H10  1  0.79118090  0.23251461  0.60225848  1
  H+  H11  1  0.80579156  0.60062104  0.23048676  1
  H+  H12  1  0.04189429  0.53426653  0.52689335  1
  H+  H13  1  0.15155198  0.52460580  0.75783062  1
  H+  H14  1  0.84250750  0.03699722  0.26451137  1
  H+  H15  1  0.49406915  0.63070903  0.24453739  1
  H+  H16  1  0.35010648  0.84722355  0.00556827  1
  H+  H17  1  0.13381787  0.96599833  -0.00178637  1
  H+  H18  1  0.47808525  0.63919555  0.75062103  1
  H+  H19  1  0.36314522  0.19716107  0.73312532  1
  H+  H20  1  0.32377406  0.83013804  0.49968798  1
  H+  H21  1  0.54871745  0.11184494  0.89063245  1
  H+  H22  1  0.22710709  -0.05941259  0.30197572  1
  H+  H23  1  0.03145221  0.19377270  0.72954144  1
  H+  H24  1  0.50367263  0.84325358  0.49352789  1
  H+  H25  1  0.40237454  0.04439505  0.31701798  1
  H+  H26  1  0.51765491  0.48880190  0.25931886  1
  H+  H27  1  0.48873216  0.96718487  0.23253787  1
  H+  H28  1  0.69671523  0.51570896  0.73962392  1
  H+  H29  1  0.54084251  0.02566784  0.49726330  1
  H+  H30  1  0.16333630  0.85596687  0.51069218  1
  H+  H31  1  0.64881168  0.81941147  0.25419747  1
  H+  H32  1  0.14900016  0.31887831  0.00461719  1
  H+  H33  1  0.83733298  0.68114441  -0.02720985  1
  H+  H34  1  0.81433006  0.50391950  1.00853330  1
  H+  H35  1  0.17478970  1.02856588  0.49455207  1
  H+  H36  1  0.50611468  0.62899268  -0.01152933  1
  H+  H37  1  0.84761429  0.48888959  0.75970891  1
  H+  H38  1  0.98652468  0.18031026  0.46900286  1
  H+  H39  1  0.15549631  0.31586373  0.50242988  1
  H+  H40  1  0.46122505  0.20670115  0.46214290  1
  H+  H41  1  0.36037458  0.17860646  0.23350351  1
  H+  H42  1  0.50174911  0.01650275  0.76309825  1
  H+  H43  1  0.66832817  0.49042361  0.23138352  1
  H+  H44  1  0.47840759  0.50338533  -0.00540811  1
  H+  H45  1  0.71940127  0.19357680  0.51054850  1
  H+  H46  1  0.86564827  0.17890413  0.48170926  1
  H+  H47  1  0.50549310  0.81448057  0.78044095  1
  H+  H48  1  0.54096730  0.13991872  0.52217032  1
  H+  H49  1  0.69927568  0.74718077  0.93054093  1
  H+  H50  1  0.18008606  0.69903379  1.00027240  1
  H+  H51  1  0.77251479  0.27221605  0.22658429  1
  H+  H52  1  0.81400103  0.75300721  0.27555320  1
  H+  H53  1  0.81549264  0.63457290  0.51520497  1
  H+  H54  1  0.51169984  0.48960795  0.76115218  1
  H+  H55  1  0.62722235  0.80912512  0.76549138  1
  H+  H56  1  0.81412846  0.14249930  0.25421028  1
  H+  H57  1  0.84783339  0.36516431  0.98826222  1
  H+  H58  1  0.84830964  0.16253648  0.74555433  1
  H+  H59  1  0.14510744  0.19011514  0.49759038  1
  H+  H60  1  0.18256390  0.16903711  0.75365738  1
  H+  H61  1  0.18432742  0.29806431  0.22007838  1
  H+  H62  1  0.24904493  0.79545911  0.40847653  1
  H+  H63  1  -0.02968355  0.80629871  0.49563590  1
  H+  H64  1  0.20133968  0.73092860  0.26450178  1
  H+  H65  1  0.48515325  0.52200606  0.51715763  1
  H+  H66  1  0.69090115  0.49902965  0.00354831  1
  H+  H67  1  0.47810383  0.17713003  0.00379772  1
  H+  H68  1  0.46831400  0.84899950  -0.00775026  1
  H+  H69  1  0.51546791  0.35395282  -0.01611484  1
  H+  H70  1  0.51509452  0.36527127  0.25851791  1
  H+  H71  1  0.50921969  0.03321383  0.97968614  1
  H+  H72  1  0.22841337  0.45065158  1.11149875  1
  H+  H73  1  0.64100234  0.49426538  0.49323868  1
  H+  H74  1  0.81468208  0.94419208  0.55211921  1
  H+  H75  1  0.19657243  0.87253157  0.74631779  1
  H+  H76  1  0.17903114  0.37559268  0.77340525  1
  H+  H77  1  0.97799052  0.17285049  0.97931353  1
  H+  H78  1  0.85417170  0.49745325  0.50926958  1
  H+  H79  1  0.21992786  0.12151176  0.89937217  1
  H+  H80  1  0.14393711  0.19436471  -0.00017622  1
  H+  H81  1  0.37968990  0.51434593  0.21308073  1
  H+  H82  1  -0.12076097  0.76389633  0.82110288  1
  H+  H83  1  0.50839085  0.14173451  0.75107675  1
  H+  H84  1  0.52311039  0.09205694  0.36506059  1
  H+  H85  1  0.18567510  0.70872230  0.77501250  1
  H+  H86  1  0.18406690  0.48803486  0.50073214  1
  H+  H87  1  0.88557185  0.13451784  0.36379450  1
  H+  H88  1  0.11934503  0.56752655  0.66637472  1
  H+  H89  1  0.82155264  1.00517065  0.01959816  1
  H+  H90  1  0.88844044  0.91672245  0.21930659  1
  H+  H91  1  0.47664558  0.18361526  0.24231443  1
  H+  H92  1  0.06812899  0.55748183  0.24897580  1
  H+  H93  1  0.85573852  0.05612619  0.71456474  1
  H+  H94  1  0.29300386  0.14869879  -0.01003487  1
  H+  H95  1  0.51297436  0.37152036  0.75223396  1
  H+  H96  1  0.69395838  0.18186628  -0.00555388  1
  H+  H97  1  0.81974235  0.79751475  0.74505822  1
  H+  H98  1  0.16420933  0.64802937  0.52204461  1
  H+  H99  1  0.78427620  0.91665307  0.79162521  1
  H+  H100  1  0.86457340  0.38383171  0.50563719  1
  H+  H101  1  0.49810899  0.68788310  0.48042752  1
  H+  H102  1  0.93785228  0.78755586  0.24686721  1
  H+  H103  1  0.04032847  0.52240746  0.01211637  1
  H+  H104  1  0.13267230  0.84770717  0.00999165  1
  H+  H105  1  0.93537373  0.49659939  0.37525116  1
  H+  H106  1  0.96730227  0.48950227  0.76368970  1
  H+  H107  1  0.09798919  0.95978162  0.22544363  1
  H+  H108  1  0.11933348  0.20432432  0.15153489  1
  H+  H109  1  0.89583047  0.12197205  0.89019988  1
  H+  H110  1  0.21521772  0.78106521  0.91229910  1
  H+  H111  1  0.60053461  0.76709586  0.89098851  1
  H+  H112  1  0.45309921  0.89342553  0.13973013  1
  H+  H113  1  0.05039287  0.89696687  0.13024443  1
  H+  H114  1  0.81588409  0.18640794  -0.00558055  1
  H+  H115  1  0.56501389  0.45941027  0.40091769  1
  H+  H116  1  0.81439255  0.63769689  0.73072102  1
  H+  H117  1  0.20752216  0.50276199  0.20052730  1
  H+  H118  1  0.22393863  0.04434564  0.35555247  1
  H+  H119  1  0.51488179  0.90412403  0.58981950  1
  H+  H120  1  0.81066180  0.30791526  0.74340137  1
  H+  H121  1  0.89633436  0.75227896  0.40664081  1
  H+  H122  1  0.27696921  0.97815276  0.68715101  1
  H+  H123  1  0.41258158  0.86734881  0.68988293  1
  H+  H124  1  0.44125785  0.21973144  0.09353346  1
  H+  H125  1  0.29207689  0.48607142  0.98668661  1
  H+  H126  1  0.75241967  0.19523562  0.13525809  1
  H+  H127  1  0.88870130  0.44843945  0.90190795  1
  H+  H128  1  0.71993772  0.87415439  0.01694080  1
  H+  H129  1  0.44347974  0.56065065  0.60637470  1
  H+  H130  1  0.55845086  0.43673198  0.89533877  1
  H+  H131  1  0.76164465  0.91416453  0.65166420  1
  H+  H132  1  0.32455516  0.83600734  0.26388027  1
  H+  H133  1  0.21060847  0.44665735  0.86850848  1
  H+  H134  1  0.13040662  0.89786449  0.60002572  1
  H+  H135  1  0.29981133  0.48583142  0.49762611  1
  H+  H136  1  0.79548540  0.91797717  0.15452082  1
  H+  H137  1  0.31346433  0.82653301  0.78542320  1
  H+  H138  1  0.43954301  0.22949215  0.64248356  1
  H+  H139  1  0.12811661  0.58924359  0.15023445  1
  H+  H140  1  0.53947391  0.76206739  0.38618572  1
  H+  H141  1  0.11409779  0.23689522  0.64361824  1
  H+  H142  1  0.75721557  0.53068819  0.12864171  1
  H+  H143  1  0.76894572  0.55201658  0.60425111  1
  O2-  O144  1  0.15062282  0.21480976  0.21368074  1
  O2-  O145  1  0.11411260  0.23502733  0.71167548  1
  O2-  O146  1  0.14374560  0.59808346  0.21737607  1
  O2-  O147  1  0.11204566  0.56585307  0.73426688  1
  O2-  O148  1  0.02719261  0.90541851  0.19361919  1
  O2-  O149  1  0.19767530  0.93636702  0.70748983  1
  O2-  O150  1  0.44078238  0.22589008  0.21526289  1
  O2-  O151  1  0.44317599  0.22834163  0.70944082  1
  O2-  O152  1  0.45642387  0.54633067  0.24275542  1
  O2-  O153  1  0.43944723  0.55764574  0.72620980  1
  O2-  O154  1  0.45952886  0.88949747  0.20728428  1
  O2-  O155  1  0.43302185  0.88726061  0.75347793  1
  O2-  O156  1  0.74009845  0.18870942  0.20299701  1
  O2-  O157  1  0.77363577  0.22885892  0.71702937  1
  O2-  O158  1  0.75219440  0.52380240  0.20135457  1
  O2-  O159  1  0.77578144  0.55084194  0.71506180  1
  O2-  O160  1  0.81180389  0.90870812  0.22215256  1
  O2-  O161  1  0.74639053  0.85796664  0.74529425  1
  O2-  O162  1  0.24397141  0.02063021  0.29699528  1
  O2-  O163  1  0.22955051  0.13668414  0.77963290  1
  O2-  O164  1  0.24198539  0.45745005  0.17833856  1
  O2-  O165  1  0.21783705  0.45388364  0.79904378  1
  O2-  O166  1  0.24876937  0.80881716  0.29317702  1
  O2-  O167  1  0.22464721  0.78786279  0.80048116  1
  O2-  O168  1  0.48458313  0.07687891  0.30464979  1
  O2-  O169  1  0.55027378  0.10499889  0.77561663  1
  O2-  O170  1  0.56379820  0.44655700  0.27768475  1
  O2-  O171  1  0.55383322  0.44903317  0.77995601  1
  O2-  O172  1  0.56688304  0.77774606  0.26861721  1
  O2-  O173  1  0.54247473  0.76721165  0.79241947  1
  O2-  O174  1  0.86592343  0.11720123  0.28427871  1
  O2-  O175  1  0.88951053  0.11969329  0.75908424  1
  O2-  O176  1  0.94115614  0.50866906  0.30788790  1
  O2-  O177  1  0.88563135  0.44660084  0.78425676  1
  O2-  O178  1  0.86860925  0.72549491  0.27981560  1
  O2-  O179  1  0.87175869  0.76294334  0.75390951  1
  O2-  O180  1  0.20915761  0.10318546  0.46085491  1
  O2-  O181  1  0.21304471  0.11067743  0.96662380  1
  O2-  O182  1  0.21955745  0.44495390  0.47551106  1
  O2-  O183  1  0.20766615  0.44519921  0.98228985  1
  O2-  O184  1  0.24440706  0.79360980  0.47696601  1
  O2-  O185  1  0.21668966  0.78219133  0.98112904  1
  O2-  O186  1  0.57297064  0.10937900  0.47810028  1
  O2-  O187  1  0.55036466  0.11431759  0.95930278  1
  O2-  O188  1  0.55965904  0.45607417  0.46864251  1
  O2-  O189  1  0.56259382  0.43517568  0.96348047  1
  O2-  O190  1  0.53455573  0.76602763  0.45344912  1
  O2-  O191  1  0.63667861  0.75978182  0.94922453  1
  O2-  O192  1  0.90523618  0.14567972  0.44548959  1
  O2-  O193  1  0.89483991  0.13012975  0.95685023  1
  O2-  O194  1  0.90537410  0.46679476  0.49028602  1
  O2-  O195  1  0.88799477  0.44772971  0.97022384  1
  O2-  O196  1  0.89091924  0.76218984  0.47259888  1
  O2-  O197  1  0.86532154  0.75580051  0.94258058  1
  O2-  O198  1  0.10115150  0.23180636  0.02100627  1
  O2-  O199  1  0.10790865  0.23181447  0.52212736  1
  O2-  O200  1  0.12058222  0.56500673  0.03308560  1
  O2-  O201  1  0.12317843  0.56991770  0.54812737  1
  O2-  O202  1  0.08688074  0.88598899  0.02132318  1
  O2-  O203  1  0.11822963  0.89149512  0.53288699  1
  O2-  O204  1  0.43752879  0.21776690  0.02591723  1
  O2-  O205  1  0.44159114  0.24084676  0.51246269  1
  O2-  O206  1  0.44443735  0.55214343  0.00587646  1
  O2-  O207  1  0.44172879  0.55921401  0.53815342  1
  O2-  O208  1  0.43543014  0.89064876  0.02169490  1
  O2-  O209  1  0.48208358  0.89864404  0.52948589  1
  O2-  O210  1  0.77269168  0.22262986  0.02067524  1
  O2-  O211  1  0.79860804  0.23875605  0.53406209  1
  O2-  O212  1  0.76999025  0.54131219  0.03216672  1
  O2-  O213  1  0.76931129  0.55170960  0.53512981  1
  O2-  O214  1  0.77153074  0.93782883  0.05812061  1
  O2-  O215  1  0.78120996  0.97025628  0.59829935  1
