# generated using pymatgen
data_H2O
_symmetry_space_group_name_H-M   'P 1'
_cell_length_a   13.50943962
_cell_length_b   13.52195889
_cell_length_c   14.70672058
_cell_angle_alpha   89.97638845
_cell_angle_beta   89.97978230
_cell_angle_gamma   119.99776254
_symmetry_Int_Tables_number   1
_chemical_formula_structural   H2O
_chemical_formula_sum   'H144 O72'
_cell_volume   2326.66085301
_cell_formula_units_Z   72
loop_
 _symmetry_equiv_pos_site_id
 _symmetry_equiv_pos_as_xyz
  1  'x, y, z'
loop_
 _atom_type_symbol
 _atom_type_oxidation_number
  H+  1.0
  O2-  -2.0
loop_
 _atom_site_type_symbol
 _atom_site_label
 _atom_site_symmetry_multiplicity
 _atom_site_fract_x
 _atom_site_fract_y
 _atom_site_fract_z
 _atom_site_occupancy
  H+  H0  1  0.34599723  0.80578112  0.00211913  1
  H+  H1  1  0.17926369  0.81961222  0.25361107  1
  H+  H2  1  0.36581783  0.61554447  0.03298349  1
  H+  H3  1  0.51692470  0.70023785  0.47504568  1
  H+  H4  1  0.80829494  0.49877172  0.48746745  1
  H+  H5  1  0.19760635  0.37629475  0.48512424  1
  H+  H6  1  0.24796840  0.42100767  1.01749304  1
  H+  H7  1  0.29475286  0.81130676  0.25433080  1
  H+  H8  1  0.76055209  0.83147522  0.25322278  1
  H+  H9  1  0.80868063  0.92171702  0.10234621  1
  H+  H10  1  0.30601565  0.13679639  0.75094338  1
  H+  H11  1  0.52368232  0.71481492  0.76216769  1
  H+  H12  1  0.18043027  0.36888450  0.76708188  1
  H+  H13  1  0.63342286  0.14332285  0.49845329  1
  H+  H14  1  0.32037674  0.13820096  0.27223282  1
  H+  H15  1  0.51502709  0.48402948  0.48756341  1
  H+  H16  1  0.12935920  0.94695020  0.50995640  1
  H+  H17  1  0.51129118  1.02577227  0.49985617  1
  H+  H18  1  0.57189058  0.79831520  0.89570302  1
  H+  H19  1  0.14737472  0.95834197  0.73811827  1
  H+  H20  1  0.14790670  -0.03726395  0.99892106  1
  H+  H21  1  0.67947734  0.49943757  0.48770206  1
  H+  H22  1  0.80966921  0.63091927  0.48798399  1
  H+  H23  1  0.04555374  0.21743103  0.50305035  1
  H+  H24  1  0.95433385  0.48937669  0.98967236  1
  H+  H25  1  0.44449939  0.19165645  0.15049059  1
  H+  H26  1  0.54636925  0.24758066  0.22031734  1
  H+  H27  1  0.48355773  0.09952064  0.27958358  1
  H+  H28  1  0.66530570  0.82991831  0.97644246  1
  H+  H29  1  0.18020836  0.14095250  0.49399606  1
  H+  H30  1  0.13270581  0.83129912  0.50704351  1
  H+  H31  1  0.14506806  0.51986340  0.24608062  1
  H+  H32  1  0.50884934  0.65539750  0.24530127  1
  H+  H33  1  0.80162584  0.65823082  0.77884789  1
  H+  H34  1  0.80152138  0.94311364  0.50846448  1
  H+  H35  1  0.14849684  -0.03698878  0.23677691  1
  H+  H36  1  0.81295119  0.29003473  0.51175753  1
  H+  H37  1  0.31349297  0.50439315  0.25696288  1
  H+  H38  1  0.36395028  0.17671622  0.50684957  1
  H+  H39  1  0.29093354  0.13022184  0.99069605  1
  H+  H40  1  0.50015170  0.36813608  0.25295202  1
  H+  H41  1  0.49366272  0.94520318  0.25533818  1
  H+  H42  1  0.35953044  0.84522292  0.74112310  1
  H+  H43  1  0.46829011  0.00517669  1.03473340  1
  H+  H44  1  0.84235203  0.49852556  -0.00777831  1
  H+  H45  1  0.66458563  0.16309343  0.24051485  1
  H+  H46  1  0.47857228  0.25915878  0.02994355  1
  H+  H47  1  0.13454531  0.63187026  0.24771893  1
  H+  H48  1  0.18172785  0.81843531  0.74650314  1
  H+  H49  1  0.13399006  0.51906447  0.02088273  1
  H+  H50  1  0.62494195  0.34301292  0.95858471  1
  H+  H51  1  0.81792205  0.03519259  0.96118447  1
  H+  H52  1  0.57542941  0.79064045  0.39330766  1
  H+  H53  1  0.01823220  0.51441090  0.73042542  1
  H+  H54  1  0.80526068  0.63933686  0.02963052  1
  H+  H55  1  0.50394209  0.72671558  1.02492734  1
  H+  H56  1  0.95160842  0.46252075  0.26214131  1
  H+  H57  1  0.88001540  0.01941464  0.74394077  1
  H+  H58  1  0.82847857  0.34421865  0.25912618  1
  H+  H59  1  0.50683725  0.54624079  -0.00850815  1
  H+  H60  1  0.66764844  0.50559097  0.70380514  1
  H+  H61  1  0.79799679  0.31863570  0.00972520  1
  H+  H62  1  0.51033486  0.82741731  0.76507678  1
  H+  H63  1  0.18337821  0.70247458  0.73488249  1
  H+  H64  1  0.21738930  0.77743941  0.40058172  1
  H+  H65  1  0.50936336  0.36027451  0.48720280  1
  H+  H66  1  0.68394226  0.82916938  0.50886521  1
  H+  H67  1  0.80446417  0.13942788  0.25333994  1
  H+  H68  1  0.65834354  0.13372750  0.80955010  1
  H+  H69  1  0.94696816  0.84569788  0.26222180  1
  H+  H70  1  0.21484265  0.15676818  0.26200872  1
  H+  H71  1  0.54669309  0.08803882  0.36789904  1
  H+  H72  1  0.37259806  0.52662684  0.49894668  1
  H+  H73  1  0.82925030  0.79157599  0.49805508  1
  H+  H74  1  -0.04314697  0.80756900  -0.01161032  1
  H+  H75  1  0.39377067  0.53011790  0.72865502  1
  H+  H76  1  0.84862667  0.50221166  0.74799334  1
  H+  H77  1  0.17051409  0.12764164  -0.00711302  1
  H+  H78  1  0.80213207  0.31590512  0.74531150  1
  H+  H79  1  0.74590432  0.07534564  0.90108291  1
  H+  H80  1  0.69484296  0.19214882  -0.00414205  1
  H+  H81  1  0.55238389  1.01217594  0.82048173  1
  H+  H82  1  0.94113040  0.07307125  0.45153397  1
  H+  H83  1  0.69722584  0.85820119  0.74376144  1
  H+  H84  1  0.95075737  0.79361023  0.49354593  1
  H+  H85  1  0.14132790  0.51888617  0.72851668  1
  H+  H86  1  0.49557330  0.50667927  1.03078816  1
  H+  H87  1  0.80719556  0.50155334  0.25247684  1
  H+  H88  1  0.22116763  0.69910924  0.99543224  1
  H+  H89  1  0.93082768  0.17510191  0.24904162  1
  H+  H90  1  0.89137381  0.46517134  0.83938584  1
  H+  H91  1  0.48100190  0.84991135  0.50323992  1
  H+  H92  1  0.07120960  0.16949593  0.26672126  1
  H+  H93  1  0.17527598  0.69314545  0.48586304  1
  H+  H94  1  0.80154489  0.77837745  0.78114434  1
  H+  H95  1  0.85819184  0.87842784  0.02088025  1
  H+  H96  1  0.36130232  0.84692808  0.50845709  1
  H+  H97  1  0.95496494  0.47598944  0.48580471  1
  H+  H98  1  0.48999546  0.29410348  0.71938643  1
  H+  H99  1  0.52760827  0.93103694  0.01096216  1
  H+  H100  1  0.51308854  0.53744598  0.70400290  1
  H+  H101  1  0.20059014  0.38076128  0.25692067  1
  H+  H102  1  0.05069699  0.30332272  0.67822376  1
  H+  H103  1  0.69601044  0.51378110  0.24884234  1
  H+  H104  1  0.81386757  0.17266526  0.51487917  1
  H+  H105  1  0.56478301  0.45027787  0.77389906  1
  H+  H106  1  0.03831503  0.19398090  0.01612649  1
  H+  H107  1  0.65523714  0.44369561  1.02702219  1
  H+  H108  1  0.11799699  0.23990720  0.59156850  1
  H+  H109  1  0.45717710  0.57482698  0.58472980  1
  H+  H110  1  0.48525951  0.18173424  0.50282939  1
  H+  H111  1  0.22239670  0.09991720  0.83472816  1
  H+  H112  1  0.25879953  0.47887259  0.92242973  1
  H+  H113  1  0.89734525  0.10279546  0.82699713  1
  H+  H114  1  0.23306121  0.45697257  0.39703789  1
  H+  H115  1  0.14551573  0.84449729  0.00110728  1
  H+  H116  1  0.86342397  0.09447028  0.38454846  1
  H+  H117  1  0.45195909  0.89500705  0.66129638  1
  H+  H118  1  0.10274947  0.88525708  0.14797597  1
  H+  H119  1  0.14267328  0.51333930  0.49772921  1
  H+  H120  1  -0.01894417  0.06894656  0.05221157  1
  H+  H121  1  0.78324866  0.56222009  0.12070867  1
  H+  H122  1  0.85111351  0.75683755  0.91447042  1
  H+  H123  1  0.87637623  0.80194178  0.35288886  1
  H+  H124  1  0.45103059  0.62924171  0.12106128  1
  H+  H125  1  0.02582693  0.18663147  0.72716076  1
  H+  H126  1  0.13070109  0.41470251  0.83807206  1
  H+  H127  1  0.10287812  0.19611431  0.16238358  1
  H+  H128  1  0.22116959  0.09829807  0.40851808  1
  H+  H129  1  0.59580817  0.50233120  0.88466525  1
  H+  H130  1  0.53341676  0.45649481  0.88488444  1
  H+  H131  1  0.73959897  0.21679111  0.14684728  1
  H+  H132  1  0.09599714  0.54690159  0.58546860  1
  H+  H133  1  0.09137871  0.86985330  0.65746410  1
  H+  H134  1  0.55381179  0.83066304  0.24468391  1
  H+  H135  1  0.53775798  0.44173231  0.34396657  1
  H+  H136  1  0.08686306  0.55012444  0.10808177  1
  H+  H137  1  0.87289127  0.42495615  0.39836147  1
  H+  H138  1  0.76747421  0.87134734  0.65298192  1
  H+  H139  1  0.44499579  0.20329202  0.64530049  1
  H+  H140  1  0.75541756  0.22119934  0.66810665  1
  H+  H141  1  0.82095465  0.59278600  0.65583584  1
  H+  H142  1  0.46815999  0.89215233  0.15658238  1
  H+  H143  1  0.48727160  0.52885772  0.23101640  1
  O2-  O144  1  0.13145176  0.22263301  0.22589794  1
  O2-  O145  1  0.09190638  0.26337413  0.69384036  1
  O2-  O146  1  0.09508423  0.55056967  0.22710480  1
  O2-  O147  1  0.09599319  0.54729860  0.69807659  1
  O2-  O148  1  0.10131191  0.88312545  0.21574006  1
  O2-  O149  1  0.10251479  0.87465523  0.72366121  1
  O2-  O150  1  0.46358927  0.21530933  0.21740469  1
  O2-  O151  1  0.44872747  0.21069633  0.71213000  1
  O2-  O152  1  0.45400505  0.57913088  0.21751506  1
  O2-  O153  1  0.46736941  0.57984290  0.69997322  1
  O2-  O154  1  0.46381067  0.87068427  0.22285729  1
  O2-  O155  1  0.44577041  0.88666010  0.72796564  1
  O2-  O156  1  0.74315522  0.21051277  0.21548497  1
  O2-  O157  1  0.75133801  0.23302854  0.73334011  1
  O2-  O158  1  0.77739684  0.55158643  0.23167869  1
  O2-  O159  1  0.78620624  0.55878757  0.71368685  1
  O2-  O160  1  0.70204894  0.83645697  0.21349554  1
  O2-  O161  1  0.77509609  0.88200255  0.71982888  1
  O2-  O162  1  0.23927354  0.10525386  0.28901785  1
  O2-  O163  1  0.22350844  0.09843433  0.76792098  1
  O2-  O164  1  0.23289913  0.45966434  0.27963899  1
  O2-  O165  1  0.20322906  0.43721539  0.80758164  1
  O2-  O166  1  0.21656717  0.77751681  0.27943459  1
  O2-  O167  1  0.22825100  0.78018099  0.75923411  1
  O2-  O168  1  0.53855959  0.07636548  0.29917160  1
  O2-  O169  1  0.61660474  0.07196257  0.85534077  1
  O2-  O170  1  0.53825860  0.44710834  0.27608252  1
  O2-  O171  1  0.57368008  0.46364058  0.70821516  1
  O2-  O172  1  0.59846068  0.79302009  0.27055330  1
  O2-  O173  1  0.55742304  0.79201886  0.78936765  1
  O2-  O174  1  0.85976027  0.11437479  0.27439257  1
  O2-  O175  1  0.93537239  0.09512841  0.77062009  1
  O2-  O176  1  0.87237324  0.42199472  0.28732443  1
  O2-  O177  1  0.89450952  0.46302204  0.77201530  1
  O2-  O178  1  0.88352663  0.84439775  0.29633319  1
  O2-  O179  1  0.80237778  0.71952766  0.82030703  1
  O2-  O180  1  0.21671979  0.09604146  0.47612699  1
  O2-  O181  1  0.21239482  0.09383651  0.96415218  1
  O2-  O182  1  0.23262614  0.45744897  0.46508367  1
  O2-  O183  1  0.25592010  0.48963858  0.98888222  1
  O2-  O184  1  0.21730015  0.77564067  0.46835284  1
  O2-  O185  1  0.29819788  0.73311342  0.96992838  1
  O2-  O186  1  0.55311401  0.10610305  0.47479985  1
  O2-  O187  1  0.47400438  0.11945295  1.00112118  1
  O2-  O188  1  0.55194623  0.44114579  0.46253528  1
  O2-  O189  1  0.59063666  0.36946342  1.00371954  1
  O2-  O190  1  0.55944111  0.78393026  0.45934115  1
  O2-  O191  1  0.58582743  0.80840500  0.96476586  1
  O2-  O192  1  0.87750343  0.08805038  0.45165103  1
  O2-  O193  1  0.82438869  0.09486888  0.91947908  1
  O2-  O194  1  0.87230966  0.43262739  0.46688361  1
  O2-  O195  1  0.87588760  0.45489392  0.96334632  1
  O2-  O196  1  0.86848984  0.75147736  0.47142392  1
  O2-  O197  1  0.87350501  0.77767522  0.98229232  1
  O2-  O198  1  0.05444094  0.14460943  0.05431993  1
  O2-  O199  1  0.12173171  0.23434101  0.52262991  1
  O2-  O200  1  0.08603355  0.55092154  0.04031424  1
  O2-  O201  1  0.09608006  0.54814169  0.51684316  1
  O2-  O202  1  0.10602637  0.88259054  0.02529888  1
  O2-  O203  1  0.08483224  0.86485176  0.52669122  1
  O2-  O204  1  0.42012036  0.17621408  0.04627026  1
  O2-  O205  1  0.44662785  0.22516890  0.52156461  1
  O2-  O206  1  0.43550248  0.66956370  0.06873255  1
  O2-  O207  1  0.45535553  0.56673744  0.51670506  1
  O2-  O208  1  0.46980160  0.93221029  0.05032199  1
  O2-  O209  1  0.44228585  0.88922214  0.52973236  1
  O2-  O210  1  0.75207901  0.24244432  0.03960943  1
  O2-  O211  1  0.77200700  0.21051298  0.53570582  1
  O2-  O212  1  0.77695863  0.55998033  0.05215016  1
  O2-  O213  1  0.76567343  0.54213646  0.50432827  1
  O2-  O214  1  0.84950815  0.94535814  0.04420555  1
  O2-  O215  1  0.76476922  0.86446229  0.53252653  1
