# generated using pymatgen
data_H2O
_symmetry_space_group_name_H-M   'P 1'
_cell_length_a   13.50844870
_cell_length_b   13.50313364
_cell_length_c   14.70287234
_cell_angle_alpha   89.91751128
_cell_angle_beta   89.98037904
_cell_angle_gamma   120.06102342
_symmetry_Int_Tables_number   1
_chemical_formula_structural   H2O
_chemical_formula_sum   'H144 O72'
_cell_volume   2321.15799347
_cell_formula_units_Z   72
loop_
 _symmetry_equiv_pos_site_id
 _symmetry_equiv_pos_as_xyz
  1  'x, y, z'
loop_
 _atom_type_symbol
 _atom_type_oxidation_number
  H+  1.0
  O2-  -2.0
loop_
 _atom_site_type_symbol
 _atom_site_label
 _atom_site_symmetry_multiplicity
 _atom_site_fract_x
 _atom_site_fract_y
 _atom_site_fract_z
 _atom_site_occupancy
  H+  H0  1  0.52629613  0.68994437  0.50629956  1
  H+  H1  1  0.69219581  0.16678350  0.24928559  1
  H+  H2  1  0.70897434  0.85834760  0.24788598  1
  H+  H3  1  0.19619009  0.03560456  0.98964764  1
  H+  H4  1  0.32876525  0.82115303  0.75458222  1
  H+  H5  1  0.51674818  0.49265701  0.74688610  1
  H+  H6  1  0.84203854  0.49071756  0.20589818  1
  H+  H7  1  0.49729839  0.97890755  -0.01326327  1
  H+  H8  1  0.96410850  0.15682287  0.27067641  1
  H+  H9  1  0.50904669  0.03635577  0.50526313  1
  H+  H10  1  1.02556598  0.85478589  0.24962741  1
  H+  H11  1  0.03997975  0.18591550  0.50360013  1
  H+  H12  1  0.47500024  0.29043473  0.23546937  1
  H+  H13  1  0.70866060  0.77375229  0.07121197  1
  H+  H14  1  0.49619475  0.84783762  0.72225779  1
  H+  H15  1  0.75396980  0.56265389  0.14593122  1
  H+  H16  1  0.18928220  0.65618130  0.25987308  1
  H+  H17  1  0.26483482  0.15772220  0.74163009  1
  H+  H18  1  0.82840764  0.00972089  0.98447604  1
  H+  H19  1  0.84084553  0.70362166  0.49950632  1
  H+  H20  1  0.64972509  0.49547143  0.75041999  1
  H+  H21  1  0.51376722  0.63163545  0.25642581  1
  H+  H22  1  0.82368345  0.62906623  0.74256634  1
  H+  H23  1  0.81817088  0.16072213  0.24494255  1
  H+  H24  1  0.04221213  0.53611020  0.01052251  1
  H+  H25  1  0.80804369  0.16495167  1.01813112  1
  H+  H26  1  0.18018749  0.03159092  0.28181345  1
  H+  H27  1  0.73669419  0.15612992  0.76665974  1
  H+  H28  1  0.69437055  0.17408869  0.01630651  1
  H+  H29  1  0.38164874  0.52632990  0.03657747  1
  H+  H30  1  0.85059030  0.82721009  0.26203451  1
  H+  H31  1  0.46661859  0.22422768  0.12175552  1
  H+  H32  1  0.18905936  0.36611406  0.50201086  1
  H+  H33  1  0.19077745  0.14680582  0.51050420  1
  H+  H34  1  0.40529046  0.86380935  0.19761149  1
  H+  H35  1  0.63950873  0.14976959  0.50388969  1
  H+  H36  1  1.01384434  0.16105939  0.99637575  1
  H+  H37  1  0.81685036  0.52575629  0.00977828  1
  H+  H38  1  0.33140966  0.48743956  0.27432857  1
  H+  H39  1  0.52530290  0.81447170  0.96357275  1
  H+  H40  1  0.53922139  0.81329382  0.50576998  1
  H+  H41  1  0.63284818  0.47384755  -0.00442555  1
  H+  H42  1  0.69618748  0.85770214  0.73127987  1
  H+  H43  1  0.44797790  0.90807946  0.64277203  1
  H+  H44  1  0.47909326  0.44766416  0.27604591  1
  H+  H45  1  0.88835366  0.44055967  0.43587113  1
  H+  H46  1  0.52243505  0.69133101  0.74530858  1
  H+  H47  1  0.51859668  0.35744962  0.50970608  1
  H+  H48  1  0.20132435  0.70403783  0.75293853  1
  H+  H49  1  0.36402962  0.50558942  0.73499448  1
  H+  H50  1  0.39041532  0.33393662  0.32675801  1
  H+  H51  1  0.43595353  0.18185656  0.75029489  1
  H+  H52  1  0.54015189  0.01295876  0.75647202  1
  H+  H53  1  1.03482153  0.87064816  1.01703515  1
  H+  H54  1  0.64230745  0.81286902  0.98142286  1
  H+  H55  1  0.31833928  0.81618982  -0.02768540  1
  H+  H56  1  0.49887074  0.63951656  1.01004651  1
  H+  H57  1  0.37719009  0.18163697  1.01173905  1
  H+  H58  1  0.51710120  0.19542536  0.23245537  1
  H+  H59  1  1.03883822  0.52592972  0.74197849  1
  H+  H60  1  0.52395858  0.15650397  0.98377999  1
  H+  H61  1  0.51750131  1.05222446  0.27283200  1
  H+  H62  1  0.58121375  0.14490650  0.74086706  1
  H+  H63  1  0.23850610  0.45008576  0.41565414  1
  H+  H64  1  0.49199362  0.18204329  0.51733221  1
  H+  H65  1  0.83641395  0.82133304  -0.00047071  1
  H+  H66  1  0.18046889  0.35316409  0.02176592  1
  H+  H67  1  0.06399567  0.83435348  0.60552653  1
  H+  H68  1  0.81019629  0.64073542  0.00183459  1
  H+  H69  1  0.20741054  0.15687118  -0.02595991  1
  H+  H70  1  0.36925150  0.51020283  0.51694623  1
  H+  H71  1  0.10587535  0.54750082  0.20207645  1
  H+  H72  1  0.52871430  0.80058340  0.29022799  1
  H+  H73  1  0.86302735  0.38662327  0.01514732  1
  H+  H74  1  0.84740258  0.03103224  0.25940314  1
  H+  H75  1  0.51811608  0.36920059  0.74677234  1
  H+  H76  1  0.54643787  0.42849661  0.41927770  1
  H+  H77  1  0.70120658  0.51099478  0.52263448  1
  H+  H78  1  0.84884473  0.46667502  0.76929175  1
  H+  H79  1  0.77659814  0.89557581  0.15083769  1
  H+  H80  1  -0.02061836  0.48942074  0.51451423  1
  H+  H81  1  0.13548083  -0.05168773  0.53296752  1
  H+  H82  1  0.15597380  0.52826947  1.02076870  1
  H+  H83  1  0.37866319  0.97214210  0.57799139  1
  H+  H84  1  0.84198640  0.86203148  0.52362144  1
  H+  H85  1  0.82811923  0.30341544  0.54093832  1
  H+  H86  1  0.17788866  0.14687285  0.29151547  1
  H+  H87  1  0.16082604  0.31823454  0.27199877  1
  H+  H88  1  0.82365019  0.51914151  0.52939062  1
  H+  H89  1  0.19359035  0.69534334  0.97492819  1
  H+  H90  1  0.79976091  0.63255327  0.23699995  1
  H+  H91  1  0.48827372  0.50656544  0.51817390  1
  H+  H92  1  0.96336485  0.81526790  0.49368977  1
  H+  H93  1  0.84606150  0.37961877  0.22509133  1
  H+  H94  1  0.14017980  0.85011915  0.25658373  1
  H+  H95  1  0.84802402  0.99216771  0.52021536  1
  H+  H96  1  0.15920291  0.52074180  0.51504866  1
  H+  H97  1  0.11331123  0.17220426  0.73922440  1
  H+  H98  1  0.49753989  0.31170852  1.01255991  1
  H+  H99  1  0.12357352  0.29545107  0.72627902  1
  H+  H100  1  0.15843999  0.64127415  0.51446785  1
  H+  H101  1  0.79973579  0.21391794  0.62190937  1
  H+  H102  1  0.85489195  0.15728495  0.50113433  1
  H+  H103  1  0.29931039  0.83022153  0.50970028  1
  H+  H104  1  0.29295427  0.85264356  0.29096424  1
  H+  H105  1  0.22398964  0.50550556  0.27622167  1
  H+  H106  1  0.51364370  0.46992167  1.00513805  1
  H+  H107  1  0.17478861  0.48839225  0.73553088  1
  H+  H108  1  0.24538340  0.77597313  0.86495787  1
  H+  H109  1  0.57039101  0.11663178  0.89585385  1
  H+  H110  1  0.44554995  0.54551994  0.64628630  1
  H+  H111  1  0.22549644  0.10126347  0.42413751  1
  H+  H112  1  0.57081948  0.12682294  0.36447117  1
  H+  H113  1  0.99183041  0.47848702  0.33628768  1
  H+  H114  1  1.01446783  0.43812260  0.34307689  1
  H+  H115  1  0.89288955  0.44317565  0.91579269  1
  H+  H116  1  0.08191103  0.13750237  0.06968962  1
  H+  H117  1  0.36692576  0.17467280  0.51881136  1
  H+  H118  1  0.11137163  0.90808120  0.10638863  1
  H+  H119  1  0.21719989  0.78440567  0.37649176  1
  H+  H120  1  0.94657769  0.16806674  0.75276321  1
  H+  H121  1  0.11177937  0.56436552  0.64789841  1
  H+  H122  1  0.56389192  0.77063023  0.83339982  1
  H+  H123  1  0.12126273  0.24259055  0.18461290  1
  H+  H124  1  0.43774597  0.22550122  0.64748970  1
  H+  H125  1  0.80091914  0.91331751  0.62373809  1
  H+  H126  1  0.48050355  0.89490124  0.06724497  1
  H+  H127  1  0.95630350  0.85270828  0.75297601  1
  H+  H128  1  0.20318663  0.10470919  0.83382639  1
  H+  H129  1  0.25050654  0.44132700  0.94644980  1
  H+  H130  1  0.88201537  0.11354111  0.40680431  1
  H+  H131  1  0.76593768  0.19592560  0.14450610  1
  H+  H132  1  0.57911984  0.76843547  0.37419022  1
  H+  H133  1  0.36429538  0.94536482  0.15761267  1
  H+  H134  1  0.88699490  0.79502361  0.90874105  1
  H+  H135  1  0.87975854  0.78001432  0.35169643  1
  H+  H136  1  0.80025897  0.98924644  0.73771131  1
  H+  H137  1  0.19075529  0.42819258  0.81975113  1
  H+  H138  1  0.17037730  0.80928743  0.50596805  1
  H+  H139  1  0.10105119  0.21656610  0.59882184  1
  H+  H140  1  0.86771422  0.35820590  0.77672341  1
  H+  H141  1  0.77726969  0.54832613  0.65835997  1
  H+  H142  1  0.86157733  0.09613219  0.89995667  1
  H+  H143  1  0.47483494  0.56271781  0.16160653  1
  O2-  O144  1  0.11045548  0.23664972  0.25040528  1
  O2-  O145  1  0.07338580  0.21258011  0.71272880  1
  O2-  O146  1  0.18207469  0.58707205  0.22964284  1
  O2-  O147  1  0.11779077  0.56459509  0.71643309  1
  O2-  O148  1  0.10805896  0.89599186  0.23033663  1
  O2-  O149  1  0.02626618  0.77883898  0.69072317  1
  O2-  O150  1  0.47060261  0.22366672  0.20007767  1
  O2-  O151  1  0.42849308  0.23893390  0.71501954  1
  O2-  O152  1  0.46942212  0.55374425  0.22932450  1
  O2-  O153  1  0.44569136  0.54436336  0.71601408  1
  O2-  O154  1  0.41525620  0.94037949  0.20234490  1
  O2-  O155  1  0.46069710  0.89650857  0.71399134  1
  O2-  O156  1  0.76930004  0.19560485  0.21699177  1
  O2-  O157  1  0.81950063  0.20308406  0.74741737  1
  O2-  O158  1  0.75350235  0.55398205  0.21295010  1
  O2-  O159  1  0.77356928  0.54664376  0.72768987  1
  O2-  O160  1  0.78599911  0.90630449  0.22010291  1
  O2-  O161  1  0.77839590  0.91196400  0.71456364  1
  O2-  O162  1  0.22095119  0.10922896  0.31033672  1
  O2-  O163  1  0.18854609  0.11385262  0.76939420  1
  O2-  O164  1  0.25245074  0.45348718  0.29991315  1
  O2-  O165  1  0.20939239  0.43928846  0.75526880  1
  O2-  O166  1  0.21707687  0.78944101  0.30721031  1
  O2-  O167  1  0.24905376  0.78095319  0.78143373  1
  O2-  O168  1  0.57349098  0.12973127  0.29467653  1
  O2-  O169  1  0.59193838  0.09513245  0.78284439  1
  O2-  O170  1  0.47060838  0.37729554  0.30781321  1
  O2-  O171  1  0.56185475  0.45241956  0.76698494  1
  O2-  O172  1  0.57799176  0.76921439  0.30442669  1
  O2-  O173  1  0.56176498  0.77264979  0.76506034  1
  O2-  O174  1  0.88050432  0.11212495  0.28564552  1
  O2-  O175  1  0.86544850  0.13032275  0.78006539  1
  O2-  O176  1  0.88706015  0.45204737  0.19266233  1
  O2-  O177  1  0.89910807  0.43918624  0.79429547  1
  O2-  O178  1  0.88553008  0.78204473  0.28418725  1
  O2-  O179  1  0.92462625  0.78354557  0.71561159  1
  O2-  O180  1  0.23058989  0.10443507  0.49267567  1
  O2-  O181  1  0.24717567  0.11437399  0.96034992  1
  O2-  O182  1  0.23247003  0.44901255  0.48371676  1
  O2-  O183  1  0.22768835  0.43653675  1.00985490  1
  O2-  O184  1  0.21973482  0.77677168  0.48450852  1
  O2-  O185  1  0.24018874  0.77563669  0.94568982  1
  O2-  O186  1  0.56350167  0.11731294  0.47478545  1
  O2-  O187  1  0.56411176  0.11473764  0.96370167  1
  O2-  O188  1  0.55873944  0.43825148  0.48585509  1
  O2-  O189  1  0.54838133  0.42491290  0.98260507  1
  O2-  O190  1  0.57241748  0.76926830  0.48143191  1
  O2-  O191  1  0.56375992  0.77031583  0.94924082  1
  O2-  O192  1  0.89328543  0.11687118  0.47385572  1
  O2-  O193  1  0.86938782  0.09136497  0.96692725  1
  O2-  O194  1  0.89391606  0.44444238  0.50217020  1
  O2-  O195  1  0.89761780  0.45969962  0.98206306  1
  O2-  O196  1  0.88006044  0.78291903  0.47496556  1
  O2-  O197  1  0.88587803  0.78789875  0.97467408  1
  O2-  O198  1  0.09201830  0.19465424  0.02417146  1
  O2-  O199  1  0.11739253  0.22366352  0.53188178  1
  O2-  O200  1  0.12556951  0.58070640  0.02481801  1
  O2-  O201  1  0.11636204  0.55903618  0.53642918  1
  O2-  O202  1  0.11436373  0.91744249  0.03931845  1
  O2-  O203  1  0.08987978  0.86388460  0.53620806  1
  O2-  O204  1  0.45874672  0.22303856  0.03519652  1
  O2-  O205  1  0.44892773  0.21938069  0.54182386  1
  O2-  O206  1  0.46538705  0.56547794  0.04473803  1
  O2-  O207  1  0.45042911  0.54999532  0.54012757  1
  O2-  O208  1  0.46041487  0.89494758  0.00365700  1
  O2-  O209  1  0.41957766  0.93430673  0.55561903  1
  O2-  O210  1  0.77082192  0.20534984  0.04662958  1
  O2-  O211  1  0.78888346  0.21999823  0.55598286  1
  O2-  O212  1  0.76764400  0.55960035  0.02305296  1
  O2-  O213  1  0.77965880  0.55691276  0.54844760  1
  O2-  O214  1  0.75094700  0.85107936  0.04553955  1
  O2-  O215  1  0.81471504  0.91454925  0.55061026  1
