# generated using pymatgen
data_H2O
_symmetry_space_group_name_H-M   'P 1'
_cell_length_a   13.48203272
_cell_length_b   13.48586957
_cell_length_c   14.67172312
_cell_angle_alpha   89.89181975
_cell_angle_beta   90.03023832
_cell_angle_gamma   119.94953520
_symmetry_Int_Tables_number   1
_chemical_formula_structural   H2O
_chemical_formula_sum   'H144 O72'
_cell_volume   2311.35090116
_cell_formula_units_Z   72
loop_
 _symmetry_equiv_pos_site_id
 _symmetry_equiv_pos_as_xyz
  1  'x, y, z'
loop_
 _atom_type_symbol
 _atom_type_oxidation_number
  H+  1.0
  O2-  -2.0
loop_
 _atom_site_type_symbol
 _atom_site_label
 _atom_site_symmetry_multiplicity
 _atom_site_fract_x
 _atom_site_fract_y
 _atom_site_fract_z
 _atom_site_occupancy
  H+  H0  1  0.85687533  0.70161865  -0.02403394  1
  H+  H1  1  0.16117482  0.97401167  0.47750100  1
  H+  H2  1  0.55459054  0.95202695  0.21115321  1
  H+  H3  1  0.36478049  0.22049602  0.71047055  1
  H+  H4  1  0.04803267  0.54382465  0.25351103  1
  H+  H5  1  0.72065495  0.87266122  0.74009525  1
  H+  H6  1  0.49144397  0.62381485  0.24017134  1
  H+  H7  1  0.65111194  0.84003076  0.47723259  1
  H+  H8  1  0.14996553  0.81547348  0.71663675  1
  H+  H9  1  0.36004868  0.19542050  0.26967870  1
  H+  H10  1  0.30153169  0.54628420  0.77660710  1
  H+  H11  1  0.17843115  0.86149816  0.22531212  1
  H+  H12  1  0.10229752  0.52613198  0.58695029  1
  H+  H13  1  0.70287737  0.52574373  0.74810590  1
  H+  H14  1  0.86414550  0.83394088  0.74923877  1
  H+  H15  1  0.87876232  0.09791008  0.38553641  1
  H+  H16  1  0.23715125  0.06423689  0.87118094  1
  H+  H17  1  0.45255868  0.50368070  0.75994973  1
  H+  H18  1  0.04115927  0.37324958  0.67513303  1
  H+  H19  1  0.16839416  0.17537738  0.46507003  1
  H+  H20  1  0.47902887  0.50120985  0.52301653  1
  H+  H21  1  0.82152286  0.64136305  0.51769353  1
  H+  H22  1  0.97717190  0.82076340  0.74367718  1
  H+  H23  1  0.96898439  0.48292548  0.99532426  1
  H+  H24  1  1.03507638  0.19846215  1.01981561  1
  H+  H25  1  0.80864703  0.63169244  0.22282661  1
  H+  H26  1  0.03683574  0.84884310  -0.00958836  1
  H+  H27  1  0.99264164  0.44831621  0.72189395  1
  H+  H28  1  0.80048484  0.91380805  0.65183639  1
  H+  H29  1  0.97504690  0.83005900  0.48974377  1
  H+  H30  1  0.82491853  0.83113828  0.23362368  1
  H+  H31  1  0.87257754  0.52744070  0.26476648  1
  H+  H32  1  0.97917469  0.14977994  0.46073902  1
  H+  H33  1  0.69344455  0.51136997  0.23314359  1
  H+  H34  1  0.64385789  0.82579454  0.98517743  1
  H+  H35  1  0.36317835  0.18034153  0.47764643  1
  H+  H36  1  0.40582194  0.51815996  0.66537120  1
  H+  H37  1  0.22298841  0.21754742  0.77408455  1
  H+  H38  1  0.82935972  0.98473232  0.50691380  1
  H+  H39  1  0.45043260  0.55702568  1.09599640  1
  H+  H40  1  0.96792454  0.48236004  0.49027743  1
  H+  H41  1  0.49070233  0.15276898  0.26152501  1
  H+  H42  1  0.81748630  0.17824255  0.48658455  1
  H+  H43  1  0.15644647  0.85279598  0.48675390  1
  H+  H44  1  0.52696630  0.79380025  0.24649262  1
  H+  H45  1  0.14803149  0.62701961  0.02043827  1
  H+  H46  1  0.83447173  0.14424881  0.78580134  1
  H+  H47  1  1.00056957  0.81782341  0.25613867  1
  H+  H48  1  0.52242449  0.48181547  0.26496667  1
  H+  H49  1  0.45353584  0.95776803  0.72901638  1
  H+  H50  1  0.17732459  0.35264559  0.25636036  1
  H+  H51  1  0.48898583  0.52277190  1.00477906  1
  H+  H52  1  0.43847171  0.88446994  0.58189336  1
  H+  H53  1  0.19262909  1.04201533  0.30126509  1
  H+  H54  1  0.16196399  0.19774426  0.25536493  1
  H+  H55  1  -0.02434252  0.19292974  0.70479180  1
  H+  H56  1  0.49399137  0.85252769  -0.00105130  1
  H+  H57  1  0.48362302  0.30961362  0.25727751  1
  H+  H58  1  0.19501245  -0.03553135  0.79331648  1
  H+  H59  1  0.85863114  0.03841473  0.99805808  1
  H+  H60  1  0.30785568  0.49965764  0.99069985  1
  H+  H61  1  0.69906763  0.18514883  1.00651430  1
  H+  H62  1  0.18752197  0.17734589  0.00050112  1
  H+  H63  1  0.79125563  0.28825650  0.77115923  1
  H+  H64  1  0.52641603  0.37777195  0.75715549  1
  H+  H65  1  0.70002088  0.81688077  0.23244194  1
  H+  H66  1  0.82668614  0.85205651  -0.00534957  1
  H+  H67  1  0.84456661  0.48201512  0.76246221  1
  H+  H68  1  0.38201737  0.03949748  0.82062733  1
  H+  H69  1  0.63698361  0.14980444  0.48370524  1
  H+  H70  1  0.48006616  0.17630765  0.49493972  1
  H+  H71  1  0.13581783  0.90903699  0.14443427  1
  H+  H72  1  0.22558008  0.67542222  0.78341632  1
  H+  H73  1  0.36210790  0.49978871  0.51353716  1
  H+  H74  1  0.35913560  0.82888151  0.72545024  1
  H+  H75  1  0.20195126  0.70059049  0.24483149  1
  H+  H76  1  0.17567088  0.47191507  0.47837233  1
  H+  H77  1  0.43976150  0.22804029  0.62587700  1
  H+  H78  1  0.15194350  0.31986739  0.01380659  1
  H+  H79  1  0.57189599  0.80349311  0.83528018  1
  H+  H80  1  0.53805137  0.84463776  0.74476420  1
  H+  H81  1  0.51174151  0.15203809  1.00542684  1
  H+  H82  1  0.82062412  0.51879283  0.99919478  1
  H+  H83  1  0.81505583  0.29453614  0.49524046  1
  H+  H84  1  0.46689265  0.13588112  0.75589633  1
  H+  H85  1  0.20216841  0.16626481  0.74297495  1
  H+  H86  1  0.17367424  0.48212868  0.25865151  1
  H+  H87  1  0.81850504  0.18601524  1.01188856  1
  H+  H88  1  0.85172595  0.48753425  0.49896630  1
  H+  H89  1  0.82384561  0.64353473  0.74314331  1
  H+  H90  1  0.16968814  0.50566210  0.76467663  1
  H+  H91  1  0.36629931  0.19242019  0.02467514  1
  H+  H92  1  0.63727962  0.48539765  0.98881115  1
  H+  H93  1  0.64286212  0.48290326  0.49684517  1
  H+  H94  1  0.67512221  0.17015352  0.78369826  1
  H+  H95  1  0.81320500  0.11992490  0.25724253  1
  H+  H96  1  0.82454895  0.86438831  0.51348450  1
  H+  H97  1  0.48533845  -0.03117919  1.00542985  1
  H+  H98  1  0.15280400  0.62480471  0.50635781  1
  H+  H99  1  0.36990313  0.50875117  0.23783518  1
  H+  H100  1  0.77772826  0.55922713  0.08521118  1
  H+  H101  1  0.85863486  0.03985489  0.76986948  1
  H+  H102  1  0.67230891  0.16793147  0.23705615  1
  H+  H103  1  0.30064700  0.81243089  0.47864325  1
  H+  H104  1  0.82620225  0.00719454  0.25489194  1
  H+  H105  1  0.18070641  0.35203092  0.46865228  1
  H+  H106  1  0.47957794  0.96753468  0.49574618  1
  H+  H107  1  0.30664755  0.80721579  0.99635086  1
  H+  H108  1  0.91581874  0.50912077  0.36278004  1
  H+  H109  1  0.46593452  0.88655308  0.13151493  1
  H+  H110  1  0.55741793  0.44327325  0.85324486  1
  H+  H111  1  0.10921328  0.54800880  0.15618875  1
  H+  H112  1  0.90010105  0.12079318  0.91153059  1
  H+  H113  1  0.47588498  0.02747836  0.25852098  1
  H+  H114  1  0.16170293  -0.07892261  0.94755557  1
  H+  H115  1  0.32271746  0.81628716  0.24702451  1
  H+  H116  1  0.78546570  0.87850859  0.08859701  1
  H+  H117  1  0.52821414  0.83011641  0.46936130  1
  H+  H118  1  0.18597582  0.80331586  0.99630325  1
  H+  H119  1  0.22333979  0.76894213  0.38993410  1
  H+  H120  1  0.57055142  0.77291852  0.34337286  1
  H+  H121  1  0.89190846  0.78399592  0.40629493  1
  H+  H122  1  0.55093339  0.11096169  0.39770136  1
  H+  H123  1  0.21561605  0.44005371  0.35676301  1
  H+  H124  1  0.11563282  0.20841639  0.55533992  1
  H+  H125  1  0.12980019  0.88561034  0.63700071  1
  H+  H126  1  0.51780411  0.36770676  0.99958653  1
  H+  H127  1  0.44152113  0.22690242  0.11491970  1
  H+  H128  1  0.52387669  0.70843952  0.98846205  1
  H+  H129  1  0.75981771  0.20954502  0.15360732  1
  H+  H130  1  -0.05498571  0.21168672  0.60574154  1
  H+  H131  1  0.56967182  0.44977811  0.35578018  1
  H+  H132  1  0.78319265  0.56294756  0.60746678  1
  H+  H133  1  0.94272209  0.69756903  0.30368521  1
  H+  H134  1  0.89908316  0.78300926  0.88684791  1
  H+  H135  1  0.52937922  0.10813629  0.90989708  1
  H+  H136  1  0.12761527  0.23544958  0.15901763  1
  H+  H137  1  0.23374226  0.77030538  0.84732769  1
  H+  H138  1  0.52393279  0.36273433  0.48633985  1
  H+  H139  1  0.88810482  0.44487706  0.85124254  1
  H+  H140  1  0.22740562  0.48867776  0.90636023  1
  H+  H141  1  0.14956105  0.51056545  0.01983964  1
  H+  H142  1  0.18318484  0.05804922  1.01029953  1
  H+  H143  1  0.84844663  0.36633571  0.99237658  1
  O2-  O144  1  0.13186864  0.24375927  0.22698072  1
  O2-  O145  1  0.01045818  0.23725872  0.64689485  1
  O2-  O146  1  0.12109373  0.55548592  0.22458641  1
  O2-  O147  1  0.06030633  0.45367770  0.68908534  1
  O2-  O148  1  0.13673166  0.90366249  0.21129235  1
  O2-  O149  1  0.12289101  0.87015812  0.70376904  1
  O2-  O150  1  0.43333053  0.22874931  0.23476730  1
  O2-  O151  1  0.44101999  0.23441238  0.69463374  1
  O2-  O152  1  0.44907145  0.54305036  0.21508802  1
  O2-  O153  1  0.38845637  0.50780084  0.73210831  1
  O2-  O154  1  0.47692455  0.88871483  0.20102243  1
  O2-  O155  1  0.43615293  0.88446918  0.69988789  1
  O2-  O156  1  0.75261144  0.19493916  0.22010581  1
  O2-  O157  1  0.75392907  0.20349982  0.76352693  1
  O2-  O158  1  0.76981170  0.55178626  0.20131656  1
  O2-  O159  1  0.78304601  0.56152582  0.72366588  1
  O2-  O160  1  0.77961834  0.86164362  0.20627003  1
  O2-  O161  1  0.80390365  0.91044514  0.72011746  1
  O2-  O162  1  0.22603758  0.12189641  0.32278813  1
  O2-  O163  1  0.24082912  -0.00339337  0.85029199  1
  O2-  O164  1  0.21631173  0.44129149  0.28191867  1
  O2-  O165  1  0.23667198  0.55275632  0.80532697  1
  O2-  O166  1  0.24171459  0.78287689  0.26430254  1
  O2-  O167  1  0.22991121  0.75181888  0.78152526  1
  O2-  O168  1  0.52673130  0.10536846  0.28013241  1
  O2-  O169  1  0.46221962  0.07473575  0.79712061  1
  O2-  O170  1  0.56612341  0.44445761  0.28686112  1
  O2-  O171  1  0.56477487  0.45419169  0.78562633  1
  O2-  O172  1  0.56592817  0.75531534  0.27388132  1
  O2-  O173  1  0.58838647  0.81714027  0.76971200  1
  O2-  O174  1  0.85727724  0.08389752  0.28152155  1
  O2-  O175  1  0.89275389  0.11946893  0.79560209  1
  O2-  O176  1  0.94137854  0.55363948  0.30371951  1
  O2-  O177  1  0.87738596  0.43391219  0.78378842  1
  O2-  O178  1  0.92726723  0.75983208  0.28599219  1
  O2-  O179  1  0.89977683  0.78745964  0.77116485  1
  O2-  O180  1  0.22793115  0.11283615  0.42533097  1
  O2-  O181  1  0.22829125  0.13464373  0.98283432  1
  O2-  O182  1  0.21772973  0.43557525  0.44947898  1
  O2-  O183  1  0.22607081  0.46106255  0.97073916  1
  O2-  O184  1  0.21846278  0.76853650  0.45742351  1
  O2-  O185  1  0.22541109  0.76217139  0.97500641  1
  O2-  O186  1  0.55323392  0.11066401  0.46549156  1
  O2-  O187  1  0.54805684  0.11106782  0.97565354  1
  O2-  O188  1  0.56517960  0.44525357  0.46839010  1
  O2-  O189  1  0.55449056  0.44492100  0.97063447  1
  O2-  O190  1  0.57771040  0.80250026  0.44294717  1
  O2-  O191  1  0.56221761  0.78863027  0.96479905  1
  O2-  O192  1  0.89460839  0.11076332  0.45422736  1
  O2-  O193  1  0.89778230  0.12092678  0.98009091  1
  O2-  O194  1  0.88836722  0.44919491  0.46621490  1
  O2-  O195  1  0.89007699  0.44713581  0.96901447  1
  O2-  O196  1  0.89175351  0.78823359  0.47350463  1
  O2-  O197  1  0.90044736  0.78337113  0.95539729  1
  O2-  O198  1  0.11688649  0.24168093  0.04124007  1
  O2-  O199  1  0.12644299  0.21748265  0.48918070  1
  O2-  O200  1  0.10473827  0.54661863  0.04418999  1
  O2-  O201  1  0.11182902  0.54113577  0.51964691  1
  O2-  O202  1  0.12098746  0.89171932  0.00691927  1
  O2-  O203  1  0.12230401  0.89870079  0.51041591  1
  O2-  O204  1  0.44689922  0.22634937  0.04714805  1
  O2-  O205  1  0.43778353  0.21774712  0.51192031  1
  O2-  O206  1  0.45103173  0.56516067  0.02833924  1
  O2-  O207  1  0.43125385  0.52936104  0.55132058  1
  O2-  O208  1  0.44875226  0.88706657  0.02612868  1
  O2-  O209  1  0.43790996  0.88469117  0.51369824  1
  O2-  O210  1  0.77818256  0.22796939  0.03096973  1
  O2-  O211  1  0.77468520  0.21315879  0.51407022  1
  O2-  O212  1  0.78039615  0.56167750  0.01699184  1
  O2-  O213  1  0.78347447  0.56053208  0.53901636  1
  O2-  O214  1  0.78605287  0.89015740  0.02134952  1
  O2-  O215  1  0.78641543  0.90657923  0.53591326  1
