# generated using pymatgen
data_H2O
_symmetry_space_group_name_H-M   'P 1'
_cell_length_a   13.51464759
_cell_length_b   13.51272963
_cell_length_c   14.66004371
_cell_angle_alpha   90.06810740
_cell_angle_beta   89.98995981
_cell_angle_gamma   120.00438315
_symmetry_Int_Tables_number   1
_chemical_formula_structural   H2O
_chemical_formula_sum   'H144 O72'
_cell_volume   2318.43096506
_cell_formula_units_Z   72
loop_
 _symmetry_equiv_pos_site_id
 _symmetry_equiv_pos_as_xyz
  1  'x, y, z'
loop_
 _atom_type_symbol
 _atom_type_oxidation_number
  H+  1.0
  O2-  -2.0
loop_
 _atom_site_type_symbol
 _atom_site_label
 _atom_site_symmetry_multiplicity
 _atom_site_fract_x
 _atom_site_fract_y
 _atom_site_fract_z
 _atom_site_occupancy
  H+  H0  1  0.47249799  0.60166270  0.24347251  1
  H+  H1  1  0.80017421  0.57628200  0.31284877  1
  H+  H2  1  0.82271442  0.82007903  0.57787039  1
  H+  H3  1  0.51515270  1.01654349  0.24995707  1
  H+  H4  1  0.75485399  0.20052476  0.06794784  1
  H+  H5  1  0.16480045  0.19375418  0.50155167  1
  H+  H6  1  0.28932515  0.41665924  0.24190937  1
  H+  H7  1  0.63634967  0.14276321  0.48170066  1
  H+  H8  1  0.67353882  0.57193531  0.03932753  1
  H+  H9  1  0.30488792  0.14730627  -0.00725493  1
  H+  H10  1  0.67149281  0.84947461  0.63311269  1
  H+  H11  1  0.79208177  0.49336461  0.02190723  1
  H+  H12  1  0.17979473  0.35886755  0.47758778  1
  H+  H13  1  0.44826222  0.86859938  0.08648363  1
  H+  H14  1  0.80368621  0.27545223  0.21277319  1
  H+  H15  1  0.19979998  0.05365560  0.48818097  1
  H+  H16  1  0.81654975  0.29094830  0.50332116  1
  H+  H17  1  0.51673985  0.13685333  0.24725080  1
  H+  H18  1  0.70121051  0.20349191  -0.03493840  1
  H+  H19  1  0.48213701  0.84302279  0.73366570  1
  H+  H20  1  0.46641488  0.64631685  0.50458051  1
  H+  H21  1  0.48777893  0.47732542  0.76357972  1
  H+  H22  1  0.81887414  0.64171721  0.54276316  1
  H+  H23  1  0.15460627  0.65207936  0.22767419  1
  H+  H24  1  0.84732542  0.53416690  1.04605502  1
  H+  H25  1  0.82923339  0.53041459  0.51578747  1
  H+  H26  1  0.97435377  0.47995617  0.49340001  1
  H+  H27  1  0.68162011  0.15691133  0.22900027  1
  H+  H28  1  0.32715970  0.80816217  0.75541216  1
  H+  H29  1  0.17076159  0.51245764  0.73627106  1
  H+  H30  1  0.50929959  0.82928734  0.48102948  1
  H+  H31  1  0.50169012  0.49101746  1.00127583  1
  H+  H32  1  0.89650120  0.73872981  0.17922371  1
  H+  H33  1  0.85105933  0.72413961  0.00543694  1
  H+  H34  1  0.81896941  0.13826058  0.23870949  1
  H+  H35  1  0.83099029  0.86420693  -0.00288982  1
  H+  H36  1  0.84283457  0.61937818  0.74922267  1
  H+  H37  1  0.03569347  0.87748400  0.52741582  1
  H+  H38  1  0.76948709  0.20692512  0.58875975  1
  H+  H39  1  0.81973387  0.85597120  0.21205714  1
  H+  H40  1  0.12938398  0.90401990  0.59881849  1
  H+  H41  1  0.16402301  0.97247693  -0.00174768  1
  H+  H42  1  0.47881315  0.83321251  0.23199259  1
  H+  H43  1  0.21901599  0.19295120  0.25967241  1
  H+  H44  1  0.86508818  0.33430410  0.97065285  1
  H+  H45  1  0.19272723  0.67441074  0.75930866  1
  H+  H46  1  0.47888103  0.96945859  0.50956050  1
  H+  H47  1  0.18576916  0.35749545  -0.00275291  1
  H+  H48  1  0.07424341  0.89567627  0.21553853  1
  H+  H49  1  0.37884753  0.18259720  0.22897730  1
  H+  H50  1  0.85498498  0.03801555  0.47053956  1
  H+  H51  1  1.04426535  0.50522796  0.99759461  1
  H+  H52  1  0.54354790  0.17755708  0.79676588  1
  H+  H53  1  0.32048370  0.16926697  0.49358468  1
  H+  H54  1  0.84977629  0.15258153  0.47512789  1
  H+  H55  1  0.52593427  0.81819973  0.96838928  1
  H+  H56  1  0.89910243  0.05085991  0.77864541  1
  H+  H57  1  0.55467184  0.10268356  0.39418673  1
  H+  H58  1  0.35213614  0.52507552  0.50192180  1
  H+  H59  1  0.87492458  0.47740448  0.74753100  1
  H+  H60  1  0.20617514  0.14326083  0.73351552  1
  H+  H61  1  0.19247552  1.01109950  0.23046244  1
  H+  H62  1  0.62525144  0.82847227  0.48438770  1
  H+  H63  1  0.53773085  0.70772664  0.95528285  1
  H+  H64  1  0.62164909  0.79514048  0.24709097  1
  H+  H65  1  0.04442057  0.52728831  0.22194106  1
  H+  H66  1  0.51500135  0.45853911  0.25252369  1
  H+  H67  1  0.50000816  0.30509080  0.51082377  1
  H+  H68  1  0.36642170  0.84479930  0.23298106  1
  H+  H69  1  0.36048493  0.84892311  0.50988366  1
  H+  H70  1  0.78754523  0.95534529  0.62485009  1
  H+  H71  1  0.86001768  0.15791026  0.98426149  1
  H+  H72  1  0.17415379  0.80589726  0.48812585  1
  H+  H73  1  0.20095900  0.36354337  0.75456950  1
  H+  H74  1  0.69989220  0.18853991  0.74028894  1
  H+  H75  1  0.64167316  0.47928448  0.48810882  1
  H+  H76  1  0.18269150  0.47609048  -0.01279348  1
  H+  H77  1  0.86931674  0.04586875  0.99019586  1
  H+  H78  1  0.49398288  0.30126247  0.74256123  1
  H+  H79  1  0.50767495  0.20840320  -0.01927202  1
  H+  H80  1  0.88428397  0.43221584  0.14098917  1
  H+  H81  1  0.49131326  0.18223161  0.50857243  1
  H+  H82  1  0.83720850  0.46404696  0.22669929  1
  H+  H83  1  0.68603773  0.48937572  0.26070482  1
  H+  H84  1  0.41651478  0.63104095  0.06083778  1
  H+  H85  1  0.42732872  0.87935576  0.65206053  1
  H+  H86  1  0.34322110  0.51236651  0.00865798  1
  H+  H87  1  0.17290789  0.84472375  0.73084625  1
  H+  H88  1  0.82038078  0.29637969  0.71857381  1
  H+  H89  1  0.14788950  0.50234652  0.49378971  1
  H+  H90  1  0.18537875  0.81439768  0.97764553  1
  H+  H91  1  0.00104656  0.81134484  0.76485052  1
  H+  H92  1  0.74040349  0.85952610  0.77183885  1
  H+  H93  1  0.53124923  0.70749954  0.73758721  1
  H+  H94  1  0.71113460  0.86109556  -0.01247076  1
  H+  H95  1  0.98323790  0.82474222  0.99233493  1
  H+  H96  1  0.54678970  0.45709415  0.91497546  1
  H+  H97  1  0.04256600  0.18621271  0.49855743  1
  H+  H98  1  0.20223945  0.84402097  0.25689218  1
  H+  H99  1  0.18895473  0.14854550  1.00648918  1
  H+  H100  1  0.48761383  0.30898014  1.01058405  1
  H+  H101  1  0.37341804  0.53018665  0.73781192  1
  H+  H102  1  0.52148065  0.34173738  0.24607928  1
  H+  H103  1  0.04638535  0.19578987  0.02965919  1
  H+  H104  1  0.90761343  0.77356733  0.28137713  1
  H+  H105  1  0.89064999  0.78874767  0.64601784  1
  H+  H106  1  0.37007970  0.83171611  -0.00241856  1
  H+  H107  1  0.82716791  1.01275840  0.24114954  1
  H+  H108  1  0.05055557  0.51128069  0.73045059  1
  H+  H109  1  0.76977826  0.89270439  0.13051102  1
  H+  H110  1  0.12179931  0.56196216  0.08905510  1
  H+  H111  1  0.86937668  0.45112708  0.95347735  1
  H+  H112  1  0.54765318  0.76686627  0.33807852  1
  H+  H113  1  0.06499094  0.19089923  0.74432301  1
  H+  H114  1  0.94081165  0.14275246  0.85575712  1
  H+  H115  1  0.87385954  0.10239781  0.33329744  1
  H+  H116  1  0.73701486  0.59642000  0.13306385  1
  H+  H117  1  0.44152900  0.56536813  0.64333138  1
  H+  H118  1  0.17577317  0.96711663  0.72956265  1
  H+  H119  1  0.32369896  0.13997927  0.73650263  1
  H+  H120  1  0.18001128  0.69042085  -0.01799872  1
  H+  H121  1  0.12164377  0.54314151  0.59008595  1
  H+  H122  1  0.87374587  0.73040122  0.39470487  1
  H+  H123  1  0.18025165  0.68982727  0.48949125  1
  H+  H124  1  0.91820931  0.42286515  0.82494022  1
  H+  H125  1  0.84124889  0.76280999  0.39503950  1
  H+  H126  1  0.22924568  0.43789755  0.84722459  1
  H+  H127  1  0.78582191  0.53864729  0.66375724  1
  H+  H128  1  0.89245994  0.44548601  0.40760097  1
  H+  H129  1  0.47574309  0.22664892  0.65260019  1
  H+  H130  1  0.91604724  0.77143403  0.85264944  1
  H+  H131  1  0.13186652  0.23124907  0.64839137  1
  H+  H132  1  0.40869710  0.36740642  0.81932580  1
  H+  H133  1  0.43805820  0.52909090  0.15260292  1
  H+  H134  1  0.13562919  0.24783929  0.11637588  1
  H+  H135  1  0.25281296  0.13977484  0.34566808  1
  H+  H136  1  0.57541477  0.79465221  0.82120037  1
  H+  H137  1  0.22938539  0.76108860  0.85538263  1
  H+  H138  1  0.20778212  0.41874516  0.38106504  1
  H+  H139  1  0.45580170  0.21133106  0.13659251  1
  H+  H140  1  0.22527264  0.78584871  0.34456913  1
  H+  H141  1  0.14145468  0.89882170  0.08633504  1
  H+  H142  1  0.56372148  0.42744558  0.39886876  1
  H+  H143  1  0.85628684  0.85502466  0.77345136  1
  O2-  O144  1  0.15853636  0.26022006  0.22671398  1
  O2-  O145  1  0.14464081  0.23206622  0.71507591  1
  O2-  O146  1  0.12257366  0.57516983  0.19924246  1
  O2-  O147  1  0.13487832  0.55733348  0.71258199  1
  O2-  O148  1  0.15740322  0.93054434  0.20627591  1
  O2-  O149  1  0.12843868  0.88098206  0.71257395  1
  O2-  O150  1  0.45871394  0.21134131  0.20514039  1
  O2-  O151  1  0.47354415  0.22388061  0.72109187  1
  O2-  O152  1  0.44047498  0.52223381  0.21978711  1
  O2-  O153  1  0.45268067  0.56858012  0.71224177  1
  O2-  O154  1  0.44642695  0.88062301  0.20898842  1
  O2-  O155  1  0.42565037  0.86851718  0.71991716  1
  O2-  O156  1  0.76199819  0.19099760  0.20185621  1
  O2-  O157  1  0.76238948  0.22007063  0.69514158  1
  O2-  O158  1  0.77410183  0.54029939  0.25317364  1
  O2-  O159  1  0.80225352  0.53841532  0.72961765  1
  O2-  O160  1  0.76990038  0.88892753  0.19976826  1
  O2-  O161  1  0.82306285  0.90477290  0.76087217  1
  O2-  O162  1  0.25325643  0.14239639  0.27761522  1
  O2-  O163  1  0.23959746  0.09348532  0.74463030  1
  O2-  O164  1  0.20776065  0.37837011  0.26057389  1
  O2-  O165  1  0.23527852  0.44439064  0.77933916  1
  O2-  O166  1  0.22953811  0.79087855  0.27685429  1
  O2-  O167  1  0.23516820  0.75776812  0.78407338  1
  O2-  O168  1  0.55751384  0.09770622  0.27288665  1
  O2-  O169  1  0.58652620  0.14768710  0.83187739  1
  O2-  O170  1  0.55909452  0.42114884  0.27345868  1
  O2-  O171  1  0.48879248  0.41661990  0.80283666  1
  O2-  O172  1  0.54232006  0.75355736  0.27059999  1
  O2-  O173  1  0.57553268  0.79198176  0.75270682  1
  O2-  O174  1  0.86312678  0.09574983  0.26448546  1
  O2-  O175  1  0.94324861  0.13460621  0.78862138  1
  O2-  O176  1  0.87780224  0.42212837  0.20713191  1
  O2-  O177  1  0.91937814  0.43547511  0.75809863  1
  O2-  O178  1  0.92039111  0.80488558  0.21934204  1
  O2-  O179  1  0.91849120  0.76906571  0.78426015  1
  O2-  O180  1  0.24186333  0.13386401  0.46583998  1
  O2-  O181  1  0.22197509  0.10419732  0.97952520  1
  O2-  O182  1  0.21235221  0.43562773  0.44730852  1
  O2-  O183  1  0.22469342  0.43634047  0.96675388  1
  O2-  O184  1  0.21962542  0.77092274  0.46760935  1
  O2-  O185  1  0.22266418  0.76987280  0.95552660  1
  O2-  O186  1  0.55441648  0.10343012  0.46223356  1
  O2-  O187  1  0.61388594  0.21320065  0.91722084  1
  O2-  O188  1  0.56265479  0.42879279  0.46612610  1
  O2-  O189  1  0.55372856  0.46356643  0.98279775  1
  O2-  O190  1  0.55041309  0.79124646  0.45432198  1
  O2-  O191  1  0.57452337  0.78863628  0.93790352  1
  O2-  O192  1  0.89087834  0.11491824  0.44491985  1
  O2-  O193  1  0.91468485  0.12898295  0.97648439  1
  O2-  O194  1  0.89131546  0.44370425  0.47403400  1
  O2-  O195  1  0.91659399  0.41565485  0.94605857  1
  O2-  O196  1  0.87585650  0.78979364  0.58064150  1
  O2-  O197  1  0.90358259  0.79101152  0.96742111  1
  O2-  O198  1  0.12887091  0.23749799  0.04728570  1
  O2-  O199  1  0.11981728  0.22953974  0.52507031  1
  O2-  O200  1  0.12385226  0.55667253  0.02002341  1
  O2-  O201  1  0.11108817  0.54382082  0.52281906  1
  O2-  O202  1  0.12648994  0.88884336  0.01954582  1
  O2-  O203  1  0.11871304  0.90784471  0.53124656  1
  O2-  O204  1  0.45757426  0.22631538  0.02093466  1
  O2-  O205  1  0.45609687  0.22422079  0.53669523  1
  O2-  O206  1  0.42314671  0.56752625  0.03607292  1
  O2-  O207  1  0.42366308  0.57233733  0.53626458  1
  O2-  O208  1  0.44837886  0.85715295  0.01957892  1
  O2-  O209  1  0.44005491  0.88950592  0.53467202  1
  O2-  O210  1  0.77362384  0.21213919  0.00268517  1
  O2-  O211  1  0.77822915  0.20857999  0.51927080  1
  O2-  O212  1  0.73354495  0.63449247  0.07736323  1
  O2-  O213  1  0.77853922  0.55693886  0.54101612  1
  O2-  O214  1  0.78661491  0.90058986  0.01928764  1
  O2-  O215  1  0.73068747  0.89280344  0.58692412  1
