# generated using pymatgen
data_H2O
_symmetry_space_group_name_H-M   'P 1'
_cell_length_a   13.54390582
_cell_length_b   13.53628606
_cell_length_c   14.68857874
_cell_angle_alpha   90.00025846
_cell_angle_beta   90.02693145
_cell_angle_gamma   120.04249571
_symmetry_Int_Tables_number   1
_chemical_formula_structural   H2O
_chemical_formula_sum   'H144 O72'
_cell_volume   2331.13626555
_cell_formula_units_Z   72
loop_
 _symmetry_equiv_pos_site_id
 _symmetry_equiv_pos_as_xyz
  1  'x, y, z'
loop_
 _atom_type_symbol
 _atom_type_oxidation_number
  H+  1.0
  O2-  -2.0
loop_
 _atom_site_type_symbol
 _atom_site_label
 _atom_site_symmetry_multiplicity
 _atom_site_fract_x
 _atom_site_fract_y
 _atom_site_fract_z
 _atom_site_occupancy
  H+  H0  1  0.43208946  0.03288182  0.30444269  1
  H+  H1  1  0.23215092  0.78164199  0.40495733  1
  H+  H2  1  0.53366185  0.84744686  0.72676602  1
  H+  H3  1  0.07572271  0.53238971  0.74352072  1
  H+  H4  1  0.96042303  0.14169233  0.97646514  1
  H+  H5  1  0.46145210  0.49825832  0.49601953  1
  H+  H6  1  0.83332922  0.31353180  0.73667292  1
  H+  H7  1  0.16780610  0.36665005  0.27112089  1
  H+  H8  1  0.96505319  0.80871310  0.26361921  1
  H+  H9  1  0.15249224  0.94940544  0.23915096  1
  H+  H10  1  0.14995442  0.83548797  0.52704394  1
  H+  H11  1  0.22218216  0.69367350  0.76010005  1
  H+  H12  1  0.16710690  0.48754204  0.27434961  1
  H+  H13  1  0.16562617  0.52523267  0.50989622  1
  H+  H14  1  0.81826923  0.63683005  0.24308051  1
  H+  H15  1  0.81628373  0.69465239  0.75979637  1
  H+  H16  1  0.50069411  0.35249056  0.77352071  1
  H+  H17  1  0.50151194  -0.00092254  0.73062949  1
  H+  H18  1  0.81216763  0.50715322  1.01326951  1
  H+  H19  1  0.56699781  0.15629601  0.47612677  1
  H+  H20  1  0.21278357  0.80409616  0.77782160  1
  H+  H21  1  0.05426420  0.21071297  0.50928330  1
  H+  H22  1  0.18961211  0.80680740  0.25640275  1
  H+  H23  1  0.87665555  0.18267816  0.47873662  1
  H+  H24  1  0.91904167  0.51702677  0.77593048  1
  H+  H25  1  0.10897162  0.89321058  0.80198088  1
  H+  H26  1  0.99302266  0.49503044  0.48428551  1
  H+  H27  1  0.87084031  0.69694585  0.50265611  1
  H+  H28  1  0.30583564  0.48854370  0.48606188  1
  H+  H29  1  0.39066597  0.86952379  0.73081772  1
  H+  H30  1  0.50919370  0.40832238  0.37585975  1
  H+  H31  1  0.51276390  0.79761724  0.25873861  1
  H+  H32  1  0.81420402  0.85975009  0.73531134  1
  H+  H33  1  0.16758525  0.99441161  0.49872321  1
  H+  H34  1  0.63398986  0.80563630  0.26395018  1
  H+  H35  1  0.77151719  0.50834374  0.78482375  1
  H+  H36  1  0.75580092  0.87298027  0.05497819  1
  H+  H37  1  0.84637483  0.80040756  0.49353078  1
  H+  H38  1  0.66213758  0.50174310  0.74870108  1
  H+  H39  1  0.84152177  0.02787525  0.96326818  1
  H+  H40  1  0.43410719  0.22082033  0.08785689  1
  H+  H41  1  0.03552951  0.19130294  0.73941623  1
  H+  H42  1  0.14695909  0.29758924  0.99124971  1
  H+  H43  1  0.48561411  0.94187309  0.22960619  1
  H+  H44  1  0.45622871  0.55509238  0.14105571  1
  H+  H45  1  0.17876433  -0.02064505  0.93926614  1
  H+  H46  1  0.51599199  0.36035983  0.99216717  1
  H+  H47  1  0.18492594  0.48479517  -0.01520734  1
  H+  H48  1  0.65587398  0.55474089  0.48306938  1
  H+  H49  1  0.87572268  0.71573534  0.99449336  1
  H+  H50  1  0.93271285  0.81363725  0.76689934  1
  H+  H51  1  0.63870093  0.16312807  0.75494069  1
  H+  H52  1  0.20013111  0.70565152  0.49478974  1
  H+  H53  1  0.35903122  0.17143816  -0.00885667  1
  H+  H54  1  0.87174757  0.05363787  0.74796249  1
  H+  H55  1  0.16154875  0.20082979  0.74312522  1
  H+  H56  1  0.35181236  0.17742212  0.23945918  1
  H+  H57  1  0.38100153  0.86671671  0.50478096  1
  H+  H58  1  0.63471150  0.48152675  0.99394476  1
  H+  H59  1  0.42882113  0.15413331  0.54302504  1
  H+  H60  1  0.54086738  0.02654835  0.48454177  1
  H+  H61  1  0.85062861  0.49107139  0.25293217  1
  H+  H62  1  0.65602735  0.17069731  1.05039576  1
  H+  H63  1  0.83395070  0.34097664  1.02730999  1
  H+  H64  1  0.03708371  0.52499742  0.01631271  1
  H+  H65  1  0.77854301  0.91360907  0.46700338  1
  H+  H66  1  0.50739903  0.80893785  0.49161076  1
  H+  H67  1  0.51429894  0.69437321  0.95166278  1
  H+  H68  1  0.46950180  0.49643158  0.74260322  1
  H+  H69  1  0.73311906  0.19288970  0.49558986  1
  H+  H70  1  0.18515344  0.52002056  0.73746576  1
  H+  H71  1  0.30422576  0.47469464  0.75730919  1
  H+  H72  1  0.51927505  0.36784756  0.24539343  1
  H+  H73  1  0.17980684  1.05994596  0.76730495  1
  H+  H74  1  0.55506055  0.09408849  0.34156860  1
  H+  H75  1  0.55008469  0.77027193  0.85911831  1
  H+  H76  1  0.26603420  0.12553610  0.50031402  1
  H+  H77  1  0.44564976  0.27525680  0.50992898  1
  H+  H78  1  0.18829625  0.68936822  0.26269840  1
  H+  H79  1  0.68828783  0.83664688  0.96099771  1
  H+  H80  1  0.84589079  0.31888590  0.49761301  1
  H+  H81  1  0.90381428  0.12649569  0.83956903  1
  H+  H82  1  0.48344218  0.51555283  1.00231407  1
  H+  H83  1  0.15520357  0.64335535  0.01517184  1
  H+  H84  1  0.43802419  0.22747475  0.67402498  1
  H+  H85  1  0.18274926  0.36475252  0.49798460  1
  H+  H86  1  0.52568636  0.16929604  1.01634428  1
  H+  H87  1  0.89055606  0.77223433  0.35497617  1
  H+  H88  1  0.49202177  0.62531278  0.23468433  1
  H+  H89  1  0.19185862  0.82082091  0.96205117  1
  H+  H90  1  0.20493112  0.14280306  -0.01435437  1
  H+  H91  1  0.36573413  0.51558696  1.00170156  1
  H+  H92  1  0.81234145  0.84411037  0.23981725  1
  H+  H93  1  0.13806262  0.08333158  0.28503374  1
  H+  H94  1  0.02608646  0.19171910  0.23065490  1
  H+  H95  1  0.66005243  0.59238664  0.52210253  1
  H+  H96  1  1.02811198  0.51466913  0.24016411  1
  H+  H97  1  0.17775102  0.36193808  0.75778338  1
  H+  H98  1  0.89044406  0.07374847  0.48746778  1
  H+  H99  1  0.52492749  0.04196168  1.01946347  1
  H+  H100  1  0.85897657  0.52806227  0.52973156  1
  H+  H101  1  0.69518100  0.18851299  0.20405959  1
  H+  H102  1  0.84937925  0.15441594  0.23473730  1
  H+  H103  1  0.35869259  0.18455272  0.76110986  1
  H+  H104  1  0.64836270  0.84517743  0.73539290  1
  H+  H105  1  0.80921271  0.95925552  0.23121499  1
  H+  H106  1  0.47003526  0.18108359  0.23405251  1
  H+  H107  1  0.51883158  0.15294695  0.77052305  1
  H+  H108  1  0.21207490  0.07272383  0.36191464  1
  H+  H109  1  0.78915795  0.35637197  0.93519567  1
  H+  H110  1  0.89015946  0.12569570  0.32934943  1
  H+  H111  1  0.78948873  0.90288486  0.64123460  1
  H+  H112  1  0.43136501  0.53404578  0.65147822  1
  H+  H113  1  0.54147134  0.76258870  0.40165449  1
  H+  H114  1  0.37494636  0.87446181  1.00645879  1
  H+  H115  1  0.67003321  0.81279851  0.50715402  1
  H+  H116  1  0.38325350  0.34486341  0.41148121  1
  H+  H117  1  0.13262387  0.56679920  0.60045919  1
  H+  H118  1  0.54477101  0.44123747  0.85822476  1
  H+  H119  1  0.22236485  0.44626222  0.89362706  1
  H+  H120  1  0.10404258  0.88609585  0.68861739  1
  H+  H121  1  0.47378158  0.62346921  0.50536424  1
  H+  H122  1  0.93068839  0.45507029  0.86241320  1
  H+  H123  1  0.36589676  0.82747303  0.23316013  1
  H+  H124  1  0.12399358  0.24557207  0.60490433  1
  H+  H125  1  0.45377823  0.89026963  0.09096208  1
  H+  H126  1  0.85027646  0.37379797  0.24136486  1
  H+  H127  1  0.80581492  0.55649397  0.61794653  1
  H+  H128  1  0.70137795  0.51658674  0.23960762  1
  H+  H129  1  0.46184775  0.91163693  0.59441114  1
  H+  H130  1  0.90913232  0.45666549  0.39612131  1
  H+  H131  1  0.20996850  0.44306748  0.38001229  1
  H+  H132  1  0.03135017  0.83426791  0.52745264  1
  H+  H133  1  0.09941073  0.23034800  0.08164399  1
  H+  H134  1  0.10538620  0.87163223  0.15036837  1
  H+  H135  1  0.05513042  0.86245626  -0.05405724  1
  H+  H136  1  0.87044390  0.82732801  0.97715726  1
  H+  H137  1  0.15437150  0.21333350  0.21282161  1
  H+  H138  1  0.25089312  0.76543683  0.90928393  1
  H+  H139  1  0.78707099  0.24821569  0.64385949  1
  H+  H140  1  0.52280238  0.48832611  0.24551285  1
  H+  H141  1  0.78087597  0.55923685  0.09736456  1
  H+  H142  1  0.11556988  0.55277555  0.15588284  1
  H+  H143  1  0.23947279  0.13161843  0.86137990  1
  O2-  O144  1  0.10703375  0.24866502  0.21119494  1
  O2-  O145  1  0.11911104  0.23610621  0.71474788  1
  O2-  O146  1  0.11159501  0.55152504  0.22417675  1
  O2-  O147  1  0.15178803  0.56975486  0.71414576  1
  O2-  O148  1  0.11032750  0.86850141  0.21653303  1
  O2-  O149  1  0.08074798  0.90961006  0.74423620  1
  O2-  O150  1  0.43005564  0.22171432  0.21476874  1
  O2-  O151  1  0.44232805  0.22276256  0.74083538  1
  O2-  O152  1  0.45952826  0.54754088  0.20861782  1
  O2-  O153  1  0.42302161  0.52864394  0.71803217  1
  O2-  O154  1  0.44577960  0.86153941  0.20932851  1
  O2-  O155  1  0.46198433  0.92077335  0.69760057  1
  O2-  O156  1  0.77570234  0.23125167  0.18622458  1
  O2-  O157  1  0.76332242  0.26479740  0.70268686  1
  O2-  O158  1  0.78226664  0.55766448  0.21743298  1
  O2-  O159  1  0.74786170  0.53880226  0.73473522  1
  O2-  O160  1  0.76670934  0.87728897  0.21569812  1
  O2-  O161  1  0.79424959  0.91589252  0.70719618  1
  O2-  O162  1  0.20718842  0.07839548  0.29094244  1
  O2-  O163  1  0.23216209  0.13864333  0.78886513  1
  O2-  O164  1  0.20312069  0.44358645  0.30179632  1
  O2-  O165  1  0.22247254  0.44325483  0.78171196  1
  O2-  O166  1  0.23275590  0.77142924  0.28192447  1
  O2-  O167  1  0.26205747  0.77231171  0.78969712  1
  O2-  O168  1  0.51077164  0.07730127  0.28308932  1
  O2-  O169  1  0.56153966  0.11199597  0.78069296  1
  O2-  O170  1  0.56024249  0.44474074  0.27370756  1
  O2-  O171  1  0.54022830  0.43668304  0.78982497  1
  O2-  O172  1  0.55422196  0.76258466  0.28876720  1
  O2-  O173  1  0.56479201  0.79803782  0.74495018  1
  O2-  O174  1  0.89067787  0.11823152  0.26188506  1
  O2-  O175  1  0.91466130  0.13335583  0.77116027  1
  O2-  O176  1  0.89140999  0.44903564  0.27213293  1
  O2-  O177  1  0.94324730  0.46388148  0.79596953  1
  O2-  O178  1  0.88592837  0.77352301  0.28665611  1
  O2-  O179  1  0.85036487  0.77385923  0.78168224  1
  O2-  O180  1  0.20328538  0.06778306  0.46294033  1
  O2-  O181  1  0.25089839  0.11444369  0.95593184  1
  O2-  O182  1  0.22204996  0.44729465  0.46580895  1
  O2-  O183  1  0.22275385  0.44333545  0.96239419  1
  O2-  O184  1  0.23707401  0.78668711  0.47256890  1
  O2-  O185  1  0.23209462  0.77577470  0.97298167  1
  O2-  O186  1  0.59226473  0.10498616  0.45342509  1
  O2-  O187  1  0.57593832  0.13146750  1.01343519  1
  O2-  O188  1  0.46134000  0.37908552  0.43395671  1
  O2-  O189  1  0.55447274  0.44210904  0.97136401  1
  O2-  O190  1  0.53828152  0.75945147  0.47040527  1
  O2-  O191  1  0.55987553  0.77204867  0.92685735  1
  O2-  O192  1  0.91608459  0.14187849  0.45038148  1
  O2-  O193  1  0.88363030  0.11096902  0.94938363  1
  O2-  O194  1  0.91163408  0.45140702  0.46342232  1
  O2-  O195  1  0.85288589  0.40107207  0.97656718  1
  O2-  O196  1  0.89772652  0.77304328  0.47146696  1
  O2-  O197  1  0.92373504  0.79940120  0.99260053  1
  O2-  O198  1  0.10742018  0.21859236  0.01676520  1
  O2-  O199  1  0.13128420  0.25454943  0.53597996  1
  O2-  O200  1  0.11550065  0.56211844  0.03872760  1
  O2-  O201  1  0.12767308  0.56771557  0.53204874  1
  O2-  O202  1  0.13418144  0.89486905  -0.08008985  1
  O2-  O203  1  0.10928903  0.87207241  0.55504304  1
  O2-  O204  1  0.44638484  0.21948803  0.02178360  1
  O2-  O205  1  0.40787553  0.21180372  0.55526609  1
  O2-  O206  1  0.44631067  0.55915283  0.02319659  1
  O2-  O207  1  0.42881227  0.54151285  0.52510038  1
  O2-  O208  1  0.45460585  0.91955281  0.02903538  1
  O2-  O209  1  0.46287263  0.90550862  0.52413963  1
  O2-  O210  1  0.76856995  0.22584543  0.08488600  1
  O2-  O211  1  0.81117425  0.23790094  0.52095734  1
  O2-  O212  1  0.77880607  0.55521921  0.02945753  1
  O2-  O213  1  0.85044499  0.58753190  0.56173099  1
  O2-  O214  1  0.76846165  0.87888634  -0.01081154  1
  O2-  O215  1  0.75565949  0.85892144  0.51665074  1
