# generated using pymatgen
data_H2O
_symmetry_space_group_name_H-M   'P 1'
_cell_length_a   13.50783028
_cell_length_b   13.51408379
_cell_length_c   14.69341540
_cell_angle_alpha   90.09142990
_cell_angle_beta   89.98609787
_cell_angle_gamma   120.05919847
_symmetry_Int_Tables_number   1
_chemical_formula_structural   H2O
_chemical_formula_sum   'H144 O72'
_cell_volume   2321.48334502
_cell_formula_units_Z   72
loop_
 _symmetry_equiv_pos_site_id
 _symmetry_equiv_pos_as_xyz
  1  'x, y, z'
loop_
 _atom_type_symbol
 _atom_type_oxidation_number
  H+  1.0
  O2-  -2.0
loop_
 _atom_site_type_symbol
 _atom_site_label
 _atom_site_symmetry_multiplicity
 _atom_site_fract_x
 _atom_site_fract_y
 _atom_site_fract_z
 _atom_site_occupancy
  H+  H0  1  0.18077644  0.81285249  0.25916526  1
  H+  H1  1  0.63660373  0.81539988  0.24872403  1
  H+  H2  1  0.89867522  0.12052379  0.83554442  1
  H+  H3  1  0.63786296  0.47960238  0.48990248  1
  H+  H4  1  0.81812278  0.63022543  0.50681159  1
  H+  H5  1  0.48341276  0.30543131  0.51240968  1
  H+  H6  1  0.17598324  0.81960660  0.74970969  1
  H+  H7  1  0.75264506  0.88921014  -0.00328831  1
  H+  H8  1  0.85368022  0.36964970  0.75369681  1
  H+  H9  1  0.48081549  0.85564843  0.73768686  1
  H+  H10  1  0.84995155  0.46575549  0.99153259  1
  H+  H11  1  0.22506057  0.11242252  0.40092085  1
  H+  H12  1  0.57995287  0.81673024  1.00661571  1
  H+  H13  1  0.81307386  0.28897960  0.00577348  1
  H+  H14  1  0.88576068  0.43846259  0.39414329  1
  H+  H15  1  0.78139348  0.71355752  0.94980025  1
  H+  H16  1  0.03540368  0.52014828  0.73734893  1
  H+  H17  1  0.70699134  0.19080362  0.73795071  1
  H+  H18  1  0.85561682  0.15722780  0.48623639  1
  H+  H19  1  0.84914007  0.81514052  0.26312813  1
  H+  H20  1  0.18807907  0.48560743  0.75280698  1
  H+  H21  1  0.50113732  1.00941941  -0.01641571  1
  H+  H22  1  0.13650655  0.84633144  0.50285010  1
  H+  H23  1  0.48415583  0.29493986  0.24281974  1
  H+  H24  1  0.48026725  0.14483813  1.01036206  1
  H+  H25  1  0.39513378  0.53902353  0.50691961  1
  H+  H26  1  0.14893251  0.62876681  0.24045101  1
  H+  H27  1  0.86273891  0.16198418  0.98327065  1
  H+  H28  1  0.97902741  0.16889451  0.48330459  1
  H+  H29  1  0.18553797  0.36517083  0.75320798  1
  H+  H30  1  0.48719490  0.52255512  0.74369550  1
  H+  H31  1  0.82436228  0.63888796  0.73683682  1
  H+  H32  1  0.48065847  0.84255490  0.23103530  1
  H+  H33  1  0.83008276  0.96831052  0.72976058  1
  H+  H34  1  0.50713709  0.03577624  0.48828938  1
  H+  H35  1  0.35507221  0.85249020  0.50882626  1
  H+  H36  1  0.69663442  0.16706666  1.00615779  1
  H+  H37  1  0.16873394  1.00971446  -0.00179323  1
  H+  H38  1  0.15215712  0.16959931  0.02151241  1
  H+  H39  1  0.14704469  0.51350802  0.00307215  1
  H+  H40  1  0.97247350  0.81782248  0.75340183  1
  H+  H41  1  0.46111431  0.80864184  0.99607082  1
  H+  H42  1  0.51803965  0.69562505  0.25589747  1
  H+  H43  1  0.67022916  0.82919088  0.50805457  1
  H+  H44  1  0.36792635  0.86488311  0.73597475  1
  H+  H45  1  0.81899584  0.51169537  0.24556463  1
  H+  H46  1  1.01846015  0.84903305  0.50552780  1
  H+  H47  1  0.82198598  0.96955307  0.24867682  1
  H+  H48  1  0.32571596  0.83755920  0.01102051  1
  H+  H49  1  0.85502666  0.15526690  0.74733395  1
  H+  H50  1  0.51274024  0.15647325  0.48829948  1
  H+  H51  1  0.51360426  0.14191613  0.25880431  1
  H+  H52  1  0.84788846  0.14372297  0.26132368  1
  H+  H53  1  0.14771649  0.96460631  0.24254746  1
  H+  H54  1  0.16039559  0.68374233  0.98591538  1
  H+  H55  1  0.82423950  0.51945066  0.74049487  1
  H+  H56  1  0.88379037  0.77224316  0.87914774  1
  H+  H57  1  0.17927993  0.14625843  0.26263116  1
  H+  H58  1  0.23694996  0.45661390  0.39682375  1
  H+  H59  1  0.96772770  0.47805007  0.25374405  1
  H+  H60  1  0.85433101  0.82318894  0.75316464  1
  H+  H61  1  0.69607661  0.17604599  0.23981963  1
  H+  H62  1  0.52970991  0.16162813  0.75934874  1
  H+  H63  1  0.45734511  0.63810173  0.01912038  1
  H+  H64  1  0.81610672  0.78612086  0.49766715  1
  H+  H65  1  0.28916911  0.48246000  0.98911913  1
  H+  H66  1  0.05071496  0.19582442  0.01560616  1
  H+  H67  1  0.48461280  0.50897983  0.24455603  1
  H+  H68  1  0.84782309  0.69515563  0.26455906  1
  H+  H69  1  0.29904547  0.81234753  0.25933932  1
  H+  H70  1  0.03053803  0.17697381  0.25113404  1
  H+  H71  1  0.88616624  1.05849738  -0.01698829  1
  H+  H72  1  0.16869186  0.31901948  0.50153780  1
  H+  H73  1  0.53304968  0.42310890  0.98500490  1
  H+  H74  1  0.38463869  0.18455310  0.74878977  1
  H+  H75  1  0.15029855  0.51082536  0.23869180  1
  H+  H76  1  0.17241394  0.69495887  0.48958710  1
  H+  H77  1  0.63731864  0.71379798  0.55552746  1
  H+  H78  1  0.84245769  0.62570963  0.01309928  1
  H+  H79  1  0.02872440  0.84500369  0.24803850  1
  H+  H80  1  0.15340105  0.79900693  0.99083963  1
  H+  H81  1  0.52788079  0.37546001  0.76287934  1
  H+  H82  1  0.21102636  0.77913047  0.84171398  1
  H+  H83  1  0.84846256  0.47995931  0.48394125  1
  H+  H84  1  0.16045982  0.19644299  0.50305193  1
  H+  H85  1  0.79754906  0.89889265  0.15640214  1
  H+  H86  1  0.18108439  0.36036703  0.26060551  1
  H+  H87  1  0.55309180  1.10408847  0.34749171  1
  H+  H88  1  0.85620332  0.87068312  1.00302439  1
  H+  H89  1  0.52316415  0.03912734  0.75464084  1
  H+  H90  1  0.81180923  0.29997576  0.50402831  1
  H+  H91  1  0.71666715  0.52352517  1.00780353  1
  H+  H92  1  0.15240542  -0.03923064  0.73198361  1
  H+  H93  1  0.63434803  0.47654675  0.26250606  1
  H+  H94  1  0.02950667  0.50948942  0.50160711  1
  H+  H95  1  0.00928932  0.83350930  0.02021861  1
  H+  H96  1  0.17982340  1.03552219  0.48972396  1
  H+  H97  1  0.30083388  0.47887045  0.25624956  1
  H+  H98  1  0.54010767  0.87445931  0.47380586  1
  H+  H99  1  0.49182208  0.54410967  1.00583391  1
  H+  H100  1  0.04099765  0.19453500  0.73115371  1
  H+  H101  1  0.29797068  0.14460776  0.25981682  1
  H+  H102  1  0.69280937  0.18176516  0.50651939  1
  H+  H103  1  0.19790099  0.49626459  0.48508204  1
  H+  H104  1  0.29336426  0.12037346  1.00172566  1
  H+  H105  1  0.84749624  0.35914409  0.25281773  1
  H+  H106  1  0.64797613  0.49427754  0.75598925  1
  H+  H107  1  0.47249231  0.25581545  0.00210036  1
  H+  H108  1  0.55258806  0.09711304  0.89729023  1
  H+  H109  1  0.10859167  0.55185474  0.59081905  1
  H+  H110  1  0.29804888  0.01350582  0.81289050  1
  H+  H111  1  0.22015842  0.45291817  0.89563716  1
  H+  H112  1  0.41299178  0.87934837  0.09996344  1
  H+  H113  1  0.45644622  0.55825598  0.60244886  1
  H+  H114  1  0.11111486  0.21336786  0.16226404  1
  H+  H115  1  0.09185112  0.87387026  0.10844755  1
  H+  H116  1  0.10243800  0.88935631  0.63791769  1
  H+  H117  1  0.58065976  0.47779434  0.88744556  1
  H+  H118  1  0.78015877  0.22954601  0.64576347  1
  H+  H119  1  0.55428600  0.43729561  0.35087134  1
  H+  H120  1  0.96830030  0.46767412  0.98979941  1
  H+  H121  1  0.45202013  0.23291712  0.65452740  1
  H+  H122  1  0.52302771  0.48667735  0.49284494  1
  H+  H123  1  0.78201260  0.55142523  0.59549922  1
  H+  H124  1  0.44466858  0.55027408  0.15629004  1
  H+  H125  1  0.12214893  0.23970827  0.64521895  1
  H+  H126  1  0.89009742  0.11086815  0.35364698  1
  H+  H127  1  0.87546727  0.77282225  0.40596925  1
  H+  H128  1  0.10534972  0.54889081  0.09519926  1
  H+  H129  1  0.44413830  0.21035906  0.15596510  1
  H+  H130  1  0.77435591  0.21242091  0.15028505  1
  H+  H131  1  0.48118233  0.96133060  0.23755811  1
  H+  H132  1  0.89367378  0.44296679  0.84538731  1
  H+  H133  1  0.36302920  0.51242955  0.74026440  1
  H+  H134  1  0.49642000  0.69887691  0.75919775  1
  H+  H135  1  0.51822081  0.77187386  0.84928637  1
  H+  H136  1  0.21466225  0.77485454  0.40173718  1
  H+  H137  1  0.76377721  0.86353330  0.65818576  1
  H+  H138  1  0.36403667  0.18688293  0.51407733  1
  H+  H139  1  0.24401064  0.07691092  0.86440547  1
  H+  H140  1  0.43969099  0.89735597  0.59551518  1
  H+  H141  1  0.57847319  0.83155376  0.38673216  1
  H+  H142  1  0.78084270  0.55196849  0.15790118  1
  H+  H143  1  0.15408899  0.63788944  0.73190613  1
  O2-  O144  1  0.11252146  0.21741834  0.23121346  1
  O2-  O145  1  0.12271153  0.23933546  0.71292582  1
  O2-  O146  1  0.10788180  0.54918893  0.21572019  1
  O2-  O147  1  0.11357192  0.55765071  0.70982097  1
  O2-  O148  1  0.10706171  0.88320549  0.22015574  1
  O2-  O149  1  0.10235371  0.88327827  0.70656025  1
  O2-  O150  1  0.44232827  0.21265445  0.22330591  1
  O2-  O151  1  0.46138255  0.23721928  0.72270647  1
  O2-  O152  1  0.44534013  0.55122230  0.22422323  1
  O2-  O153  1  0.44478712  0.55848253  0.71843285  1
  O2-  O154  1  0.43710579  0.88165386  0.21248620  1
  O2-  O155  1  0.44826839  0.90448880  0.71373772  1
  O2-  O156  1  0.77713078  0.21771518  0.21809738  1
  O2-  O157  1  0.78665566  0.23335723  0.71415167  1
  O2-  O158  1  0.77788244  0.55284328  0.22540077  1
  O2-  O159  1  0.78194914  0.55729159  0.71598248  1
  O2-  O160  1  0.78457208  0.88902381  0.22260895  1
  O2-  O161  1  0.79537045  0.88450973  0.72053518  1
  O2-  O162  1  0.21773356  0.10219928  0.28268791  1
  O2-  O163  1  0.26763798  0.06445464  0.80185419  1
  O2-  O164  1  0.22062872  0.44299583  0.27924621  1
  O2-  O165  1  0.22883251  0.44745531  0.77741561  1
  O2-  O166  1  0.21870738  0.77086045  0.28262136  1
  O2-  O167  1  0.22334177  0.78788297  0.77465094  1
  O2-  O168  1  0.55390180  0.10077018  0.27917911  1
  O2-  O169  1  0.56522189  0.11747123  0.78346775  1
  O2-  O170  1  0.55266070  0.43454897  0.28241410  1
  O2-  O171  1  0.56915833  0.45710773  0.78406108  1
  O2-  O172  1  0.55516852  0.77946798  0.26829854  1
  O2-  O173  1  0.52587298  0.77788553  0.78271704  1
  O2-  O174  1  0.88759968  0.10333511  0.28390675  1
  O2-  O175  1  0.89454302  0.11367579  0.76794602  1
  O2-  O176  1  0.88665366  0.43985957  0.27596464  1
  O2-  O177  1  0.89351802  0.45035098  0.77779809  1
  O2-  O178  1  0.88957631  0.77563327  0.28755873  1
  O2-  O179  1  0.89241447  0.77772955  0.77823262  1
  O2-  O180  1  0.22605036  0.11638811  0.46897261  1
  O2-  O181  1  0.21687150  0.08818199  0.97257104  1
  O2-  O182  1  0.24413846  0.46155891  0.46468550  1
  O2-  O183  1  0.21294689  0.45630462  0.96293379  1
  O2-  O184  1  0.21085849  0.77703187  0.46961692  1
  O2-  O185  1  0.19753441  0.76533581  0.96346674  1
  O2-  O186  1  0.55161063  0.11568916  0.46378786  1
  O2-  O187  1  0.54974748  0.09150267  0.96579589  1
  O2-  O188  1  0.55703088  0.44053340  0.46751806  1
  O2-  O189  1  0.58908766  0.49451942  0.95682793  1
  O2-  O190  1  0.60595575  0.87372449  0.44469188  1
  O2-  O191  1  0.50672937  0.77001111  0.97669824  1
  O2-  O192  1  0.89959877  0.12377711  0.45958323  1
  O2-  O193  1  0.91238402  0.13438824  0.95576183  1
  O2-  O194  1  0.88824434  0.43867223  0.46222523  1
  O2-  O195  1  0.88742400  0.42499374  0.96532740  1
  O2-  O196  1  0.87577211  0.76895070  0.47384067  1
  O2-  O197  1  0.86482145  0.76072579  0.94944387  1
  O2-  O198  1  0.11755601  0.20958197  0.05260071  1
  O2-  O199  1  0.12206408  0.23885479  0.52419198  1
  O2-  O200  1  0.10149590  0.55015906  0.02734971  1
  O2-  O201  1  0.11069228  0.55435618  0.52283864  1
  O2-  O202  1  0.08954702  0.87157730  0.03935251  1
  O2-  O203  1  0.10040735  0.89086626  0.52554078  1
  O2-  O204  1  0.43776063  0.18408039  0.03529645  1
  O2-  O205  1  0.44412222  0.22606605  0.53838351  1
  O2-  O206  1  0.43745228  0.55939020  0.03894566  1
  O2-  O207  1  0.47102515  0.56510151  0.53533424  1
  O2-  O208  1  0.40825798  0.87935661  0.03143000  1
  O2-  O209  1  0.43679398  0.89924098  0.52762108  1
  O2-  O210  1  0.77586005  0.20893913  0.03047892  1
  O2-  O211  1  0.77255629  0.22155464  0.53093738  1
  O2-  O212  1  0.79245907  0.54793147  0.03672427  1
  O2-  O213  1  0.77937573  0.54840696  0.52762745  1
  O2-  O214  1  0.82383441  0.91630441  0.03019850  1
  O2-  O215  1  0.70356386  0.79077521  0.54783810  1
