# generated using pymatgen
data_H2O
_symmetry_space_group_name_H-M   'P 1'
_cell_length_a   13.54388964
_cell_length_b   13.55978759
_cell_length_c   14.72037122
_cell_angle_alpha   89.91071599
_cell_angle_beta   90.04052526
_cell_angle_gamma   120.02850179
_symmetry_Int_Tables_number   1
_chemical_formula_structural   H2O
_chemical_formula_sum   'H144 O72'
_cell_volume   2340.56310835
_cell_formula_units_Z   72
loop_
 _symmetry_equiv_pos_site_id
 _symmetry_equiv_pos_as_xyz
  1  'x, y, z'
loop_
 _atom_type_symbol
 _atom_type_oxidation_number
  H+  1.0
  O2-  -2.0
loop_
 _atom_site_type_symbol
 _atom_site_label
 _atom_site_symmetry_multiplicity
 _atom_site_fract_x
 _atom_site_fract_y
 _atom_site_fract_z
 _atom_site_occupancy
  H+  H0  1  0.13565481  0.62971725  0.52520832  1
  H+  H1  1  0.58715729  0.44111217  1.02089688  1
  H+  H2  1  0.15388002  0.81325429  0.04403728  1
  H+  H3  1  0.18800340  0.66097081  0.05906766  1
  H+  H4  1  0.89644687  0.73752961  -0.04863764  1
  H+  H5  1  0.82280796  0.01883417  0.48415358  1
  H+  H6  1  0.22977138  0.39386070  0.27677731  1
  H+  H7  1  0.16545950  0.64813937  0.73288606  1
  H+  H8  1  0.17052493  0.16058246  0.95412871  1
  H+  H9  1  0.44526932  0.20078126  0.58932603  1
  H+  H10  1  0.50726387  0.12882520  0.48242433  1
  H+  H11  1  0.84022363  0.82497002  0.74066666  1
  H+  H12  1  0.64514495  0.15054241  0.26223371  1
  H+  H13  1  0.52039173  0.84175340  0.75175985  1
  H+  H14  1  0.64673797  0.80758655  0.21718729  1
  H+  H15  1  0.58309679  0.86727279  0.31960472  1
  H+  H16  1  0.45268421  0.22427037  0.34511961  1
  H+  H17  1  0.84584952  0.47975968  0.28290007  1
  H+  H18  1  0.14875013  0.03611728  0.96106210  1
  H+  H19  1  0.16083972  0.49249344  0.05365151  1
  H+  H20  1  0.04122936  0.47780081  0.08341556  1
  H+  H21  1  0.82030377  0.18386025  0.24734016  1
  H+  H22  1  0.01995125  0.84811324  0.71773069  1
  H+  H23  1  0.01627117  0.18145292  -0.03214692  1
  H+  H24  1  0.18537288  0.37187250  0.98023901  1
  H+  H25  1  0.35951479  0.14713183  0.72982170  1
  H+  H26  1  0.15659499  0.80403928  0.28090391  1
  H+  H27  1  0.84376915  0.69893588  0.30095620  1
  H+  H28  1  0.83799614  0.47574257  0.50507783  1
  H+  H29  1  0.75923901  0.83051155  0.49636657  1
  H+  H30  1  0.45567829  0.97355621  0.66111148  1
  H+  H31  1  0.56263679  0.09979637  0.35042195  1
  H+  H32  1  0.80411716  0.29191622  0.72449939  1
  H+  H33  1  0.51608006  0.12534333  0.77695435  1
  H+  H34  1  0.80346051  0.28987034  0.50708220  1
  H+  H35  1  0.49564571  0.17670953  0.26868169  1
  H+  H36  1  0.30536188  0.15086953  0.48945607  1
  H+  H37  1  0.48023862  0.89189527  0.11603865  1
  H+  H38  1  0.20513800  0.82515683  0.50065570  1
  H+  H39  1  0.36176576  0.86505476  0.71415706  1
  H+  H40  1  0.33843004  0.15777768  -0.00840440  1
  H+  H41  1  0.30605830  0.48893076  0.99790101  1
  H+  H42  1  0.80972817  -0.03315894  0.71866245  1
  H+  H43  1  0.18587686  0.52206071  0.75867074  1
  H+  H44  1  0.52864479  0.81515063  0.99620071  1
  H+  H45  1  0.14131629  0.96307105  0.25992164  1
  H+  H46  1  0.26793399  0.50023797  0.33894796  1
  H+  H47  1  0.82135585  0.28963210  0.00951727  1
  H+  H48  1  0.10248788  0.19686793  0.61324935  1
  H+  H49  1  0.82239442  0.47398613  0.74556716  1
  H+  H50  1  0.31198672  0.80354578  0.49054441  1
  H+  H51  1  0.48018805  0.13018087  1.00128142  1
  H+  H52  1  0.72487956  0.76029689  0.25263319  1
  H+  H53  1  0.01256239  0.84628006  -0.02428990  1
  H+  H54  1  0.81675608  0.64986501  0.73738131  1
  H+  H55  1  0.48266635  0.29433593  0.50923317  1
  H+  H56  1  0.69916431  0.16815337  0.73972811  1
  H+  H57  1  0.52952038  0.01804351  0.78661463  1
  H+  H58  1  0.49079842  0.94364883  0.49022995  1
  H+  H59  1  0.95566131  0.47286520  0.50831906  1
  H+  H60  1  0.86121446  0.48890165  0.96620105  1
  H+  H61  1  0.03329629  0.18392526  0.27862634  1
  H+  H62  1  0.54032987  0.62729936  0.21561957  1
  H+  H63  1  0.79278649  0.62137914  0.51606605  1
  H+  H64  1  0.90503262  0.81177504  0.82794748  1
  H+  H65  1  0.31169940  0.62879603  0.43393054  1
  H+  H66  1  0.51191319  0.97379955  0.24717030  1
  H+  H67  1  0.85400228  0.14792684  0.74153064  1
  H+  H68  1  0.84227029  0.14449792  0.49119165  1
  H+  H69  1  0.90749194  0.81739152  0.53109848  1
  H+  H70  1  0.20297289  0.94311956  0.05428559  1
  H+  H71  1  0.06940821  0.85897628  0.47119072  1
  H+  H72  1  0.84080188  0.86746645  0.99525560  1
  H+  H73  1  0.48133258  0.66618038  0.74446802  1
  H+  H74  1  0.17517781  0.82698675  0.73063663  1
  H+  H75  1  0.33073016  0.53879380  0.48635307  1
  H+  H76  1  0.71811250  0.85486693  1.00252365  1
  H+  H77  1  0.46791004  0.49977709  0.52285692  1
  H+  H78  1  0.49069652  0.47428295  1.00367801  1
  H+  H79  1  0.74061793  0.55883273  -0.08078178  1
  H+  H80  1  0.85077383  0.03697760  0.26692002  1
  H+  H81  1  0.56195092  0.82406726  0.47463297  1
  H+  H82  1  0.81726334  0.29959302  0.24835030  1
  H+  H83  1  0.14875053  0.16640231  0.50201661  1
  H+  H84  1  0.53021922  0.36532293  0.27526103  1
  H+  H85  1  0.02250792  0.15667211  0.50442838  1
  H+  H86  1  0.45457328  0.27183278  0.00795904  1
  H+  H87  1  0.40267933  0.53097266  0.23782080  1
  H+  H88  1  -0.04849243  0.82225504  0.28949780  1
  H+  H89  1  0.31562600  0.51772178  0.77046611  1
  H+  H90  1  0.17720254  1.02152019  0.73696258  1
  H+  H91  1  0.48699492  0.55328348  0.76053389  1
  H+  H92  1  0.16916795  0.98256289  0.49735711  1
  H+  H93  1  0.62014161  0.47145332  0.50162799  1
  H+  H94  1  0.14505035  0.65675922  0.28381936  1
  H+  H95  1  0.48586807  0.25216586  0.73144743  1
  H+  H96  1  0.85231075  0.14931826  -0.02046792  1
  H+  H97  1  0.49968821  0.01088759  1.01262065  1
  H+  H98  1  0.48827682  0.63299891  0.00905132  1
  H+  H99  1  0.96595447  0.47409914  0.93798097  1
  H+  H100  1  0.69557328  0.51478839  0.27547532  1
  H+  H101  1  0.69305946  0.54036824  0.74541715  1
  H+  H102  1  0.37899567  0.83578985  0.04341342  1
  H+  H103  1  0.62836217  0.13455446  0.48657083  1
  H+  H104  1  0.30392568  0.14654248  0.26946811  1
  H+  H105  1  0.50949296  0.41462551  0.76943716  1
  H+  H106  1  0.85588134  1.03165303  -0.02578921  1
  H+  H107  1  0.76190379  0.54664596  0.60453496  1
  H+  H108  1  0.54436296  0.44005090  0.41219611  1
  H+  H109  1  0.46057225  0.85874050  0.57315924  1
  H+  H110  1  0.54695074  0.09550662  0.91913978  1
  H+  H111  1  0.02305667  0.15763647  0.72039542  1
  H+  H112  1  0.22021320  0.10647067  0.82331539  1
  H+  H113  1  0.14885025  0.16278517  0.71817075  1
  H+  H114  1  0.86696235  0.78221560  0.42542267  1
  H+  H115  1  0.22063668  0.71392344  0.96264270  1
  H+  H116  1  0.87880075  0.43163955  0.36945232  1
  H+  H117  1  0.76339336  0.20509923  0.59156917  1
  H+  H118  1  0.09731301  0.21071808  0.05277960  1
  H+  H119  1  0.45218287  0.55269313  0.09999905  1
  H+  H120  1  0.88079946  0.10510725  0.36069045  1
  H+  H121  1  0.43584003  0.55281027  0.60802658  1
  H+  H122  1  0.76685133  0.58007015  0.02271863  1
  H+  H123  1  0.22800977  0.11235785  0.39722496  1
  H+  H124  1  0.23092688  0.80769322  0.81806495  1
  H+  H125  1  0.11482838  0.24978742  0.19914088  1
  H+  H126  1  0.09424480  0.87398660  0.17869732  1
  H+  H127  1  0.54443796  0.45838592  0.86988014  1
  H+  H128  1  0.74776234  0.88004709  0.63521066  1
  H+  H129  1  0.21340449  0.77194162  0.36608997  1
  H+  H130  1  0.84828332  0.41665310  0.82878783  1
  H+  H131  1  0.63384955  0.83391863  0.75236875  1
  H+  H132  1  0.78792933  0.21409508  0.09845926  1
  H+  H133  1  0.10332699  0.88415045  0.62983172  1
  H+  H134  1  1.01765819  0.51168676  0.28300218  1
  H+  H135  1  0.55822751  0.78100412  0.90154627  1
  H+  H136  1  0.15495202  0.52835540  0.51189069  1
  H+  H137  1  0.12076484  0.55247215  0.65335856  1
  H+  H138  1  0.78509871  0.57386245  0.19582033  1
  H+  H139  1  0.18599344  0.15178003  0.27080868  1
  H+  H140  1  0.22967790  0.47574171  0.86021984  1
  H+  H141  1  0.12622562  0.53866282  0.21644029  1
  H+  H142  1  0.89129612  0.10573911  0.82961909  1
  H+  H143  1  0.52591924  0.48130963  0.25953512  1
  O2-  O144  1  0.11660966  0.22700426  0.26157787  1
  O2-  O145  1  0.10303699  0.19687770  0.69363135  1
  O2-  O146  1  0.10459448  0.55809834  0.27539043  1
  O2-  O147  1  0.13289751  0.56534316  0.72154910  1
  O2-  O148  1  0.09424768  0.87968210  0.24568603  1
  O2-  O149  1  0.10214192  0.88521924  0.69773232  1
  O2-  O150  1  0.45204927  0.21892642  0.27885730  1
  O2-  O151  1  0.44145880  0.17308955  0.71175767  1
  O2-  O152  1  0.47511353  0.54721876  0.20509510  1
  O2-  O153  1  0.44035549  0.58197390  0.73121561  1
  O2-  O154  1  0.49447595  0.89462639  0.22863503  1
  O2-  O155  1  0.44429057  0.90656363  0.69515318  1
  O2-  O156  1  0.77846683  0.22108856  0.22285812  1
  O2-  O157  1  0.77270074  0.20900731  0.70730092  1
  O2-  O158  1  0.78143399  0.56012206  0.26106106  1
  O2-  O159  1  0.76993074  0.56769877  0.71987146  1
  O2-  O160  1  0.66343870  0.74467623  0.20961959  1
  O2-  O161  1  0.76271915  0.88435124  0.70136881  1
  O2-  O162  1  0.22154575  0.10465206  0.28732749  1
  O2-  O163  1  0.22492054  0.10368004  0.75547270  1
  O2-  O164  1  0.27169243  0.47730761  0.27514766  1
  O2-  O165  1  0.23236249  0.47788305  0.79184976  1
  O2-  O166  1  0.19693304  0.76170464  0.29878829  1
  O2-  O167  1  0.22645659  0.79662235  0.75240331  1
  O2-  O168  1  0.56291797  0.10658372  0.28235519  1
  O2-  O169  1  0.56225062  0.09688499  0.80889921  1
  O2-  O170  1  0.56547219  0.44633118  0.29514552  1
  O2-  O171  1  0.55843422  0.48308556  0.80430896  1
  O2-  O172  1  0.60221756  0.90123162  0.25815130  1
  O2-  O173  1  0.55528919  0.80023186  0.77915751  1
  O2-  O174  1  0.89076949  0.11392051  0.29206078  1
  O2-  O175  1  0.89226942  0.10432112  0.76133229  1
  O2-  O176  1  0.88534171  0.43719383  0.30107092  1
  O2-  O177  1  0.84971018  0.42084029  0.76217529  1
  O2-  O178  1  0.87441808  0.78047542  0.31759578  1
  O2-  O179  1  0.88820992  0.79234268  0.76239036  1
  O2-  O180  1  0.22464869  0.11007604  0.46620164  1
  O2-  O181  1  0.20519217  0.11139724  0.93848705  1
  O2-  O182  1  0.27169174  0.54769133  0.44854085  1
  O2-  O183  1  0.22526108  0.45688515  0.97516765  1
  O2-  O184  1  0.22837687  0.77052247  0.47848312  1
  O2-  O185  1  0.22454232  0.73620870  1.02620640  1
  O2-  O186  1  0.54757835  0.08769147  0.46360836  1
  O2-  O187  1  0.52987665  0.09214900  0.98666743  1
  O2-  O188  1  0.53926340  0.42915516  0.47956290  1
  O2-  O189  1  0.52288662  0.42347269  0.98099668  1
  O2-  O190  1  0.62335959  0.81714022  0.44329600  1
  O2-  O191  1  0.56111897  0.77098642  0.96813110  1
  O2-  O192  1  0.87934781  0.10009299  0.47025189  1
  O2-  O193  1  0.89188078  0.11198339  0.94753840  1
  O2-  O194  1  0.87672456  0.43378640  0.48307569  1
  O2-  O195  1  0.88643482  0.43252316  0.95718000  1
  O2-  O196  1  0.84294990  0.76862910  0.49229247  1
  O2-  O197  1  0.93992785  0.82102851  0.94292922  1
  O2-  O198  1  0.10288838  0.22564204  -0.01238085  1
  O2-  O199  1  0.10227006  0.19888704  0.52860274  1
  O2-  O200  1  0.12304244  0.52308934  0.09566916  1
  O2-  O201  1  0.10210544  0.54865601  0.54403365  1
  O2-  O202  1  0.13029960  0.87156305  0.05405074  1
  O2-  O203  1  0.12943278  0.89850599  0.51623620  1
  O2-  O204  1  0.41474246  0.18884514  0.02031151  1
  O2-  O205  1  0.44263549  0.20928593  0.52264633  1
  O2-  O206  1  0.44285786  0.55187017  0.03095145  1
  O2-  O207  1  0.42914553  0.54201346  0.54168774  1
  O2-  O208  1  0.46216302  0.88898462  0.04872187  1
  O2-  O209  1  0.45615122  0.86091100  0.50652370  1
  O2-  O210  1  0.79143022  0.21122375  0.03133229  1
  O2-  O211  1  0.76416654  0.20692868  0.52336905  1
  O2-  O212  1  0.80210383  0.58392989  -0.03606824  1
  O2-  O213  1  0.76055038  0.54118634  0.53668976  1
  O2-  O214  1  0.79963085  0.90550220  0.01705958  1
  O2-  O215  1  0.72016785  0.87559153  0.50868880  1
