# generated using pymatgen
data_H2O
_symmetry_space_group_name_H-M   'P 1'
_cell_length_a   13.52669522
_cell_length_b   13.50452864
_cell_length_c   14.70997480
_cell_angle_alpha   90.00338108
_cell_angle_beta   90.04636497
_cell_angle_gamma   119.98453673
_symmetry_Int_Tables_number   1
_chemical_formula_structural   H2O
_chemical_formula_sum   'H144 O72'
_cell_volume   2327.45418646
_cell_formula_units_Z   72
loop_
 _symmetry_equiv_pos_site_id
 _symmetry_equiv_pos_as_xyz
  1  'x, y, z'
loop_
 _atom_type_symbol
 _atom_type_oxidation_number
  H+  1.0
  O2-  -2.0
loop_
 _atom_site_type_symbol
 _atom_site_label
 _atom_site_symmetry_multiplicity
 _atom_site_fract_x
 _atom_site_fract_y
 _atom_site_fract_z
 _atom_site_occupancy
  H+  H0  1  0.52267742  0.82066982  1.01349642  1
  H+  H1  1  0.86155059  0.80770860  0.76142939  1
  H+  H2  1  0.63410162  0.14587676  0.26460102  1
  H+  H3  1  0.36646999  0.84322165  0.01369552  1
  H+  H4  1  0.83237089  0.50835887  0.23517155  1
  H+  H5  1  0.32932397  0.52090463  -0.01364018  1
  H+  H6  1  0.51219521  0.02747418  0.99918294  1
  H+  H7  1  0.06620174  0.54790913  0.25735481  1
  H+  H8  1  0.53356330  0.15377383  0.76891635  1
  H+  H9  1  0.44223968  0.89219149  0.63340954  1
  H+  H10  1  0.35869184  0.20668540  0.50850885  1
  H+  H11  1  0.26127791  0.74638134  0.24917388  1
  H+  H12  1  0.40794202  0.18948409  0.81641632  1
  H+  H13  1  0.69533641  0.16979544  1.01498401  1
  H+  H14  1  0.85977184  0.68971655  0.99437508  1
  H+  H15  1  0.26537266  0.48880855  0.46675922  1
  H+  H16  1  1.04569096  0.85877804  0.50736299  1
  H+  H17  1  0.15820137  0.63988875  0.75966262  1
  H+  H18  1  0.81861194  0.28378470  0.01897371  1
  H+  H19  1  0.21627923  1.00680353  0.22633952  1
  H+  H20  1  0.85470645  0.63117755  0.20612460  1
  H+  H21  1  0.45317272  0.82592408  0.25795170  1
  H+  H22  1  0.55840686  0.10171909  0.90754266  1
  H+  H23  1  0.48905188  0.17623232  0.24260326  1
  H+  H24  1  0.85109482  1.02001491  -0.00975645  1
  H+  H25  1  0.60220186  0.89915305  0.79263946  1
  H+  H26  1  0.85803001  0.37245632  0.24938728  1
  H+  H27  1  0.85160967  0.46516633  1.00448458  1
  H+  H28  1  0.54215382  0.76349393  0.35443205  1
  H+  H29  1  0.80460109  0.50581399  0.73845049  1
  H+  H30  1  0.36629387  0.51188122  0.25962396  1
  H+  H31  1  0.19092140  0.39938478  0.34514847  1
  H+  H32  1  0.82679836  0.36032592  0.47311424  1
  H+  H33  1  0.81000979  0.18423924  0.24857641  1
  H+  H34  1  0.48381185  0.51127159  0.24721755  1
  H+  H35  1  0.70831608  0.84347237  0.52334893  1
  H+  H36  1  0.50127578  0.63922801  0.02505072  1
  H+  H37  1  0.15530182  0.63799632  0.02412295  1
  H+  H38  1  0.18318767  0.36809129  0.50839241  1
  H+  H39  1  0.17453314  0.81654669  0.76224421  1
  H+  H40  1  0.76650319  0.89313374  0.15480277  1
  H+  H41  1  0.12147109  0.26955177  0.23332574  1
  H+  H42  1  0.51389383  0.02661260  0.26765845  1
  H+  H43  1  0.50611885  0.78152145  0.50121082  1
  H+  H44  1  0.50314986  0.40333209  0.48717559  1
  H+  H45  1  0.71517436  0.20072650  0.74073324  1
  H+  H46  1  0.49986255  0.68686749  0.26525693  1
  H+  H47  1  0.83150973  0.48100026  0.47358254  1
  H+  H48  1  0.52173057  0.36324841  0.25931434  1
  H+  H49  1  0.55613771  0.46783734  0.39341760  1
  H+  H50  1  0.21133337  0.52164868  0.99241567  1
  H+  H51  1  0.82083409  0.32471896  0.73486013  1
  H+  H52  1  0.52607335  0.49346830  0.98609159  1
  H+  H53  1  0.83896403  0.15583207  0.49365617  1
  H+  H54  1  0.16366994  0.13891204  0.27281390  1
  H+  H55  1  0.85778271  0.70907084  0.50719368  1
  H+  H56  1  -0.00500092  0.81935867  0.20724685  1
  H+  H57  1  0.64141066  0.47819041  0.25434827  1
  H+  H58  1  0.19634143  0.03166548  0.96422949  1
  H+  H59  1  0.86315745  1.02058255  0.76312828  1
  H+  H60  1  0.49335649  0.19010068  0.00106901  1
  H+  H61  1  0.31979413  0.49243029  0.60870802  1
  H+  H62  1  0.47974020  0.29953707  0.75880508  1
  H+  H63  1  0.13534762  0.95773947  0.73574281  1
  H+  H64  1  0.30790183  0.15494966  -0.03356349  1
  H+  H65  1  0.73553450  0.85943497  0.74702674  1
  H+  H66  1  0.18479331  1.04310978  0.50530838  1
  H+  H67  1  0.44347970  0.83497870  0.72593014  1
  H+  H68  1  0.29655347  0.82880426  0.75546655  1
  H+  H69  1  0.84400874  0.68188174  0.75892123  1
  H+  H70  1  0.68736659  0.18007069  0.51091556  1
  H+  H71  1  0.77247439  0.67115979  0.29143993  1
  H+  H72  1  0.12754705  0.17821176  0.74284952  1
  H+  H73  1  0.26930695  0.14043773  0.73303910  1
  H+  H74  1  1.02497930  0.84208333  0.25199620  1
  H+  H75  1  0.29352580  0.16931413  0.28129032  1
  H+  H76  1  0.55067211  0.76838487  0.77008979  1
  H+  H77  1  0.14730643  0.51397004  0.76237948  1
  H+  H78  1  0.82733662  1.03061395  0.26505719  1
  H+  H79  1  0.82782062  0.84284898  1.01731776  1
  H+  H80  1  0.79339930  0.79772365  0.27847823  1
  H+  H81  1  0.19099008  0.69881296  0.51006779  1
  H+  H82  1  0.67479950  0.85533192  0.23662314  1
  H+  H83  1  0.70909733  0.84418361  0.01820382  1
  H+  H84  1  0.27602577  0.45099270  0.76473581  1
  H+  H85  1  0.20497668  0.51265500  0.29822420  1
  H+  H86  1  0.26596018  0.92358929  0.20923216  1
  H+  H87  1  0.03416841  0.20480041  0.00438130  1
  H+  H88  1  0.69690645  0.53527237  0.50610504  1
  H+  H89  1  0.12619457  0.29590889  0.76325574  1
  H+  H90  1  0.19322628  0.81927588  0.99060029  1
  H+  H91  1  0.77264796  0.53712580  0.09073344  1
  H+  H92  1  0.83939501  0.13344766  -0.01064742  1
  H+  H93  1  0.14990949  0.52189912  0.54123988  1
  H+  H94  1  0.70143299  0.50826268  -0.00271939  1
  H+  H95  1  0.37506751  0.59617248  0.67841677  1
  H+  H96  1  -0.01376037  0.51386020  0.78048371  1
  H+  H97  1  0.68482492  0.50449243  0.73514975  1
  H+  H98  1  0.04946204  0.85466831  0.01467681  1
  H+  H99  1  1.00388462  0.15656249  0.24989042  1
  H+  H100  1  0.04256447  0.51472728  0.03324186  1
  H+  H101  1  0.84921466  0.04166327  0.49728675  1
  H+  H102  1  0.83173911  0.85555886  0.51870264  1
  H+  H103  1  0.10749536  0.56762471  0.62037624  1
  H+  H104  1  0.20231856  0.82207376  0.49680147  1
  H+  H105  1  0.50380935  0.14497509  0.49178715  1
  H+  H106  1  0.50130364  0.47855768  0.74615358  1
  H+  H107  1  0.52873367  0.03592734  0.75565912  1
  H+  H108  1  0.02569387  0.83136923  0.73888687  1
  H+  H109  1  0.54702460  0.45605570  0.84168087  1
  H+  H110  1  0.80329966  0.89245437  0.65194854  1
  H+  H111  1  0.22872869  0.46032088  0.86283887  1
  H+  H112  1  0.89854385  0.76882911  0.90722126  1
  H+  H113  1  0.15901571  0.92107971  0.08361609  1
  H+  H114  1  0.14102489  0.57169334  0.17043273  1
  H+  H115  1  0.20949211  0.10519214  0.82975778  1
  H+  H116  1  0.45921969  0.60414760  0.56281160  1
  H+  H117  1  1.03032325  0.20483641  0.46811394  1
  H+  H118  1  0.90269949  0.43156363  0.92301017  1
  H+  H119  1  0.52273115  0.37397893  0.97404439  1
  H+  H120  1  0.43472673  0.88097297  0.10736543  1
  H+  H121  1  0.57072070  0.79002308  0.92612456  1
  H+  H122  1  0.21867253  0.11371370  0.41373546  1
  H+  H123  1  0.37395747  0.12622056  0.19185033  1
  H+  H124  1  0.45107527  0.54942486  0.10629806  1
  H+  H125  1  0.92391552  0.56473485  0.83742516  1
  H+  H126  1  0.36055327  0.82939729  0.50855059  1
  H+  H127  1  0.44787230  0.25169487  0.58915604  1
  H+  H128  1  0.87259828  0.11008915  0.35513070  1
  H+  H129  1  0.14634979  0.20066875  0.47336402  1
  H+  H130  1  0.11804748  0.88928493  0.59745178  1
  H+  H131  1  0.88399909  0.09628716  0.85952996  1
  H+  H132  1  -0.02003634  0.15701187  0.76528090  1
  H+  H133  1  0.48483740  0.94561258  0.50364669  1
  H+  H134  1  0.54613778  0.10521811  0.40645528  1
  H+  H135  1  0.51968014  0.57157689  0.47492452  1
  H+  H136  1  0.45418311  0.23738802  0.08339252  1
  H+  H137  1  0.77005300  0.55211533  0.59559903  1
  H+  H138  1  0.87590367  0.78021997  0.41878864  1
  H+  H139  1  0.23019820  0.77510652  0.90451642  1
  H+  H140  1  0.76915411  0.21337080  0.15601884  1
  H+  H141  1  0.77583202  0.23611095  0.59374037  1
  H+  H142  1  0.09993244  0.22115780  0.09316741  1
  H+  H143  1  0.88458027  0.44703455  0.33974609  1
  O2-  O144  1  0.08448247  0.18691705  0.22648916  1
  O2-  O145  1  0.08376079  0.21916324  0.73292102  1
  O2-  O146  1  0.14695318  0.58239368  0.23813391  1
  O2-  O147  1  0.10958240  0.55775868  0.74171853  1
  O2-  O148  1  0.25023421  0.98016166  0.17897930  1
  O2-  O149  1  0.10607055  0.87673020  0.71630463  1
  O2-  O150  1  0.43857703  0.20147901  0.21211139  1
  O2-  O151  1  0.44080521  0.21399194  0.75568711  1
  O2-  O152  1  0.44147300  0.55011493  0.22765403  1
  O2-  O153  1  0.38936913  0.53889150  0.65051666  1
  O2-  O154  1  0.42170334  0.87208174  0.22748910  1
  O2-  O155  1  0.44051296  0.90097231  0.70302386  1
  O2-  O156  1  0.76856721  0.22260275  0.22353307  1
  O2-  O157  1  0.78762734  0.24889593  0.70799716  1
  O2-  O158  1  0.79194862  0.55213982  0.20998444  1
  O2-  O159  1  0.76489122  0.54427155  0.71229071  1
  O2-  O160  1  0.75746698  0.89478683  0.22212441  1
  O2-  O161  1  0.81280901  0.89282725  0.72059719  1
  O2-  O162  1  0.21534075  0.11186295  0.29864770  1
  O2-  O163  1  0.19337241  0.10099840  0.76129428  1
  O2-  O164  1  0.24716184  0.47830995  0.32949833  1
  O2-  O165  1  0.20496936  0.43149137  0.79595125  1
  O2-  O166  1  0.30624456  0.82950138  0.26501992  1
  O2-  O167  1  0.22165969  0.78248053  0.78512094  1
  O2-  O168  1  0.55354394  0.10694283  0.28899217  1
  O2-  O169  1  0.57198424  0.11058850  0.78749152  1
  O2-  O170  1  0.56332778  0.44345088  0.27999580  1
  O2-  O171  1  0.54361518  0.44463178  0.77305836  1
  O2-  O172  1  0.53194398  0.76730669  0.28839209  1
  O2-  O173  1  0.60911543  0.83176125  0.80550022  1
  O2-  O174  1  0.87390738  0.11150734  0.28672801  1
  O2-  O175  1  0.89000255  0.09943426  0.78889165  1
  O2-  O176  1  0.89808818  0.45348149  0.27058688  1
  O2-  O177  1  0.90902242  0.49335369  0.80875045  1
  O2-  O178  1  0.80272824  0.74544568  0.32060816  1
  O2-  O179  1  0.89251443  0.75941330  0.78591781  1
  O2-  O180  1  0.22139626  0.12362757  0.48134690  1
  O2-  O181  1  0.23656347  0.10684329  0.93260514  1
  O2-  O182  1  0.23474455  0.45236507  0.52605362  1
  O2-  O183  1  0.26887483  0.52299769  0.94979950  1
  O2-  O184  1  0.24035010  0.77738753  0.48305343  1
  O2-  O185  1  0.23130445  0.77467737  0.97224578  1
  O2-  O186  1  0.54182427  0.10175068  0.47441760  1
  O2-  O187  1  0.55412574  0.10731057  0.97489721  1
  O2-  O188  1  0.54826344  0.48176396  0.45943041  1
  O2-  O189  1  0.56303824  0.45529398  0.95237531  1
  O2-  O190  1  0.55482054  0.74565076  0.48178075  1
  O2-  O191  1  0.56590499  0.78195278  0.99272681  1
  O2-  O192  1  0.88173412  0.11820485  0.46903954  1
  O2-  O193  1  0.88066564  0.09679198  0.96111937  1
  O2-  O194  1  0.85990621  0.43558448  0.44221382  1
  O2-  O195  1  0.89623600  0.42633384  0.99006588  1
  O2-  O196  1  0.89798830  0.78989339  0.48459758  1
  O2-  O197  1  0.89985799  0.77138942  0.97499436  1
  O2-  O198  1  0.10401686  0.26032503  0.03610702  1
  O2-  O199  1  0.11444595  0.25101415  0.45839214  1
  O2-  O200  1  0.12291703  0.56162378  0.05391798  1
  O2-  O201  1  0.11660035  0.57087285  0.55361186  1
  O2-  O202  1  0.13398349  0.89877545  0.01941672  1
  O2-  O203  1  0.12588240  0.90040888  0.53030551  1
  O2-  O204  1  0.45633350  0.23651149  0.01620464  1
  O2-  O205  1  0.44279937  0.25721536  0.52333729  1
  O2-  O206  1  0.46166045  0.55575103  0.03920635  1
  O2-  O207  1  0.47935654  0.62161938  0.49383635  1
  O2-  O208  1  0.44572431  0.88575909  0.04030319  1
  O2-  O209  1  0.44746173  0.86692618  0.52889575  1
  O2-  O210  1  0.77469087  0.20194499  0.03873689  1
  O2-  O211  1  0.77012042  0.22448311  0.52612220  1
  O2-  O212  1  0.78007150  0.54071560  0.02322190  1
  O2-  O213  1  0.77545205  0.56494599  0.52854508  1
  O2-  O214  1  0.79067028  0.88692397  0.03795331  1
  O2-  O215  1  0.78797267  0.89336279  0.54263487  1
