# generated using pymatgen
data_H2O
_symmetry_space_group_name_H-M   'P 1'
_cell_length_a   13.52109654
_cell_length_b   13.52404160
_cell_length_c   14.70837118
_cell_angle_alpha   90.04363637
_cell_angle_beta   89.94413222
_cell_angle_gamma   119.97988052
_symmetry_Int_Tables_number   1
_chemical_formula_structural   H2O
_chemical_formula_sum   'H144 O72'
_cell_volume   2329.70755598
_cell_formula_units_Z   72
loop_
 _symmetry_equiv_pos_site_id
 _symmetry_equiv_pos_as_xyz
  1  'x, y, z'
loop_
 _atom_type_symbol
 _atom_type_oxidation_number
  H+  1.0
  O2-  -2.0
loop_
 _atom_site_type_symbol
 _atom_site_label
 _atom_site_symmetry_multiplicity
 _atom_site_fract_x
 _atom_site_fract_y
 _atom_site_fract_z
 _atom_site_occupancy
  H+  H0  1  0.50577326  0.67621437  0.25279664  1
  H+  H1  1  0.63430080  0.14921813  0.77589682  1
  H+  H2  1  0.17094085  0.81203793  0.27008860  1
  H+  H3  1  0.11238552  0.21968870  0.10160034  1
  H+  H4  1  0.72736913  0.56035269  -0.01746077  1
  H+  H5  1  0.47026060  0.62144657  0.50367564  1
  H+  H6  1  0.81794631  0.46579391  1.03144985  1
  H+  H7  1  0.82487024  0.87120816  1.01245968  1
  H+  H8  1  0.37600777  0.82222075  0.62761760  1
  H+  H9  1  0.44830398  0.92138887  0.56236510  1
  H+  H10  1  0.13600492  0.16876438  0.24428445  1
  H+  H11  1  0.83582135  0.52749751  0.21132364  1
  H+  H12  1  0.69078379  0.21956068  0.01107684  1
  H+  H13  1  0.16110515  0.13920905  0.49707853  1
  H+  H14  1  0.84952795  0.04803223  0.99475879  1
  H+  H15  1  0.48604470  0.79003699  0.77061581  1
  H+  H16  1  0.76546128  0.40787179  0.03148171  1
  H+  H17  1  0.46238026  0.43177161  0.98527204  1
  H+  H18  1  0.17950602  0.68735582  -0.03492811  1
  H+  H19  1  0.82185154  0.17781860  0.76917553  1
  H+  H20  1  0.14248038  0.62575240  0.23667651  1
  H+  H21  1  0.97591893  0.47109184  0.22379632  1
  H+  H22  1  0.81216814  0.84229682  0.24267668  1
  H+  H23  1  0.14995288  0.29410187  0.74234099  1
  H+  H24  1  0.17415416  0.51089525  0.50820060  1
  H+  H25  1  0.85237602  0.13383017  0.49303476  1
  H+  H26  1  0.51163486  0.48193248  0.73649935  1
  H+  H27  1  0.59947646  0.20264103  0.41747794  1
  H+  H28  1  0.46581778  0.49618663  0.23492842  1
  H+  H29  1  0.54139286  0.28317461  0.00468707  1
  H+  H30  1  0.16526970  -0.02569727  0.74407195  1
  H+  H31  1  0.04709415  0.86370052  0.02774138  1
  H+  H32  1  0.45548978  0.30142714  0.50887423  1
  H+  H33  1  0.69741496  0.16261294  0.21242063  1
  H+  H34  1  0.16383317  1.01571375  0.26999616  1
  H+  H35  1  0.44272613  0.16149120  0.18963641  1
  H+  H36  1  0.96344837  0.81762815  0.50069827  1
  H+  H37  1  0.33200672  0.15948551  0.22977765  1
  H+  H38  1  0.18018363  0.47438180  0.25284030  1
  H+  H39  1  0.14393672  0.96988819  0.51376126  1
  H+  H40  1  0.69002743  0.84224993  0.51072871  1
  H+  H41  1  0.61453980  0.81137802  0.75874841  1
  H+  H42  1  0.52150679  0.15607342  0.76076790  1
  H+  H43  1  0.78324358  0.52034051  0.50312182  1
  H+  H44  1  0.45289520  0.18321595  0.49994978  1
  H+  H45  1  0.97857448  0.48113230  0.75703069  1
  H+  H46  1  0.48001427  0.46764527  0.48380348  1
  H+  H47  1  0.48104651  0.62347006  0.73612051  1
  H+  H48  1  0.50064828  0.79467367  0.48654944  1
  H+  H49  1  0.02297458  0.16940578  0.51258809  1
  H+  H50  1  0.13104443  0.60133895  0.50070855  1
  H+  H51  1  0.49454113  0.33127051  0.73216443  1
  H+  H52  1  0.87364888  0.37332634  0.49686733  1
  H+  H53  1  0.26582271  0.82448311  -0.03564554  1
  H+  H54  1  0.63242232  0.79450664  -0.00639661  1
  H+  H55  1  0.29086771  0.80748223  0.27477206  1
  H+  H56  1  0.63067076  0.47487945  0.74183284  1
  H+  H57  1  0.74243018  0.54473073  0.59781839  1
  H+  H58  1  0.29807235  0.47358075  0.25087032  1
  H+  H59  1  0.80580079  0.84943463  0.74770918  1
  H+  H60  1  0.82554200  0.16173251  0.23972943  1
  H+  H61  1  0.42071404  0.01599213  0.99811068  1
  H+  H62  1  0.47825665  0.82500692  0.25942898  1
  H+  H63  1  0.77139192  0.89333124  0.10021535  1
  H+  H64  1  0.96589970  0.14719426  0.25712274  1
  H+  H65  1  0.82420419  0.28742961  0.21649624  1
  H+  H66  1  0.45601040  0.89669324  0.32941526  1
  H+  H67  1  0.85767244  0.73042225  1.00627304  1
  H+  H68  1  0.63785701  0.49276468  0.05325316  1
  H+  H69  1  0.92928820  0.31599166  0.95597893  1
  H+  H70  1  0.85535037  0.70191753  0.26058625  1
  H+  H71  1  0.22974697  0.76956825  0.83932930  1
  H+  H72  1  1.02627118  0.83845500  0.25809092  1
  H+  H73  1  0.18542440  0.47604167  0.75964651  1
  H+  H74  1  0.83757426  0.28840656  0.52991656  1
  H+  H75  1  0.30181756  0.47233655  0.75794021  1
  H+  H76  1  0.49030279  0.60675342  0.00588551  1
  H+  H77  1  0.88424269  0.10616999  0.34737299  1
  H+  H78  1  0.28034070  0.80813215  0.49965603  1
  H+  H79  1  0.97779910  0.82787638  0.76865782  1
  H+  H80  1  0.16375922  0.63028854  0.73826995  1
  H+  H81  1  0.27975447  0.12085499  0.99825923  1
  H+  H82  1  0.84502495  1.01406896  0.48603060  1
  H+  H83  1  0.34891603  0.50315766  0.50442839  1
  H+  H84  1  0.16724001  0.83164926  0.49340035  1
  H+  H85  1  0.34542108  0.24745090  0.96016415  1
  H+  H86  1  0.52304054  0.02043021  0.22247905  1
  H+  H87  1  0.81003402  0.84571338  0.51507997  1
  H+  H88  1  0.17839541  0.89822651  0.03264524  1
  H+  H89  1  0.59650401  0.46750549  0.48036304  1
  H+  H90  1  0.80674125  0.95727254  0.24335305  1
  H+  H91  1  0.84726451  1.03091613  0.76958970  1
  H+  H92  1  0.52078562  0.07288203  0.43522030  1
  H+  H93  1  0.05490836  0.50569712  0.00486122  1
  H+  H94  1  0.84908399  0.49137787  0.48043849  1
  H+  H95  1  0.71638736  0.17130450  0.54146798  1
  H+  H96  1  0.18835459  0.15454480  0.75756731  1
  H+  H97  1  0.18265224  0.36345334  0.99298354  1
  H+  H98  1  0.83904430  0.70405638  0.49948610  1
  H+  H99  1  0.47573948  0.34106555  0.24136632  1
  H+  H100  1  0.21097021  0.78322679  0.39323655  1
  H+  H101  1  0.17559532  0.34812957  0.48429070  1
  H+  H102  1  0.16558438  0.19802653  0.01096998  1
  H+  H103  1  0.43386085  0.54091169  0.14518896  1
  H+  H104  1  0.97530627  0.15583594  0.99223635  1
  H+  H105  1  0.36171091  0.50051041  1.00570052  1
  H+  H106  1  0.17832409  0.52756718  0.00879393  1
  H+  H107  1  0.83791868  0.51365621  0.74258956  1
  H+  H108  1  0.78480739  0.21274332  0.67943725  1
  H+  H109  1  0.16818444  0.85746697  0.73904924  1
  H+  H110  1  0.43504161  0.22434888  0.64438077  1
  H+  H111  1  0.39910326  0.90839820  0.76822605  1
  H+  H112  1  0.88276597  0.77699257  0.35299924  1
  H+  H113  1  0.51054661  0.41174362  0.33434448  1
  H+  H114  1  0.11465797  0.89063912  0.60435208  1
  H+  H115  1  0.20433563  0.10156881  0.35428087  1
  H+  H116  1  0.89916845  0.44972746  0.38911233  1
  H+  H117  1  0.85708654  0.36257180  0.76424182  1
  H+  H118  1  0.54597625  0.76099405  0.39649772  1
  H+  H119  1  0.12593794  0.54840311  0.65293071  1
  H+  H120  1  0.86105843  0.71019198  0.77658651  1
  H+  H121  1  0.54712246  0.13747094  0.89967512  1
  H+  H122  1  0.92052303  0.41054175  0.89905511  1
  H+  H123  1  0.89059117  0.43375507  0.30933481  1
  H+  H124  1  0.89573584  0.11134621  0.85971021  1
  H+  H125  1  0.14246964  0.29105963  0.24155718  1
  H+  H126  1  0.12326833  0.56088263  0.13996475  1
  H+  H127  1  0.77502413  0.57697621  0.14872537  1
  H+  H128  1  0.28115181  0.14404173  0.49690883  1
  H+  H129  1  0.10203015  0.21369515  0.60309839  1
  H+  H130  1  0.54458524  0.12286214  0.28448456  1
  H+  H131  1  0.62580813  0.79748808  0.25580763  1
  H+  H132  1  0.90350007  0.79746511  0.91298919  1
  H+  H133  1  0.24329729  0.13173443  0.84629476  1
  H+  H134  1  0.22356913  0.43714091  0.90044302  1
  H+  H135  1  0.03189657  0.17495016  0.74708419  1
  H+  H136  1  0.43768044  0.54648777  0.64458710  1
  H+  H137  1  0.76697612  0.88627176  0.65764496  1
  H+  H138  1  0.55152693  0.74691963  0.90735707  1
  H+  H139  1  0.36108353  0.19088090  0.74073066  1
  H+  H140  1  0.87983839  0.61582359  0.67553065  1
  H+  H141  1  0.11025743  0.88190468  0.17034540  1
  H+  H142  1  0.40037415  0.91386088  0.06038584  1
  H+  H143  1  0.21681024  0.42573628  0.39223457  1
  O2-  O144  1  0.09654540  0.20983969  0.22041707  1
  O2-  O145  1  0.11061232  0.21305505  0.71994209  1
  O2-  O146  1  0.10922992  0.54942444  0.20816335  1
  O2-  O147  1  0.11819887  0.54809416  0.72095592  1
  O2-  O148  1  0.10913999  0.87555292  0.23941066  1
  O2-  O149  1  0.12310413  0.89419883  0.72069664  1
  O2-  O150  1  0.40402842  0.20569526  0.19531888  1
  O2-  O151  1  0.44275918  0.23241526  0.71335778  1
  O2-  O152  1  0.43121814  0.54468060  0.21316059  1
  O2-  O153  1  0.44425892  0.54305847  0.71241178  1
  O2-  O154  1  0.44094350  0.87456172  0.26552810  1
  O2-  O155  1  0.36490246  0.82881304  0.74587504  1
  O2-  O156  1  0.78482910  0.20192455  0.20473722  1
  O2-  O157  1  0.78052726  0.21819308  0.74604536  1
  O2-  O158  1  0.80759033  0.58162572  0.20991394  1
  O2-  O159  1  0.81227850  0.56539752  0.71156656  1
  O2-  O160  1  0.76660861  0.87767393  0.22071633  1
  O2-  O161  1  0.76284102  0.88619211  0.72540218  1
  O2-  O162  1  0.20077352  0.09846882  0.28665579  1
  O2-  O163  1  0.23669823  0.12110463  0.77849488  1
  O2-  O164  1  0.21725456  0.43200254  0.27604536  1
  O2-  O165  1  0.22224856  0.43197387  0.78178205  1
  O2-  O166  1  0.21026594  0.76953312  0.29705118  1
  O2-  O167  1  0.24069136  0.77858011  0.76461793  1
  O2-  O168  1  0.56349410  0.10523286  0.22407307  1
  O2-  O169  1  0.55196075  0.11358017  0.79344443  1
  O2-  O170  1  0.51510582  0.41960354  0.26779071  1
  O2-  O171  1  0.54849617  0.43354241  0.75385354  1
  O2-  O172  1  0.54554944  0.75624088  0.27973698  1
  O2-  O173  1  0.53549098  0.75679683  0.78008086  1
  O2-  O174  1  0.88304300  0.10888663  0.27895313  1
  O2-  O175  1  0.89416575  0.11144260  0.79011702  1
  O2-  O176  1  0.89103576  0.42394880  0.24238671  1
  O2-  O177  1  0.89844761  0.44562714  0.78110053  1
  O2-  O178  1  0.88933152  0.78231779  0.28585011  1
  O2-  O179  1  0.89864212  0.79159182  0.79357608  1
  O2-  O180  1  0.20113619  0.09767095  0.47421541  1
  O2-  O181  1  0.26983085  0.17286623  0.95831280  1
  O2-  O182  1  0.21864068  0.42790689  0.46049031  1
  O2-  O183  1  0.22697760  0.44314851  0.96822913  1
  O2-  O184  1  0.20660241  0.78717993  0.46627760  1
  O2-  O185  1  0.20149524  0.75992878  0.93115994  1
  O2-  O186  1  0.52153585  0.13963623  0.40920907  1
  O2-  O187  1  0.53507349  0.14850346  0.96719412  1
  O2-  O188  1  0.51575925  0.42157696  0.46192781  1
  O2-  O189  1  0.46992634  0.36528276  0.95742114  1
  O2-  O190  1  0.54744939  0.76243906  0.46510900  1
  O2-  O191  1  0.55403104  0.73803943  0.97360432  1
  O2-  O192  1  0.88835366  0.09466473  0.46202349  1
  O2-  O193  1  0.89694123  0.12505727  0.96716639  1
  O2-  O194  1  0.90614599  0.46377200  0.45990094  1
  O2-  O195  1  0.93612938  0.39126677  0.96036509  1
  O2-  O196  1  0.88418026  0.78296262  0.47626600  1
  O2-  O197  1  0.90749335  0.80614588  0.98055957  1
  O2-  O198  1  0.11537013  0.22680561  0.03394907  1
  O2-  O199  1  0.10336886  0.21342432  0.53478146  1
  O2-  O200  1  0.13245237  0.56410815  0.02794500  1
  O2-  O201  1  0.15393564  0.56176605  0.54335711  1
  O2-  O202  1  0.11874608  0.90619066  0.06335791  1
  O2-  O203  1  0.10892257  0.88743141  0.53591652  1
  O2-  O204  1  0.53252216  0.34637889  0.03053287  1
  O2-  O205  1  0.41916950  0.22067540  0.53573422  1
  O2-  O206  1  0.44066211  0.52525825  0.02831372  1
  O2-  O207  1  0.42912151  0.54268164  0.52944292  1
  O2-  O208  1  0.35965310  0.94136387  0.02312496  1
  O2-  O209  1  0.39439617  0.83949988  0.56121375  1
  O2-  O210  1  0.62839030  0.13993103  0.01193997  1
  O2-  O211  1  0.79762978  0.20692187  0.55651709  1
  O2-  O212  1  0.70442822  0.57044180  0.04306123  1
  O2-  O213  1  0.73874649  0.55345437  0.53086094  1
  O2-  O214  1  0.77465608  0.90109163  0.03277032  1
  O2-  O215  1  0.76867182  0.88577638  0.53618864  1
