# generated using pymatgen
data_H2O
_symmetry_space_group_name_H-M   'P 1'
_cell_length_a   13.50124509
_cell_length_b   13.47746716
_cell_length_c   14.68205234
_cell_angle_alpha   89.93290133
_cell_angle_beta   89.99045632
_cell_angle_gamma   119.92322043
_symmetry_Int_Tables_number   1
_chemical_formula_structural   H2O
_chemical_formula_sum   'H144 O72'
_cell_volume   2315.44531357
_cell_formula_units_Z   72
loop_
 _symmetry_equiv_pos_site_id
 _symmetry_equiv_pos_as_xyz
  1  'x, y, z'
loop_
 _atom_type_symbol
 _atom_type_oxidation_number
  H+  1.0
  O2-  -2.0
loop_
 _atom_site_type_symbol
 _atom_site_label
 _atom_site_symmetry_multiplicity
 _atom_site_fract_x
 _atom_site_fract_y
 _atom_site_fract_z
 _atom_site_occupancy
  H+  H0  1  0.04331061  0.98706940  0.03644963  1
  H+  H1  1  0.49927305  0.19933673  0.99920734  1
  H+  H2  1  0.76177422  0.92987833  0.01605533  1
  H+  H3  1  0.85238515  0.14363305  0.48908727  1
  H+  H4  1  0.17866098  0.20414776  0.50897614  1
  H+  H5  1  0.39941919  0.84043950  0.26783125  1
  H+  H6  1  0.30130887  0.35336281  1.05105880  1
  H+  H7  1  0.19920305  1.05072994  -0.05292131  1
  H+  H8  1  0.50826688  0.34484564  0.22175494  1
  H+  H9  1  0.81524463  0.76415137  0.26545410  1
  H+  H10  1  0.15725926  0.87137933  0.51817699  1
  H+  H11  1  0.55535033  0.07416648  0.74832592  1
  H+  H12  1  0.85376325  0.82254807  0.48843789  1
  H+  H13  1  0.15703634  0.83846098  0.30549879  1
  H+  H14  1  0.18364229  0.05078772  0.49589608  1
  H+  H15  1  0.20447301  0.66698383  0.26175908  1
  H+  H16  1  0.50293138  0.36551942  -0.00708507  1
  H+  H17  1  0.49306566  0.62972702  0.22791825  1
  H+  H18  1  0.51080077  0.88060411  0.77739951  1
  H+  H19  1  0.70240079  0.84481129  0.26815617  1
  H+  H20  1  -0.01560471  0.10996089  0.02160678  1
  H+  H21  1  0.51036546  0.82950384  0.45117622  1
  H+  H22  1  0.92023949  0.81865315  0.97839023  1
  H+  H23  1  0.81130102  0.59012885  0.25138479  1
  H+  H24  1  0.14790888  0.52580223  0.72824601  1
  H+  H25  1  0.19216060  0.49675242  0.48381169  1
  H+  H26  1  0.75539393  0.86894832  0.16837588  1
  H+  H27  1  0.84067342  0.05337740  0.25273891  1
  H+  H28  1  0.39818054  0.83551714  0.03066196  1
  H+  H29  1  0.10839807  0.78231658  0.28903157  1
  H+  H30  1  0.02108183  0.48740731  0.21966312  1
  H+  H31  1  0.14527940  0.30508823  0.22753742  1
  H+  H32  1  0.23215379  0.83391605  0.98385145  1
  H+  H33  1  0.63873911  0.81707260  0.75964029  1
  H+  H34  1  0.30822538  0.16300074  0.26152832  1
  H+  H35  1  0.18557546  0.71219865  0.49665083  1
  H+  H36  1  0.14199108  0.49321294  0.21875420  1
  H+  H37  1  0.00001507  0.86735130  0.27366200  1
  H+  H38  1  0.97170549  0.50855101  0.97677838  1
  H+  H39  1  0.36746816  0.18725351  0.51961913  1
  H+  H40  1  0.85166003  0.70690013  0.50931024  1
  H+  H41  1  0.03283721  0.84485466  0.74839286  1
  H+  H42  1  0.53538612  0.03892744  0.27614688  1
  H+  H43  1  0.22588879  1.06161126  0.74828339  1
  H+  H44  1  0.67749053  0.20957663  0.97447893  1
  H+  H45  1  0.41792374  0.27235042  0.75548693  1
  H+  H46  1  0.87246514  0.08507265  0.89190091  1
  H+  H47  1  0.50046556  -0.03200962  0.48420440  1
  H+  H48  1  0.03707786  0.51630361  0.49637722  1
  H+  H49  1  0.51663338  0.14511251  0.51076506  1
  H+  H50  1  0.24034750  0.32609770  0.03451018  1
  H+  H51  1  0.70586439  0.18503723  0.51620678  1
  H+  H52  1  0.53171676  0.81704170  0.30618893  1
  H+  H53  1  -0.00656944  0.96518250  0.32297914  1
  H+  H54  1  0.50713735  0.35879310  0.53180752  1
  H+  H55  1  0.23268317  0.47299736  0.82094014  1
  H+  H56  1  -0.03585738  0.16483487  0.25380300  1
  H+  H57  1  0.48490644  0.51756200  0.18869977  1
  H+  H58  1  0.52073559  0.94285389  0.03189497  1
  H+  H59  1  0.16644926  0.81380785  0.75828768  1
  H+  H60  1  0.87166502  0.15816743  0.75331510  1
  H+  H61  1  0.82382400  -0.02813010  0.49838530  1
  H+  H62  1  0.86278467  0.03504158  0.74903447  1
  H+  H63  1  0.18122579  0.33397923  0.50784585  1
  H+  H64  1  0.36925066  0.53441822  0.71199878  1
  H+  H65  1  0.81701324  0.84730569  0.72947344  1
  H+  H66  1  0.80300955  0.26898235  0.11716205  1
  H+  H67  1  0.37646742  0.84783222  0.48046404  1
  H+  H68  1  0.51740878  0.69876653  0.46119155  1
  H+  H69  1  0.15097632  0.53078293  -0.01349210  1
  H+  H70  1  0.87113577  0.53273258  0.76119244  1
  H+  H71  1  0.42118398  0.20693595  0.61784166  1
  H+  H72  1  0.18715618  0.38333140  0.73843659  1
  H+  H73  1  0.04594515  0.18825306  0.73303639  1
  H+  H74  1  0.17368460  0.20527922  0.72665377  1
  H+  H75  1  0.81186823  0.52441055  0.99840793  1
  H+  H76  1  0.85002555  0.33879651  0.47578304  1
  H+  H77  1  0.73157512  0.20682124  0.72252668  1
  H+  H78  1  0.48128249  0.17328654  0.23787384  1
  H+  H79  1  0.79167283  0.53091659  0.58736814  1
  H+  H80  1  0.48969128  0.53354584  0.50389909  1
  H+  H81  1  0.85972552  0.73360002  0.35597012  1
  H+  H82  1  0.49205172  0.46017124  0.75568201  1
  H+  H83  1  0.19567125  0.70193131  0.98336649  1
  H+  H84  1  0.16684458  0.68315716  0.75132070  1
  H+  H85  1  0.31573735  0.50589100  0.48006071  1
  H+  H86  1  0.30754954  0.48800354  0.23966200  1
  H+  H87  1  0.85679164  0.38999026  0.98474121  1
  H+  H88  1  0.59914563  0.75425695  -0.00286796  1
  H+  H89  1  0.85000586  0.45578287  0.45475850  1
  H+  H90  1  0.58312074  0.10860861  0.91775641  1
  H+  H91  1  0.89609448  0.27255436  0.05244794  1
  H+  H92  1  0.61489039  0.48452553  0.98298963  1
  H+  H93  1  0.49034244  0.64811958  0.72232964  1
  H+  H94  1  0.67896281  0.53104135  0.56265530  1
  H+  H95  1  0.19090742  0.15096174  0.98728324  1
  H+  H96  1  0.10802563  0.55594712  0.08153812  1
  H+  H97  1  0.32007810  0.55402742  0.95696884  1
  H+  H98  1  0.77114512  0.81906817  0.01503386  1
  H+  H99  1  1.03541623  0.86271993  0.51466747  1
  H+  H100  1  0.17744014  0.06170561  0.27961264  1
  H+  H101  1  0.69067158  0.47452145  0.22895880  1
  H+  H102  1  0.44476785  0.61843284  0.06822493  1
  H+  H103  1  0.81833118  0.11685024  0.97470476  1
  H+  H104  1  0.83730329  0.23553554  0.25438909  1
  H+  H105  1  0.81467075  0.68873389  -0.01922901  1
  H+  H106  1  0.70729297  0.85229810  0.49262087  1
  H+  H107  1  0.07708751  0.89402414  0.06390664  1
  H+  H108  1  0.77446145  0.55210754  0.09237206  1
  H+  H109  1  0.40236684  -0.10661255  0.76648619  1
  H+  H110  1  0.13368888  0.24725193  0.60384218  1
  H+  H111  1  0.37128464  0.18195355  0.00214496  1
  H+  H112  1  0.27844831  0.67382152  0.34533364  1
  H+  H113  1  0.02781804  0.53025711  0.73501371  1
  H+  H114  1  0.81863830  0.44721126  0.24550327  1
  H+  H115  1  0.88474278  0.10899037  0.39642178  1
  H+  H116  1  0.19589762  0.87614624  0.11751160  1
  H+  H117  1  0.77787329  0.89024232  0.64298821  1
  H+  H118  1  0.06685873  0.15393898  0.11043738  1
  H+  H119  1  0.80277515  0.23635230  0.59549431  1
  H+  H120  1  0.45480432  0.58822661  0.58355854  1
  H+  H121  1  0.44075348  0.20351875  0.14161303  1
  H+  H122  1  0.21975264  0.76999432  0.84793969  1
  H+  H123  1  0.64035826  0.16822975  0.27400166  1
  H+  H124  1  0.15029937  0.19305454  0.24669824  1
  H+  H125  1  0.57633822  0.43820067  0.44997460  1
  H+  H126  1  0.58480694  0.19558449  0.78435095  1
  H+  H127  1  0.10561821  0.56034226  0.59050315  1
  H+  H128  1  0.53377149  0.44057577  0.29475600  1
  H+  H129  1  0.23189967  0.42182482  0.96216581  1
  H+  H130  1  0.87145771  0.39568570  0.33657157  1
  H+  H131  1  0.23368005  0.13510825  0.40710527  1
  H+  H132  1  0.23005761  0.93985680  0.12637432  1
  H+  H133  1  0.85003355  0.32338186  0.72875712  1
  H+  H134  1  0.86593647  0.76551072  0.84569745  1
  H+  H135  1  0.56068194  0.12344482  0.41564428  1
  H+  H136  1  0.48132031  0.88850291  0.18352299  1
  H+  H137  1  0.21881102  0.79081466  0.41075798  1
  H+  H138  1  0.55429963  0.75288365  0.84374486  1
  H+  H139  1  0.89310127  0.46802741  0.84077217  1
  H+  H140  1  0.79346930  0.63664889  0.69761209  1
  H+  H141  1  0.51595220  0.41869772  0.85103103  1
  H+  H142  1  0.11183194  0.88940349  0.65949156  1
  H+  H143  1  0.23412047  0.45196422  0.33290043  1
  O2-  O144  1  0.10143182  0.22081351  0.21789912  1
  O2-  O145  1  0.12468014  0.23783077  0.70686259  1
  O2-  O146  1  0.10016235  0.53317013  0.19762530  1
  O2-  O147  1  0.10894954  0.57082155  0.70989684  1
  O2-  O148  1  0.03998447  0.95108565  0.27999746  1
  O2-  O149  1  0.11393677  0.88122425  0.72721320  1
  O2-  O150  1  0.44065909  0.21089398  0.21067400  1
  O2-  O151  1  0.37795754  0.19097759  0.72766138  1
  O2-  O152  1  0.44664680  0.56409209  0.18815474  1
  O2-  O153  1  0.44984664  0.57214757  0.69040017  1
  O2-  O154  1  0.48118555  0.89169240  0.25183643  1
  O2-  O155  1  0.48100377  0.93402004  0.78824198  1
  O2-  O156  1  0.79330725  0.27635787  0.23558165  1
  O2-  O157  1  0.81691850  0.24351824  0.70778267  1
  O2-  O158  1  0.77690247  0.51058601  0.22286540  1
  O2-  O159  1  0.82864777  0.64359340  0.75847211  1
  O2-  O160  1  0.77531629  0.88034594  0.23441492  1
  O2-  O161  1  0.78000935  0.89187436  0.71104051  1
  O2-  O162  1  0.23531161  0.14250625  0.29411685  1
  O2-  O163  1  0.25598187  0.14501065  0.74640354  1
  O2-  O164  1  0.22857676  0.44805232  0.26538877  1
  O2-  O165  1  0.22441511  0.46654476  0.75299687  1
  O2-  O166  1  0.26533300  0.72189365  0.30305070  1
  O2-  O167  1  0.20764449  0.76787702  0.77887160  1
  O2-  O168  1  0.56089731  0.11966709  0.29484965  1
  O2-  O169  1  0.59930613  0.15764989  0.73370267  1
  O2-  O170  1  0.55314095  0.43206412  0.23239077  1
  O2-  O171  1  0.50321926  0.40048204  0.78394660  1
  O2-  O172  1  0.55957695  0.76461806  0.33288913  1
  O2-  O173  1  0.55708894  0.77635457  0.77923162  1
  O2-  O174  1  0.88226834  0.13441230  0.27242848  1
  O2-  O175  1  0.90715216  0.11326363  0.77654447  1
  O2-  O176  1  0.86544142  0.39613218  0.26458511  1
  O2-  O177  1  0.89800113  0.47740296  0.77280399  1
  O2-  O178  1  0.85052638  0.71969839  0.28875219  1
  O2-  O179  1  0.88541394  0.76813187  0.77774422  1
  O2-  O180  1  0.22851341  0.13279990  0.47591537  1
  O2-  O181  1  0.24406590  0.13380736  0.95407371  1
  O2-  O182  1  0.23374631  0.45782106  0.46050344  1
  O2-  O183  1  0.24179302  0.49282347  0.93516675  1
  O2-  O184  1  0.22897710  0.79426502  0.47736416  1
  O2-  O185  1  0.25001659  0.77920986  0.95531095  1
  O2-  O186  1  0.56045523  0.11120390  0.48273759  1
  O2-  O187  1  0.60730567  0.18575387  0.93938257  1
  O2-  O188  1  0.55024760  0.44243642  0.51097900  1
  O2-  O189  1  0.53426643  0.44176387  0.96392087  1
  O2-  O190  1  0.56050360  0.78133782  0.43225893  1
  O2-  O191  1  0.53791995  0.69101705  0.95945880  1
  O2-  O192  1  0.88640926  0.09961333  0.46307835  1
  O2-  O193  1  0.85496056  0.07238403  0.95895375  1
  O2-  O194  1  0.89058757  0.41538364  0.43825096  1
  O2-  O195  1  0.89017268  0.46639934  0.95570840  1
  O2-  O196  1  0.89241654  0.77731123  0.47197181  1
  O2-  O197  1  0.84137103  0.76664452  0.95407824  1
  O2-  O198  1  0.05244610  0.11394249  0.05085837  1
  O2-  O199  1  0.14326454  0.25242596  0.53342772  1
  O2-  O200  1  0.10995429  0.56828914  0.01411591  1
  O2-  O201  1  0.11440621  0.56246514  0.52265628  1
  O2-  O202  1  0.04779417  0.91898872  0.01343898  1
  O2-  O203  1  0.11442429  0.90903364  0.54015168  1
  O2-  O204  1  0.44815787  0.21942167  0.03310172  1
  O2-  O205  1  0.44269951  0.22086599  0.55130830  1
  O2-  O206  1  0.43221851  0.65321067  0.01261569  1
  O2-  O207  1  0.45577718  0.58361953  0.51341678  1
  O2-  O208  1  0.46468514  0.88123574  0.06982466  1
  O2-  O209  1  0.46145095  0.88166826  0.48129465  1
  O2-  O210  1  0.81941511  0.26291868  0.05151310  1
  O2-  O211  1  0.79027006  0.22802010  0.52722381  1
  O2-  O212  1  0.76747166  0.55781878  0.02634495  1
  O2-  O213  1  0.76001042  0.58177813  0.58258956  1
  O2-  O214  1  0.72850633  0.85369852  0.04525645  1
  O2-  O215  1  0.78283010  0.88907532  0.52187357  1
