# generated using pymatgen
data_H2O
_symmetry_space_group_name_H-M   'P 1'
_cell_length_a   13.50535535
_cell_length_b   13.49630272
_cell_length_c   14.68134733
_cell_angle_alpha   89.99282418
_cell_angle_beta   90.05868092
_cell_angle_gamma   119.97073167
_symmetry_Int_Tables_number   1
_chemical_formula_structural   H2O
_chemical_formula_sum   'H144 O72'
_cell_volume   2318.16908727
_cell_formula_units_Z   72
loop_
 _symmetry_equiv_pos_site_id
 _symmetry_equiv_pos_as_xyz
  1  'x, y, z'
loop_
 _atom_type_symbol
 _atom_type_oxidation_number
  H+  1.0
  O2-  -2.0
loop_
 _atom_site_type_symbol
 _atom_site_label
 _atom_site_symmetry_multiplicity
 _atom_site_fract_x
 _atom_site_fract_y
 _atom_site_fract_z
 _atom_site_occupancy
  H+  H0  1  0.49141280  0.64878738  0.23717474  1
  H+  H1  1  0.98104035  0.79674045  0.31882875  1
  H+  H2  1  0.63529330  0.83006778  1.02512080  1
  H+  H3  1  0.83393523  0.53882214  0.50208316  1
  H+  H4  1  0.14581253  0.64665661  0.50960494  1
  H+  H5  1  0.85745095  0.04620690  1.00006332  1
  H+  H6  1  0.95729894  0.80958381  0.75399842  1
  H+  H7  1  0.16561912  0.30829148  0.01190597  1
  H+  H8  1  0.82176387  0.17682233  0.24184792  1
  H+  H9  1  0.84765975  0.36014642  0.26414728  1
  H+  H10  1  0.82146509  0.18513771  0.00499980  1
  H+  H11  1  0.50423379  0.30855404  0.49884662  1
  H+  H12  1  0.06111186  0.83825348  -0.00419119  1
  H+  H13  1  0.82437021  -0.02112364  0.73864024  1
  H+  H14  1  0.15289120  0.18794037  0.74091351  1
  H+  H15  1  0.32239914  0.16693761  0.22456100  1
  H+  H16  1  0.82747115  0.66591623  0.51654071  1
  H+  H17  1  0.63638253  0.49551602  0.25789181  1
  H+  H18  1  0.52209351  0.04912421  0.98537173  1
  H+  H19  1  0.50330876  0.67471566  1.01613308  1
  H+  H20  1  0.81893693  0.50566503  0.01777079  1
  H+  H21  1  0.86564436  0.69765956  0.27113513  1
  H+  H22  1  0.18125740  0.99447535  0.21766797  1
  H+  H23  1  0.82681888  0.35009108  0.75652178  1
  H+  H24  1  0.04072913  0.86619580  0.46316377  1
  H+  H25  1  0.19239980  0.82260745  0.24712385  1
  H+  H26  1  0.39811099  0.20453226  0.99356203  1
  H+  H27  1  0.72478541  0.20041245  0.49793638  1
  H+  H28  1  0.80756536  0.81915115  -0.03139866  1
  H+  H29  1  0.96284855  0.50756984  0.48985621  1
  H+  H30  1  0.37217492  0.53347032  0.00855795  1
  H+  H31  1  0.83111094  0.82176373  0.50131888  1
  H+  H32  1  0.52684286  0.17467051  0.98264583  1
  H+  H33  1  0.62188530  0.48152998  0.75164643  1
  H+  H34  1  0.90569359  0.74616206  0.88864675  1
  H+  H35  1  0.15117063  0.97512665  0.77551905  1
  H+  H36  1  0.81433195  0.18184204  0.74224219  1
  H+  H37  1  0.71287530  0.85273052  0.75174963  1
  H+  H38  1  0.52845414  0.35567800  0.98302370  1
  H+  H39  1  0.17596103  0.48352208  0.26559502  1
  H+  H40  1  0.85225835  0.35960052  0.99157186  1
  H+  H41  1  0.11644477  0.23318463  0.65325697  1
  H+  H42  1  0.15533265  0.62862885  1.00628608  1
  H+  H43  1  0.81415302  0.86104061  0.24444680  1
  H+  H44  1  0.19810418  0.04026780  0.98161618  1
  H+  H45  1  0.51926730  0.37882502  0.24245784  1
  H+  H46  1  0.14624976  0.29793007  0.24667083  1
  H+  H47  1  0.31368651  0.15554474  0.49652743  1
  H+  H48  1  0.20300327  0.81756400  0.98548001  1
  H+  H49  1  0.45448492  0.89563428  0.10053255  1
  H+  H50  1  0.14854153  0.63299086  0.23553659  1
  H+  H51  1  0.48866150  0.52837193  0.23440777  1
  H+  H52  1  0.46870291  1.02000605  0.71752279  1
  H+  H53  1  0.49149149  0.97534343  0.24026790  1
  H+  H54  1  0.70115860  0.18515423  1.00371691  1
  H+  H55  1  0.47516332  0.81756292  0.70745905  1
  H+  H56  1  0.52040207  0.48226502  0.48424439  1
  H+  H57  1  0.08849474  0.87825650  0.84932951  1
  H+  H58  1  0.45395902  0.59096490  0.65565659  1
  H+  H59  1  0.46940083  0.24880739  0.11814852  1
  H+  H60  1  0.53237419  0.86964368  0.70039677  1
  H+  H61  1  0.81744292  0.51495016  0.24609956  1
  H+  H62  1  0.80058425  0.50623191  0.73476016  1
  H+  H63  1  0.88299735  0.67497969  0.98006337  1
  H+  H64  1  0.19366757  0.48928396  0.98942647  1
  H+  H65  1  0.15888966  0.97605998  0.44455776  1
  H+  H66  1  0.84390354  0.87563448  0.94543259  1
  H+  H67  1  0.64388853  0.15864201  0.25443511  1
  H+  H68  1  0.71049193  0.98317281  0.08368657  1
  H+  H69  1  0.65157178  0.83200474  0.26542818  1
  H+  H70  1  0.20013592  0.15678888  0.24046038  1
  H+  H71  1  0.49923968  0.20752845  0.21287112  1
  H+  H72  1  0.34141664  0.89592039  0.71373852  1
  H+  H73  1  0.37584300  0.84999822  0.01027818  1
  H+  H74  1  0.49561623  0.85814792  0.24413016  1
  H+  H75  1  0.29669958  0.48747384  0.75273831  1
  H+  H76  1  0.94229117  0.46822818  0.74981597  1
  H+  H77  1  0.17915554  0.36687732  0.75889680  1
  H+  H78  1  0.53654134  0.69266853  0.77907990  1
  H+  H79  1  0.75254990  0.88209061  0.60941117  1
  H+  H80  1  0.17968796  0.82241226  0.45562741  1
  H+  H81  1  -0.02844448  0.15829898  0.75743334  1
  H+  H82  1  0.80439093  0.62819799  0.73355295  1
  H+  H83  1  0.51281515  0.81913382  1.00411128  1
  H+  H84  1  0.18471583  0.82863501  0.77093702  1
  H+  H85  1  0.84240763  0.81513076  0.74805098  1
  H+  H86  1  0.15097829  0.51455303  0.74799244  1
  H+  H87  1  0.03503828  0.50983586  0.00494712  1
  H+  H88  1  0.30133671  0.15358494  0.75367743  1
  H+  H89  1  -0.01920901  0.15938887  -0.00713615  1
  H+  H90  1  0.35034811  0.84216540  0.50068163  1
  H+  H91  1  0.20538354  0.72457346  0.74112394  1
  H+  H92  1  0.09462969  0.57742406  0.79706110  1
  H+  H93  1  0.45503009  0.22917195  0.65035414  1
  H+  H94  1  0.51960625  0.16922831  0.76013759  1
  H+  H95  1  0.53079131  0.48074888  0.98564640  1
  H+  H96  1  0.19965702  0.16208411  0.50114529  1
  H+  H97  1  0.16495178  0.32796755  0.51501009  1
  H+  H98  1  0.69309199  0.17780364  0.73742180  1
  H+  H99  1  0.70531795  0.51336459  0.00992170  1
  H+  H100  1  0.30825942  0.81850382  0.24909891  1
  H+  H101  1  0.29560221  0.48747012  0.26762171  1
  H+  H102  1  0.47517128  0.51489537  0.73076712  1
  H+  H103  1  0.48089859  0.30921557  0.73861825  1
  H+  H104  1  0.10769258  0.54804911  0.15059459  1
  H+  H105  1  0.19122470  0.15536497  0.98911429  1
  H+  H106  1  -0.11292965  0.10772339  0.34849069  1
  H+  H107  1  -0.03563018  0.47970744  0.26104719  1
  H+  H108  1  0.78638008  0.21136710  0.58857297  1
  H+  H109  1  0.54687128  0.43925280  0.39228402  1
  H+  H110  1  0.22967101  0.12490631  0.84705821  1
  H+  H111  1  0.37947825  0.57025420  0.48534104  1
  H+  H112  1  0.12017547  0.22842234  0.10066765  1
  H+  H113  1  0.14110867  0.89820380  0.08370366  1
  H+  H114  1  0.04964558  0.20837370  0.51037159  1
  H+  H115  1  0.23710741  0.45380522  0.90034382  1
  H+  H116  1  0.10222939  0.57205427  0.60112563  1
  H+  H117  1  0.03169987  0.17645202  0.24180502  1
  H+  H118  1  0.58270201  0.76779913  0.86999237  1
  H+  H119  1  0.24518201  0.77755382  0.89878431  1
  H+  H120  1  0.78395526  0.21936914  0.15238792  1
  H+  H121  1  0.87024410  0.78302538  0.41214711  1
  H+  H122  1  0.44826351  0.56990223  0.10615127  1
  H+  H123  1  0.55075549  0.44426134  0.84444411  1
  H+  H124  1  0.13649924  0.94566100  0.60918512  1
  H+  H125  1  0.84143237  1.01837808  0.26361626  1
  H+  H126  1  0.55682296  0.13815338  0.33482594  1
  H+  H127  1  0.12027579  0.88381629  0.61014936  1
  H+  H128  1  0.05533256  0.88426384  0.20885989  1
  H+  H129  1  0.48566079  0.09766219  0.50231416  1
  H+  H130  1  0.75917163  0.91357089  0.14326223  1
  H+  H131  1  0.45423175  0.82636301  0.53606246  1
  H+  H132  1  0.22672128  0.76781558  0.38831760  1
  H+  H133  1  0.78128382  0.56680676  0.60253629  1
  H+  H134  1  0.55169474  0.11365793  0.84514772  1
  H+  H135  1  0.78456687  0.56108112  0.15761983  1
  H+  H136  1  0.89581844  0.11723515  0.84793777  1
  H+  H137  1  0.57738663  0.74681278  0.54891513  1
  H+  H138  1  0.88328602  0.43755639  0.90228827  1
  H+  H139  1  0.88186447  0.46505367  0.40046805  1
  H+  H140  1  0.42061252  0.92979814  0.61540368  1
  H+  H141  1  0.21976003  0.45948568  0.41103363  1
  H+  H142  1  0.55979659  0.77634595  0.34811518  1
  H+  H143  1  0.18285040  0.50145949  0.50042888  1
  O2-  O144  1  0.11136774  0.22137088  0.21753511  1
  O2-  O145  1  0.11291376  0.23011545  0.72130617  1
  O2-  O146  1  0.10615420  0.55011484  0.21848377  1
  O2-  O147  1  0.11006496  0.55990292  0.73595727  1
  O2-  O148  1  0.13556007  0.90908533  0.19634187  1
  O2-  O149  1  0.10783902  0.88890284  0.78462995  1
  O2-  O150  1  0.46275256  0.25003183  0.18916448  1
  O2-  O151  1  0.44528795  0.22715051  0.71742490  1
  O2-  O152  1  0.44798285  0.56902704  0.21148857  1
  O2-  O153  1  0.43383400  0.55751562  0.71730677  1
  O2-  O154  1  0.45299527  0.89467490  0.21781205  1
  O2-  O155  1  0.40186149  0.96188157  0.67592281  1
  O2-  O156  1  0.78253174  0.21919445  0.22035053  1
  O2-  O157  1  0.77464439  0.22227553  0.71838489  1
  O2-  O158  1  0.78440014  0.56323075  0.22586933  1
  O2-  O159  1  0.76300220  0.54783795  0.70866724  1
  O2-  O160  1  0.77180050  0.90070464  0.23191035  1
  O2-  O161  1  0.78552973  0.89824386  0.71542576  1
  O2-  O162  1  0.24399546  0.11685568  0.24965310  1
  O2-  O163  1  0.22185411  0.11597640  0.77848247  1
  O2-  O164  1  0.21696435  0.44560484  0.29241941  1
  O2-  O165  1  0.21792574  0.44888248  0.78004978  1
  O2-  O166  1  0.22638332  0.77618741  0.26881628  1
  O2-  O167  1  0.24155563  0.80008796  0.77116090  1
  O2-  O168  1  0.56040998  0.12237812  0.27022110  1
  O2-  O169  1  0.55082328  0.11727255  0.77594607  1
  O2-  O170  1  0.55355192  0.45541242  0.27403281  1
  O2-  O171  1  0.54233647  0.44318084  0.77584658  1
  O2-  O172  1  0.56389718  0.78517118  0.28198008  1
  O2-  O173  1  0.60264030  0.75917783  0.80725063  1
  O2-  O174  1  0.89045127  0.10621059  0.28210607  1
  O2-  O175  1  0.89097874  0.11684737  0.78012313  1
  O2-  O176  1  0.88452366  0.44152493  0.28488004  1
  O2-  O177  1  0.86611503  0.43317481  0.77792292  1
  O2-  O178  1  0.90522077  0.77788600  0.29624825  1
  O2-  O179  1  0.87421351  0.76485588  0.76621047  1
  O2-  O180  1  0.23025038  0.11085875  0.48862060  1
  O2-  O181  1  0.23216471  0.12004909  0.95886350  1
  O2-  O182  1  0.22909753  0.46691868  0.47883075  1
  O2-  O183  1  0.24261190  0.45690043  0.96837234  1
  O2-  O184  1  0.22008419  0.77603082  0.45547034  1
  O2-  O185  1  0.23957618  0.77115489  0.96591259  1
  O2-  O186  1  0.53418161  0.17830061  0.48571748  1
  O2-  O187  1  0.56464127  0.12610931  0.95807164  1
  O2-  O188  1  0.54513213  0.43078222  0.45998883  1
  O2-  O189  1  0.57116157  0.44486339  0.95831057  1
  O2-  O190  1  0.49216660  0.69802132  0.55684068  1
  O2-  O191  1  0.55783689  0.77729818  0.99278154  1
  O2-  O192  1  0.73759566  -0.06525068  0.48713121  1
  O2-  O193  1  0.90071935  0.12097759  0.96842623  1
  O2-  O194  1  0.88417819  0.48100384  0.46716676  1
  O2-  O195  1  0.89442655  0.44098688  0.96942845  1
  O2-  O196  1  0.87784004  0.78808101  0.47979469  1
  O2-  O197  1  0.94377236  0.73838648  0.94326475  1
  O2-  O198  1  0.12143655  0.22745301  0.03226501  1
  O2-  O199  1  0.12642170  0.24601610  0.53617577  1
  O2-  O200  1  0.11553825  0.54811669  0.02883053  1
  O2-  O201  1  0.10375667  0.56656535  0.53457480  1
  O2-  O202  1  0.14200428  0.89277706  0.01514918  1
  O2-  O203  1  0.11206848  0.89267872  0.42878422  1
  O2-  O204  1  0.47788211  0.24351873  0.01470540  1
  O2-  O205  1  0.46837584  0.22765927  0.52720145  1
  O2-  O206  1  0.45261806  0.57672863  0.03561624  1
  O2-  O207  1  0.46449662  0.61900733  0.47910726  1
  O2-  O208  1  0.45684558  0.89329159  0.03214914  1
  O2-  O209  1  0.42780289  0.88236556  0.53127410  1
  O2-  O210  1  0.78012960  0.22270005  0.03112416  1
  O2-  O211  1  0.79461461  0.20641678  0.52235843  1
  O2-  O212  1  0.78367545  0.55141162  0.03833260  1
  O2-  O213  1  0.79157669  0.58079091  0.53379905  1
  O2-  O214  1  0.74044988  0.93195204  0.07191873  1
  O2-  O215  1  0.72360338  0.84690498  0.54587986  1
