# generated using pymatgen
data_H2O
_symmetry_space_group_name_H-M   'P 1'
_cell_length_a   13.52881561
_cell_length_b   13.52516045
_cell_length_c   14.69439852
_cell_angle_alpha   89.96190773
_cell_angle_beta   90.04688090
_cell_angle_gamma   120.01378405
_symmetry_Int_Tables_number   1
_chemical_formula_structural   H2O
_chemical_formula_sum   'H144 O72'
_cell_volume   2328.22069885
_cell_formula_units_Z   72
loop_
 _symmetry_equiv_pos_site_id
 _symmetry_equiv_pos_as_xyz
  1  'x, y, z'
loop_
 _atom_type_symbol
 _atom_type_oxidation_number
  H+  1.0
  O2-  -2.0
loop_
 _atom_site_type_symbol
 _atom_site_label
 _atom_site_symmetry_multiplicity
 _atom_site_fract_x
 _atom_site_fract_y
 _atom_site_fract_z
 _atom_site_occupancy
  H+  H0  1  0.81729561  0.53099195  0.25546310  1
  H+  H1  1  0.07809315  0.07348789  0.31050288  1
  H+  H2  1  0.80946893  0.16976270  0.74141457  1
  H+  H3  1  0.88031968  0.02103601  0.27297241  1
  H+  H4  1  0.14994870  0.49830524  -0.01489024  1
  H+  H5  1  0.16624522  0.22214819  0.76364686  1
  H+  H6  1  0.47033397  0.29873953  0.24752027  1
  H+  H7  1  0.50440003  0.48079483  0.26748432  1
  H+  H8  1  -0.03563901  0.13667462  -0.01279966  1
  H+  H9  1  0.15930719  0.34833257  -0.01768534  1
  H+  H10  1  0.36178368  0.51511520  0.25101739  1
  H+  H11  1  0.15548549  0.18425486  0.00602644  1
  H+  H12  1  0.46263380  0.95958967  0.01099706  1
  H+  H13  1  0.85163311  0.47921563  0.50487000  1
  H+  H14  1  0.81432601  0.16710461  -0.01371025  1
  H+  H15  1  0.96527371  0.14919399  0.76145762  1
  H+  H16  1  0.61538066  0.13456468  -0.00668570  1
  H+  H17  1  0.16869095  0.20992207  0.22798350  1
  H+  H18  1  0.95739815  0.46788450  0.76785513  1
  H+  H19  1  -0.13105730  0.71323716  0.00449488  1
  H+  H20  1  0.42334166  0.55546400  0.10472466  1
  H+  H21  1  0.21040548  0.83424119  0.75033502  1
  H+  H22  1  0.85120140  1.02292491  0.75736205  1
  H+  H23  1  0.14276515  0.51452626  0.73821588  1
  H+  H24  1  0.48807950  0.69326452  -0.00828157  1
  H+  H25  1  0.45348754  0.82851205  0.24759374  1
  H+  H26  1  0.31113667  0.15910743  0.49664461  1
  H+  H27  1  0.80332198  0.27897550  -0.02082766  1
  H+  H28  1  0.30732494  0.81161571  0.98881216  1
  H+  H29  1  0.79568189  0.83271975  0.74416856  1
  H+  H30  1  0.37100908  0.19782910  0.75248980  1
  H+  H31  1  0.10251760  0.54950227  0.16544691  1
  H+  H32  1  0.49176862  0.18196462  0.51695378  1
  H+  H33  1  0.79764357  0.96705399  0.01212668  1
  H+  H34  1  0.48768302  0.97477995  0.74041023  1
  H+  H35  1  0.28115045  0.80190550  0.26356520  1
  H+  H36  1  0.22741850  0.44872338  0.41610303  1
  H+  H37  1  0.70616384  0.20070227  0.26729653  1
  H+  H38  1  1.00227271  0.88933809  0.75266735  1
  H+  H39  1  0.37844725  0.85068355  0.74136640  1
  H+  H40  1  0.18642977  0.80689459  0.99467214  1
  H+  H41  1  0.94166976  0.47526003  0.26609545  1
  H+  H42  1  0.41363444  0.86661543  0.15878643  1
  H+  H43  1  1.03513721  0.51931403  0.51970137  1
  H+  H44  1  0.50569617  0.83803557  0.48767874  1
  H+  H45  1  0.63190120  0.14854400  0.76588333  1
  H+  H46  1  0.15908688  -0.01746230  0.51304600  1
  H+  H47  1  0.80490468  0.29091403  0.51440745  1
  H+  H48  1  -0.02412256  0.81535866  0.26906853  1
  H+  H49  1  0.84495824  0.72393957  0.84696789  1
  H+  H50  1  -0.02460384  0.16549725  0.50082674  1
  H+  H51  1  0.06383368  0.85356031  0.01746457  1
  H+  H52  1  0.52379979  0.82197871  0.75008389  1
  H+  H53  1  0.32152850  0.17365947  0.99741568  1
  H+  H54  1  0.19314908  0.16214331  0.50385844  1
  H+  H55  1  0.34677197  0.51214899  1.01446847  1
  H+  H56  1  0.17426583  0.81607774  0.49287610  1
  H+  H57  1  0.69241830  0.85293894  0.73947174  1
  H+  H58  1  0.13919853  0.83640108  0.25752600  1
  H+  H59  1  0.80905454  0.37502487  0.29578927  1
  H+  H60  1  0.47965474  0.63146295  0.25014005  1
  H+  H61  1  0.20921823  0.04689732  1.00201693  1
  H+  H62  1  0.11889108  0.23580308  0.60819984  1
  H+  H63  1  0.84827614  0.72669403  0.50068602  1
  H+  H64  1  0.82440949  -0.01450591  0.51389376  1
  H+  H65  1  0.04951888  0.19615230  0.23463079  1
  H+  H66  1  0.12978708  0.95359113  0.25897571  1
  H+  H67  1  0.53758214  0.10318133  0.90703330  1
  H+  H68  1  0.84928904  0.84527833  0.49319387  1
  H+  H69  1  0.18485973  0.37615080  0.26572756  1
  H+  H70  1  0.60223764  0.81544491  0.99418117  1
  H+  H71  1  1.03792954  0.52920502  0.99234936  1
  H+  H72  1  0.17514170  0.68635249  0.76078359  1
  H+  H73  1  0.47611228  -0.00712591  0.50841258  1
  H+  H74  1  0.13187618  0.62878695  0.25279445  1
  H+  H75  1  0.80287149  0.58068940  0.44157341  1
  H+  H76  1  0.51822744  0.35783047  0.50025675  1
  H+  H77  1  0.55055218  0.12946954  0.42180651  1
  H+  H78  1  0.52806469  0.42308443  0.96807828  1
  H+  H79  1  0.81797170  0.54036444  0.03155070  1
  H+  H80  1  0.29621622  0.82500406  0.49141090  1
  H+  H81  1  0.46525023  0.84053221  0.00644153  1
  H+  H82  1  0.36560841  0.49983360  0.54959940  1
  H+  H83  1  0.21835421  0.77124986  0.85746578  1
  H+  H84  1  0.76577380  0.55727581  0.63758400  1
  H+  H85  1  0.18667570  0.48711927  0.50425615  1
  H+  H86  1  0.15809838  0.31155094  0.51844013  1
  H+  H87  1  0.61667359  0.81370507  0.27184866  1
  H+  H88  1  0.62303383  0.48321102  0.27011432  1
  H+  H89  1  0.17984668  0.49006372  0.27528246  1
  H+  H90  1  0.70545520  0.54614467  0.01896196  1
  H+  H91  1  0.51783302  0.49575654  0.77965246  1
  H+  H92  1  0.80733409  0.13993145  0.20346945  1
  H+  H93  1  0.71471379  0.22071988  0.37386886  1
  H+  H94  1  0.02072183  0.85492360  0.78115047  1
  H+  H95  1  0.77250775  0.64341367  0.76288648  1
  H+  H96  1  0.35658713  0.17995796  0.24161339  1
  H+  H97  1  0.48293669  0.50590168  0.53389945  1
  H+  H98  1  0.80279736  0.84307950  0.24078197  1
  H+  H99  1  0.77743357  0.57849967  0.16667081  1
  H+  H100  1  0.15280744  0.64024824  0.51726775  1
  H+  H101  1  0.48670225  0.20382523  0.01401034  1
  H+  H102  1  0.85220071  0.15782910  0.48982293  1
  H+  H103  1  0.22895676  0.99225149  0.72943076  1
  H+  H104  1  0.25402547  0.41118476  0.73374638  1
  H+  H105  1  0.51879162  0.15756080  0.76540043  1
  H+  H106  1  0.54672253  0.43653645  0.41037340  1
  H+  H107  1  0.84520543  0.34433408  0.77656434  1
  H+  H108  1  0.47587103  0.31869354  0.73083336  1
  H+  H109  1  0.91162134  0.83895154  0.96401643  1
  H+  H110  1  0.47716460  0.48460616  0.67316756  1
  H+  H111  1  0.74904600  0.16944369  0.12411241  1
  H+  H112  1  0.19396695  0.41582670  0.88762812  1
  H+  H113  1  0.65366830  0.61539840  0.86721467  1
  H+  H114  1  0.89314085  0.45107801  0.41419703  1
  H+  H115  1  0.12600668  0.04689371  0.79389516  1
  H+  H116  1  0.76242686  0.89587377  0.16216100  1
  H+  H117  1  0.88854990  0.78417575  0.36178895  1
  H+  H118  1  0.78230931  0.90050573  0.60067664  1
  H+  H119  1  0.76980621  0.21219405  0.65437326  1
  H+  H120  1  0.22051755  0.11788571  0.86738164  1
  H+  H121  1  0.11114054  0.56428671  0.65166128  1
  H+  H122  1  0.17240516  0.91089679  0.64106079  1
  H+  H123  1  0.88638633  0.09423953  0.89666625  1
  H+  H124  1  0.11280886  0.22794973  0.09033957  1
  H+  H125  1  0.61966237  0.83195874  0.49381037  1
  H+  H126  1  0.43335521  0.90549591  0.59259831  1
  H+  H127  1  0.44420633  0.22462973  0.60280857  1
  H+  H128  1  0.94874212  0.59816641  0.93592115  1
  H+  H129  1  0.67540277  0.17456362  0.51349784  1
  H+  H130  1  0.84059637  0.68256398  0.26687458  1
  H+  H131  1  0.13331362  0.89013374  0.10970024  1
  H+  H132  1  0.92526422  0.10505133  0.36043656  1
  H+  H133  1  0.55275846  0.77857118  0.84056559  1
  H+  H134  1  0.68755716  0.50994488  0.49627219  1
  H+  H135  1  0.16940963  0.63845997  -0.00466094  1
  H+  H136  1  0.18964811  0.09978428  0.36586493  1
  H+  H137  1  0.44482799  0.24313658  0.10029338  1
  H+  H138  1  0.90057993  0.47203189  0.89995626  1
  H+  H139  1  0.03709992  0.86835518  0.52161064  1
  H+  H140  1  0.53859498  0.77512306  0.36126169  1
  H+  H141  1  0.20563785  0.76671436  0.35627029  1
  H+  H142  1  0.65375847  0.50277207  0.69791616  1
  H+  H143  1  0.76068642  0.83525737  0.02103911  1
  O2-  O144  1  0.12591381  0.24656492  0.20563334  1
  O2-  O145  1  0.12218562  0.25610305  0.73530519  1
  O2-  O146  1  0.09165023  0.54629900  0.23135725  1
  O2-  O147  1  0.11235682  0.56460243  0.72174476  1
  O2-  O148  1  0.09515703  0.87423062  0.23314362  1
  O2-  O149  1  0.21742110  0.92262684  0.69899745  1
  O2-  O150  1  0.43195056  0.22450150  0.21460870  1
  O2-  O151  1  0.44846669  0.23450457  0.72789292  1
  O2-  O152  1  0.44059013  0.55120806  0.22557158  1
  O2-  O153  1  0.51087252  0.45661022  0.72106169  1
  O2-  O154  1  0.40602472  0.86092675  0.22559638  1
  O2-  O155  1  0.45310665  0.89659627  0.71281771  1
  O2-  O156  1  0.73558441  0.13485058  0.18557832  1
  O2-  O157  1  0.77104187  0.21287221  0.72254546  1
  O2-  O158  1  0.78164684  0.57949856  0.23546029  1
  O2-  O159  1  0.73852759  0.53762031  0.70007890  1
  O2-  O160  1  0.77159202  0.89375016  0.22936825  1
  O2-  O161  1  0.77619701  0.88895848  0.71927600  1
  O2-  O162  1  0.15492097  0.08183752  0.30301092  1
  O2-  O163  1  0.20310403  0.11275400  0.79933397  1
  O2-  O164  1  0.22306641  0.45245761  0.29575207  1
  O2-  O165  1  0.18043176  0.37776264  0.76630253  1
  O2-  O166  1  0.19869757  0.76385070  0.28804978  1
  O2-  O167  1  0.21949187  0.76884761  0.78717398  1
  O2-  O168  1  0.70445783  0.25144410  0.31661998  1
  O2-  O169  1  0.55097754  0.11004707  0.78778496  1
  O2-  O170  1  0.54388864  0.43976545  0.29212245  1
  O2-  O171  1  0.57590176  0.55882537  0.89238154  1
  O2-  O172  1  0.53672473  0.76700102  0.29178998  1
  O2-  O173  1  0.56515891  0.78424000  0.77401234  1
  O2-  O174  1  0.94737118  0.09044048  0.29888226  1
  O2-  O175  1  0.88624090  0.10269485  0.78374090  1
  O2-  O176  1  0.86950499  0.46023458  0.29600470  1
  O2-  O177  1  0.89492116  0.41791364  0.80907364  1
  O2-  O178  1  0.89055986  0.77469439  0.29225743  1
  O2-  O179  1  0.77816370  0.70330475  0.80874463  1
  O2-  O180  1  0.22791511  0.11866157  0.47722821  1
  O2-  O181  1  0.23804171  0.12431255  0.97624605  1
  O2-  O182  1  0.22443711  0.44399345  0.48390861  1
  O2-  O183  1  0.19294692  0.42755396  0.95416928  1
  O2-  O184  1  0.21320907  0.77406141  0.47260666  1
  O2-  O185  1  0.22184528  0.76482279  0.96452123  1
  O2-  O186  1  0.55462628  0.12578155  0.48792990  1
  O2-  O187  1  0.53425780  0.10078209  0.97509687  1
  O2-  O188  1  0.55891066  0.43979914  0.47758714  1
  O2-  O189  1  0.60274605  0.48088348  0.94316012  1
  O2-  O190  1  0.54205287  0.79319863  0.46827199  1
  O2-  O191  1  0.52610164  0.77333428  0.96559896  1
  O2-  O192  1  0.89881685  0.12224136  0.47132933  1
  O2-  O193  1  0.88355084  0.09512341  0.96529272  1
  O2-  O194  1  0.89564265  0.44401388  0.48162810  1
  O2-  O195  1  0.92398715  0.52135808  0.95901591  1
  O2-  O196  1  0.88971413  0.80206603  0.47056117  1
  O2-  O197  1  0.92947438  0.77753081  0.96724652  1
  O2-  O198  1  0.10784793  0.21953010  0.02234017  1
  O2-  O199  1  0.11738366  0.22975450  0.54127399  1
  O2-  O200  1  0.11997807  0.55270500  0.01306538  1
  O2-  O201  1  0.11494595  0.56112913  0.54422000  1
  O2-  O202  1  0.14285852  0.89316520  0.04243933  1
  O2-  O203  1  0.11889326  0.90191598  0.53754193  1
  O2-  O204  1  0.44927252  0.24795671  0.03194595  1
  O2-  O205  1  0.44530946  0.22397650  0.53536953  1
  O2-  O206  1  0.42325381  0.56496910  0.03765056  1
  O2-  O207  1  0.44054263  0.52556914  0.57825311  1
  O2-  O208  1  0.42052942  0.87719752  0.02998331  1
  O2-  O209  1  0.42837055  0.90751082  0.52533195  1
  O2-  O210  1  0.76873439  0.20342139  0.00664700  1
  O2-  O211  1  0.76383029  0.20888434  0.53019159  1
  O2-  O212  1  0.78041394  0.58255803  0.05365132  1
  O2-  O213  1  0.77534895  0.56149532  0.50401790  1
  O2-  O214  1  0.74430371  0.89298093  0.04414773  1
  O2-  O215  1  0.78359784  0.90320002  0.53254708  1
