# generated using pymatgen
data_H2O
_symmetry_space_group_name_H-M   'P 1'
_cell_length_a   13.50818978
_cell_length_b   13.50550933
_cell_length_c   14.69051847
_cell_angle_alpha   89.99146712
_cell_angle_beta   89.99362860
_cell_angle_gamma   119.99797286
_symmetry_Int_Tables_number   1
_chemical_formula_structural   H2O
_chemical_formula_sum   'H144 O72'
_cell_volume   2321.05126190
_cell_formula_units_Z   72
loop_
 _symmetry_equiv_pos_site_id
 _symmetry_equiv_pos_as_xyz
  1  'x, y, z'
loop_
 _atom_type_symbol
 _atom_type_oxidation_number
  H+  1.0
  O2-  -2.0
loop_
 _atom_site_type_symbol
 _atom_site_label
 _atom_site_symmetry_multiplicity
 _atom_site_fract_x
 _atom_site_fract_y
 _atom_site_fract_z
 _atom_site_occupancy
  H+  H0  1  0.20943036  0.49285976  1.00739967  1
  H+  H1  1  0.80611865  0.50920456  1.00037760  1
  H+  H2  1  0.13101579  0.28638868  0.23224295  1
  H+  H3  1  0.86366601  0.08167748  0.85179434  1
  H+  H4  1  0.88057388  0.09928613  0.35442996  1
  H+  H5  1  0.37897971  0.52791516  0.50510990  1
  H+  H6  1  0.51596660  0.83129316  -0.00958378  1
  H+  H7  1  0.54049239  0.72812647  0.99150085  1
  H+  H8  1  0.82176333  0.50658864  0.23419246  1
  H+  H9  1  0.84200784  0.12092602  0.48369229  1
  H+  H10  1  0.91078123  0.60888635  0.46287989  1
  H+  H11  1  0.51536476  0.03624120  0.26461871  1
  H+  H12  1  0.48910603  0.24362486  0.63758238  1
  H+  H13  1  0.30160331  0.16712362  0.25107569  1
  H+  H14  1  0.98125382  0.45470405  0.47677196  1
  H+  H15  1  0.95584006  0.13414398  0.77098861  1
  H+  H16  1  0.82187164  0.16451061  0.01325451  1
  H+  H17  1  0.46148378  0.19232579  0.23389614  1
  H+  H18  1  0.63539969  0.15417364  0.26433673  1
  H+  H19  1  0.81313856  0.95400636  0.74153093  1
  H+  H20  1  0.08754689  0.19255152  0.65499782  1
  H+  H21  1  0.81448759  0.16852198  0.24982838  1
  H+  H22  1  0.43123649  0.17205885  1.02035512  1
  H+  H23  1  0.52581129  0.16238071  0.48713666  1
  H+  H24  1  0.17349305  0.14667338  0.23530522  1
  H+  H25  1  0.11070847  0.27428594  0.01409120  1
  H+  H26  1  0.18534835  0.68554922  0.77856207  1
  H+  H27  1  0.07857119  0.54288472  0.03048988  1
  H+  H28  1  0.23431907  0.44761596  0.33644451  1
  H+  H29  1  0.16596464  0.48801244  0.24133419  1
  H+  H30  1  0.31188984  0.48065745  0.24692807  1
  H+  H31  1  0.68642470  0.52193490  0.75863965  1
  H+  H32  1  0.70160253  0.85809463  0.24695943  1
  H+  H33  1  0.14453229  0.13329639  0.00386550  1
  H+  H34  1  0.62392124  0.46866097  0.26028567  1
  H+  H35  1  0.50298182  0.63746303  0.50809193  1
  H+  H36  1  0.50482872  0.48703997  0.76393181  1
  H+  H37  1  0.39297563  0.20793882  0.70822397  1
  H+  H38  1  0.51605118  0.14499091  0.76261649  1
  H+  H39  1  0.81852738  0.17604280  0.72730099  1
  H+  H40  1  0.22453844  0.13078221  0.48042630  1
  H+  H41  1  0.12821268  -0.04111206  1.01517524  1
  H+  H42  1  0.46480772  0.96456595  0.01824856  1
  H+  H43  1  1.14799644  0.61910838  0.49163554  1
  H+  H44  1  0.83011552  0.68795358  0.77550105  1
  H+  H45  1  0.89472419  0.78893097  0.40732617  1
  H+  H46  1  0.48684672  0.51462977  0.24871407  1
  H+  H47  1  0.85925374  0.34911024  0.24569585  1
  H+  H48  1  0.21554868  1.01133459  0.51323012  1
  H+  H49  1  0.84852726  0.83528511  0.48870427  1
  H+  H50  1  0.30194315  0.82668971  0.00984442  1
  H+  H51  1  0.50985771  0.47364246  0.49048466  1
  H+  H52  1  0.51268413  0.70077854  0.75807373  1
  H+  H53  1  0.81875808  0.85690949  0.24491883  1
  H+  H54  1  0.01705465  0.82983150  0.74105431  1
  H+  H55  1  0.19830713  0.83222165  0.26941527  1
  H+  H56  1  1.00932943  0.51305444  0.72984561  1
  H+  H57  1  0.83918971  0.68698888  -0.01147686  1
  H+  H58  1  0.55270495  0.43817712  0.40065939  1
  H+  H59  1  0.97172589  0.82114604  0.26065122  1
  H+  H60  1  0.17944651  0.17643035  0.36623205  1
  H+  H61  1  0.81448272  0.27066768  0.49056512  1
  H+  H62  1  0.12528858  0.50998537  0.72016851  1
  H+  H63  1  0.64284968  0.14429007  0.48452469  1
  H+  H64  1  0.85069456  0.35105886  0.98454829  1
  H+  H65  1  0.22734008  0.77120612  0.91951613  1
  H+  H66  1  0.13789206  0.16974853  0.74570894  1
  H+  H67  1  0.85444319  0.70127481  0.25847428  1
  H+  H68  1  0.19032613  0.49781230  0.47844772  1
  H+  H69  1  0.65218248  0.81430396  0.48843207  1
  H+  H70  1  0.12513230  0.94970227  0.74417223  1
  H+  H71  1  0.35912590  0.51988147  0.73040180  1
  H+  H72  1  0.03097198  0.48627450  0.23738994  1
  H+  H73  1  0.68763346  0.50830441  0.00686661  1
  H+  H74  1  0.50258947  0.30217616  0.50159794  1
  H+  H75  1  0.33465315  0.79334615  0.50087639  1
  H+  H76  1  0.51840872  0.70924621  0.26323885  1
  H+  H77  1  0.18611353  0.09720264  0.87388442  1
  H+  H78  1  0.84175078  0.02615535  0.26024755  1
  H+  H79  1  0.93165090  0.10717824  0.99562163  1
  H+  H80  1  0.41462512  0.22631492  0.11907524  1
  H+  H81  1  0.16426541  0.35357217  0.74207698  1
  H+  H82  1  0.27165246  0.14846564  1.00747240  1
  H+  H83  1  0.81948121  0.29490900  0.71760851  1
  H+  H84  1  0.92091730  0.60126944  0.51215223  1
  H+  H85  1  0.49124047  0.86391173  0.24878078  1
  H+  H86  1  0.04298438  0.85067918  0.50934012  1
  H+  H87  1  0.13645301  0.84415314  0.01624294  1
  H+  H88  1  0.83370854  0.81252459  0.77167131  1
  H+  H89  1  0.48218976  0.84948763  0.73355268  1
  H+  H90  1  0.82661837  0.47900052  0.74915730  1
  H+  H91  1  0.95112580  0.46734903  0.94272454  1
  H+  H92  1  0.51817814  0.37513576  0.75913516  1
  H+  H93  1  0.49733265  0.35286949  0.25493737  1
  H+  H94  1  0.57032273  0.15288675  0.99188311  1
  H+  H95  1  0.69405206  0.83793465  0.74200667  1
  H+  H96  1  0.38867494  0.17060337  0.51803414  1
  H+  H97  1  0.18883744  0.66594540  0.02511392  1
  H+  H98  1  0.50508070  0.53038160  0.01712996  1
  H+  H99  1  0.30921478  0.79607563  0.77785410  1
  H+  H100  1  0.71744605  0.18111989  0.00664083  1
  H+  H101  1  0.68187743  0.54344239  0.52730881  1
  H+  H102  1  0.15388963  -0.02096267  0.24989907  1
  H+  H103  1  0.00648741  0.17088956  0.24251882  1
  H+  H104  1  0.49566457  0.35772922  1.00089496  1
  H+  H105  1  0.11203386  0.89547264  0.16392024  1
  H+  H106  1  0.26461728  0.10790933  0.79127499  1
  H+  H107  1  0.83401911  0.99754154  0.48133898  1
  H+  H108  1  0.79453860  0.66898466  0.53193654  1
  H+  H109  1  0.37086873  0.86347799  0.24849903  1
  H+  H110  1  0.55955750  0.11430762  0.38658725  1
  H+  H111  1  0.18198426  0.76891493  0.48124073  1
  H+  H112  1  0.44887079  0.91918595  0.49901866  1
  H+  H113  1  0.23233970  0.76889239  0.34618437  1
  H+  H114  1  0.50786871  0.09100710  0.89871027  1
  H+  H115  1  0.44470869  0.89257491  0.11048203  1
  H+  H116  1  0.54034142  0.43536264  0.90934130  1
  H+  H117  1  0.44650040  0.55897948  0.64667368  1
  H+  H118  1  0.87762942  0.77046065  0.88647974  1
  H+  H119  1  0.26248099  0.43915746  0.93852604  1
  H+  H120  1  0.75888710  0.57528946  0.66735429  1
  H+  H121  1  0.08038487  0.16481936  0.43091159  1
  H+  H122  1  0.71546539  0.91887079  0.98904376  1
  H+  H123  1  0.39172577  0.53472534  0.03027512  1
  H+  H124  1  0.76761076  0.87771154  0.58107598  1
  H+  H125  1  0.51859329  0.79664156  0.49203126  1
  H+  H126  1  0.85834703  0.44276842  0.46600010  1
  H+  H127  1  0.42572910  0.87099179  0.64639319  1
  H+  H128  1  0.90784788  0.42642527  0.33380025  1
  H+  H129  1  0.77696504  0.20676539  0.15782846  1
  H+  H130  1  0.17680094  0.43764686  0.82108738  1
  H+  H131  1  0.13659174  0.55861252  0.15785124  1
  H+  H132  1  0.11279018  0.86939111  0.59980926  1
  H+  H133  1  0.77613941  0.54508536  0.14974652  1
  H+  H134  1  0.06861389  0.19809525  0.10359313  1
  H+  H135  1  0.46417624  0.56823468  0.15940859  1
  H+  H136  1  0.77242471  0.20206786  0.58610365  1
  H+  H137  1  0.85479217  0.42076574  0.83054293  1
  H+  H138  1  0.49459532  0.01722965  0.76408128  1
  H+  H139  1  0.55996971  0.78168086  0.35436516  1
  H+  H140  1  0.09013445  0.53696949  0.58525475  1
  H+  H141  1  0.28982626  0.59065053  0.42482199  1
  H+  H142  1  0.96208186  0.81058382  0.99113220  1
  H+  H143  1  0.55459127  0.78561083  0.84473942  1
  O2-  O144  1  0.08302749  0.20789712  0.20871520  1
  O2-  O145  1  0.09863232  0.21012645  0.71988968  1
  O2-  O146  1  0.11874769  0.53027147  0.22271309  1
  O2-  O147  1  0.08945290  0.55653104  0.70666956  1
  O2-  O148  1  0.11452780  0.89601225  0.23110339  1
  O2-  O149  1  0.09626215  0.87299521  0.71860734  1
  O2-  O150  1  0.42525147  0.23551242  0.21307647  1
  O2-  O151  1  0.47593725  0.24486544  0.70571947  1
  O2-  O152  1  0.44775545  0.55717701  0.22601896  1
  O2-  O153  1  0.44129551  0.55824078  0.71560503  1
  O2-  O154  1  0.45348803  0.90619844  0.22436396  1
  O2-  O155  1  0.43461493  0.88315474  0.71388908  1
  O2-  O156  1  0.77588749  0.21237868  0.22479858  1
  O2-  O157  1  0.78889772  0.21754834  0.69153172  1
  O2-  O158  1  0.77791372  0.54440407  0.21723328  1
  O2-  O159  1  0.76682832  0.56177339  0.73522522  1
  O2-  O160  1  0.78172036  0.90082783  0.22474301  1
  O2-  O161  1  0.77626532  0.87195669  0.72373815  1
  O2-  O162  1  0.21688660  0.12006706  0.27222255  1
  O2-  O163  1  0.18864436  0.09567759  0.80405255  1
  O2-  O164  1  0.22865036  0.43686819  0.26837948  1
  O2-  O165  1  0.20131912  0.43648098  0.75899740  1
  O2-  O166  1  0.24396776  0.79445463  0.28082874  1
  O2-  O167  1  0.24604202  0.74218390  0.81843395  1
  O2-  O168  1  0.55626253  0.11719479  0.28983918  1
  O2-  O169  1  0.53017130  0.09132142  0.79802696  1
  O2-  O170  1  0.54497857  0.43502655  0.28375868  1
  O2-  O171  1  0.54544708  0.44918760  0.79153853  1
  O2-  O172  1  0.55648803  0.78896229  0.28591515  1
  O2-  O173  1  0.55578994  0.78257055  0.77683617  1
  O2-  O174  1  0.88093155  0.10874098  0.28457369  1
  O2-  O175  1  0.87310897  0.09213774  0.78471105  1
  O2-  O176  1  0.90847213  0.43184505  0.26520571  1
  O2-  O177  1  0.86613667  0.43457521  0.76452885  1
  O2-  O178  1  0.88972793  0.78098345  0.28022966  1
  O2-  O179  1  0.87270298  0.77002602  0.79965945  1
  O2-  O180  1  0.26779867  0.09649506  0.50828673  1
  O2-  O181  1  0.19130142  0.09950161  0.98133345  1
  O2-  O182  1  0.25925744  0.51029317  0.44140721  1
  O2-  O183  1  0.23303466  0.43390606  0.99992380  1
  O2-  O184  1  0.21775615  0.72513104  0.45938646  1
  O2-  O185  1  0.22029562  0.78065262  0.98776011  1
  O2-  O186  1  0.55936148  0.11170300  0.45976849  1
  O2-  O187  1  0.49764634  0.09244010  0.96906845  1
  O2-  O188  1  0.55296393  0.43541827  0.46904651  1
  O2-  O189  1  0.54672754  0.43779756  0.97720113  1
  O2-  O190  1  0.56275359  0.76287698  0.46587366  1
  O2-  O191  1  0.56621019  0.80398936  0.96340631  1
  O2-  O192  1  0.88248570  0.08297130  0.45888840  1
  O2-  O193  1  0.85136090  0.07196592  0.96989523  1
  O2-  O194  1  0.90058767  0.40553911  0.44599283  1
  O2-  O195  1  0.86969736  0.42638713  0.95633804  1
  O2-  O196  1  0.89702963  0.79657193  0.47446770  1
  O2-  O197  1  0.88111425  0.76826446  0.96474458  1
  O2-  O198  1  0.06526386  0.19403641  0.03384650  1
  O2-  O199  1  0.16367198  0.20241557  0.42531633  1
  O2-  O200  1  0.15859728  0.58144451  0.04838448  1
  O2-  O201  1  0.09562461  0.52856746  0.51862381  1
  O2-  O202  1  0.08803525  0.87705480  0.03557097  1
  O2-  O203  1  0.12105654  0.87308890  0.53227273  1
  O2-  O204  1  0.40361468  0.22239422  0.04374851  1
  O2-  O205  1  0.47785166  0.22390709  0.52834335  1
  O2-  O206  1  0.47468880  0.57979678  0.04113795  1
  O2-  O207  1  0.45518260  0.55600295  0.53367966  1
  O2-  O208  1  0.43678682  0.88567616  0.04200080  1
  O2-  O209  1  0.41755993  0.84480942  0.52872548  1
  O2-  O210  1  0.79443336  0.21923784  0.03175647  1
  O2-  O211  1  0.76247069  0.19348914  0.51694314  1
  O2-  O212  1  0.77071080  0.55244682  0.02480763  1
  O2-  O213  1  0.73990855  0.60107210  0.56857586  1
  O2-  O214  1  0.79408577  0.96075933  0.01606550  1
  O2-  O215  1  0.76599396  0.87740109  0.51443213  1
