# generated using pymatgen
data_H2O
_symmetry_space_group_name_H-M   'P 1'
_cell_length_a   13.51617868
_cell_length_b   13.51718037
_cell_length_c   14.70244753
_cell_angle_alpha   89.98490776
_cell_angle_beta   89.97654025
_cell_angle_gamma   119.99650934
_symmetry_Int_Tables_number   1
_chemical_formula_structural   H2O
_chemical_formula_sum   'H144 O72'
_cell_volume   2326.35226788
_cell_formula_units_Z   72
loop_
 _symmetry_equiv_pos_site_id
 _symmetry_equiv_pos_as_xyz
  1  'x, y, z'
loop_
 _atom_type_symbol
 _atom_type_oxidation_number
  H+  1.0
  O2-  -2.0
loop_
 _atom_site_type_symbol
 _atom_site_label
 _atom_site_symmetry_multiplicity
 _atom_site_fract_x
 _atom_site_fract_y
 _atom_site_fract_z
 _atom_site_occupancy
  H+  H0  1  0.14346078  0.15978299  1.00896229  1
  H+  H1  1  0.70558937  0.17627696  0.74009531  1
  H+  H2  1  -0.04335611  0.13942667  -0.01992981  1
  H+  H3  1  0.84927478  0.49194676  0.74167517  1
  H+  H4  1  0.69625682  0.17883268  1.00760059  1
  H+  H5  1  0.17506081  0.86003869  0.76914025  1
  H+  H6  1  0.81574099  0.16540347  0.24102867  1
  H+  H7  1  0.18402000  0.03396493  0.98633202  1
  H+  H8  1  0.31846554  0.20697211  0.72080927  1
  H+  H9  1  0.48246931  0.95128139  0.24864971  1
  H+  H10  1  0.47430765  0.53957345  0.00591857  1
  H+  H11  1  0.80942358  0.27823601  0.22655082  1
  H+  H12  1  0.81224603  0.30819237  0.73511456  1
  H+  H13  1  0.52097490  0.38036886  0.48503741  1
  H+  H14  1  0.50401554  0.96091406  0.51148364  1
  H+  H15  1  0.88844689  0.11655082  0.35686804  1
  H+  H16  1  0.51018423  0.41245945  0.96233623  1
  H+  H17  1  0.84066011  0.83372858  0.76791917  1
  H+  H18  1  0.46855467  0.61006459  0.56007150  1
  H+  H19  1  0.04527524  0.11092392  0.08096678  1
  H+  H20  1  0.46471896  0.10628033  0.75308013  1
  H+  H21  1  0.63828814  0.15839816  0.49232804  1
  H+  H22  1  0.29735427  0.15866128  0.48378472  1
  H+  H23  1  0.49504261  0.83759488  0.51015950  1
  H+  H24  1  0.03016204  0.51316793  0.01790308  1
  H+  H25  1  0.28925254  0.48248515  0.99523293  1
  H+  H26  1  0.19239083  0.49828137  0.27143661  1
  H+  H27  1  0.44331286  0.21821971  0.71631139  1
  H+  H28  1  0.53088792  0.73209069  0.39656255  1
  H+  H29  1  0.84785584  0.14451812  0.49404199  1
  H+  H30  1  0.49529776  0.15369048  0.78760466  1
  H+  H31  1  0.17643033  0.36487857  0.75001851  1
  H+  H32  1  0.80661635  0.96582876  0.00378801  1
  H+  H33  1  0.18139317  0.82015414  0.00691317  1
  H+  H34  1  0.95527485  0.38769639  0.92038005  1
  H+  H35  1  0.17181446  0.81952836  0.48651704  1
  H+  H36  1  0.47635448  0.82078746  0.73778127  1
  H+  H37  1  0.15242913  -0.02210802  0.50818702  1
  H+  H38  1  0.83381629  0.45310823  0.24914018  1
  H+  H39  1  0.17993436  0.70493858  0.49020502  1
  H+  H40  1  0.29940200  0.14930483  0.99110090  1
  H+  H41  1  -0.03687258  0.13898158  0.49490625  1
  H+  H42  1  0.84087684  0.14559901  0.98647593  1
  H+  H43  1  0.52040119  0.13395325  0.26968908  1
  H+  H44  1  0.71361967  0.51830982  0.49402116  1
  H+  H45  1  0.46283786  0.88465540  0.65099338  1
  H+  H46  1  0.59064413  0.20825624  0.91672423  1
  H+  H47  1  0.89419890  0.79617233  0.89165974  1
  H+  H48  1  0.71871593  0.53913960  0.72703186  1
  H+  H49  1  0.84411167  0.88799913  0.24368017  1
  H+  H50  1  0.53858366  -0.02279385  0.76785375  1
  H+  H51  1  0.82447584  0.73973558  0.27306540  1
  H+  H52  1  0.62607499  0.79977803  0.76201233  1
  H+  H53  1  0.68999494  0.53534779  0.02011731  1
  H+  H54  1  0.16151360  0.53153227  0.74574661  1
  H+  H55  1  1.03740976  0.84910015  0.24364262  1
  H+  H56  1  0.96722278  0.84888797  0.76514530  1
  H+  H57  1  0.32382776  0.82621397  1.02566899  1
  H+  H58  1  0.46638465  0.84281129  0.01856007  1
  H+  H59  1  0.17528480  0.69470512  0.01579894  1
  H+  H60  1  0.48822975  0.28890373  0.25441716  1
  H+  H61  1  0.03182846  0.51059942  0.24624986  1
  H+  H62  1  0.17273690  0.36336879  -0.00702629  1
  H+  H63  1  0.14433286  0.18157289  0.50776624  1
  H+  H64  1  0.79757919  0.96557157  0.73244755  1
  H+  H65  1  0.18833998  1.02400750  0.26461440  1
  H+  H66  1  0.82449346  0.59829909  0.25126728  1
  H+  H67  1  0.85433049  0.70292526  0.48804175  1
  H+  H68  1  0.02961922  0.20280670  0.25130107  1
  H+  H69  1  0.30789842  0.13786513  0.27418758  1
  H+  H70  1  0.85505233  0.34589969  0.98851820  1
  H+  H71  1  0.62444659  0.46871217  0.25746118  1
  H+  H72  1  0.75785474  0.87867485  0.64795603  1
  H+  H73  1  0.48501781  0.25990536  0.03974271  1
  H+  H74  1  0.46866316  0.49563936  0.23560785  1
  H+  H75  1  0.49089288  0.78595733  0.27442352  1
  H+  H76  1  1.02564995  0.18867268  0.73363431  1
  H+  H77  1  0.35193401  0.50147074  0.24365150  1
  H+  H78  1  0.68627028  0.82713330  0.50423859  1
  H+  H79  1  0.61729806  0.81919630  0.99747968  1
  H+  H80  1  0.84352847  0.15470974  0.74948206  1
  H+  H81  1  0.52672060  0.51450563  0.73901754  1
  H+  H82  1  0.85682369  1.04421349  0.26335598  1
  H+  H83  1  0.14865115  0.51702201  0.01758849  1
  H+  H84  1  0.83763268  0.52536222  0.50074543  1
  H+  H85  1  0.35717867  0.83942092  0.24902245  1
  H+  H86  1  0.46882593  0.14101087  0.01968886  1
  H+  H87  1  0.47630796  0.63188173  0.72156641  1
  H+  H88  1  0.03306625  0.86089327  0.50858531  1
  H+  H89  1  0.00488575  0.50549393  0.51366493  1
  H+  H90  1  0.83775685  0.31253257  0.50647544  1
  H+  H91  1  0.18164570  0.70101820  0.26349513  1
  H+  H92  1  0.36483210  0.51287675  0.70746158  1
  H+  H93  1  0.57188484  0.08747962  0.89719492  1
  H+  H94  1  0.63528644  0.12805465  0.26121489  1
  H+  H95  1  0.16474880  0.52456369  0.52490417  1
  H+  H96  1  0.65581809  0.01741682  0.82486167  1
  H+  H97  1  0.54127401  0.50956710  0.47763151  1
  H+  H98  1  0.94193914  0.73288461  0.95242793  1
  H+  H99  1  0.80798553  0.64865850  0.02672602  1
  H+  H100  1  0.03752327  0.86979168  0.01468810  1
  H+  H101  1  0.17511594  0.36731880  0.49835941  1
  H+  H102  1  0.77191090  0.20324960  0.09970267  1
  H+  H103  1  0.13850570  -0.00021058  0.73030080  1
  H+  H104  1  0.49612163  0.70339885  1.00046675  1
  H+  H105  1  0.80409307  0.84771724  0.01221341  1
  H+  H106  1  0.18139137  0.37526992  0.27239961  1
  H+  H107  1  0.79988631  0.95392024  0.50527021  1
  H+  H108  1  0.22512518  0.45471279  0.41639298  1
  H+  H109  1  0.42952054  0.87442467  0.11729798  1
  H+  H110  1  0.21477106  0.10809351  0.39828164  1
  H+  H111  1  0.15396924  0.84357814  0.24115771  1
  H+  H112  1  0.21578206  0.78076109  0.35293482  1
  H+  H113  1  0.21721961  0.77205780  0.77125874  1
  H+  H114  1  0.10353654  0.22130186  0.59703516  1
  H+  H115  1  0.44408177  0.19723144  0.17283310  1
  H+  H116  1  0.48941744  0.66627412  0.26648677  1
  H+  H117  1  0.78761986  0.90879444  0.15592068  1
  H+  H118  1  0.09753808  0.90574935  0.65069388  1
  H+  H119  1  0.89590130  0.79590390  0.36368436  1
  H+  H120  1  0.51807641  0.39721744  0.75198868  1
  H+  H121  1  0.11431412  0.24607688  0.16583735  1
  H+  H122  1  0.48343746  0.19850028  0.50741544  1
  H+  H123  1  0.42639768  0.55261693  0.10300973  1
  H+  H124  1  0.87484341  0.10703462  0.83929254  1
  H+  H125  1  0.84285898  0.81656040  0.49423800  1
  H+  H126  1  0.54442292  0.75863331  0.85108291  1
  H+  H127  1  0.43010622  0.24630155  0.58376355  1
  H+  H128  1  0.56796223  0.49774068  0.88286795  1
  H+  H129  1  0.77178371  0.54705428  0.15288282  1
  H+  H130  1  0.55097900  0.44086974  0.34760111  1
  H+  H131  1  0.85262561  0.39102571  0.33327111  1
  H+  H132  1  0.22534479  0.44340859  0.83841751  1
  H+  H133  1  0.88108172  0.44920549  0.83385954  1
  H+  H134  1  0.79133230  0.56287844  0.63636837  1
  H+  H135  1  0.14844427  0.18776333  0.73410892  1
  H+  H136  1  0.11134541  0.55614967  0.15906694  1
  H+  H137  1  0.11546359  0.89880592  0.10439762  1
  H+  H138  1  0.78526722  0.23255748  0.59310397  1
  H+  H139  1  0.95696856  0.49809196  0.41620174  1
  H+  H140  1  0.21819342  0.13214581  0.82222495  1
  H+  H141  1  0.04665330  0.53683668  0.74274878  1
  H+  H142  1  0.13188384  0.57509157  0.61489348  1
  H+  H143  1  0.55717946  0.10592658  0.40734619  1
  O2-  O144  1  0.11087995  0.25153944  0.23184781  1
  O2-  O145  1  0.10521718  0.23296362  0.71192773  1
  O2-  O146  1  0.11213879  0.55876821  0.22714952  1
  O2-  O147  1  0.12822451  0.57914796  0.72562989  1
  O2-  O148  1  0.11433540  0.88459100  0.21597988  1
  O2-  O149  1  0.09273890  0.91421882  0.71757487  1
  O2-  O150  1  0.45356597  0.20563444  0.23950557  1
  O2-  O151  1  0.40731624  0.26100769  0.69464171  1
  O2-  O152  1  0.42988746  0.53710271  0.21299815  1
  O2-  O153  1  0.44439783  0.56012338  0.68479304  1
  O2-  O154  1  0.43714436  0.87154265  0.22400571  1
  O2-  O155  1  0.45758740  0.88013440  0.71949723  1
  O2-  O156  1  0.76897522  0.19615644  0.20960311  1
  O2-  O157  1  0.77919983  0.22841898  0.70996743  1
  O2-  O158  1  0.77153834  0.52723033  0.22061701  1
  O2-  O159  1  0.79543096  0.56152901  0.70372387  1
  O2-  O160  1  0.79704482  0.92027105  0.22247446  1
  O2-  O161  1  0.75621944  0.88274425  0.71576292  1
  O2-  O162  1  0.22622402  0.10176360  0.29098725  1
  O2-  O163  1  0.21155337  0.13462915  0.75613493  1
  O2-  O164  1  0.23112287  0.45714627  0.29413374  1
  O2-  O165  1  0.22467462  0.44689318  0.77153183  1
  O2-  O166  1  0.22248370  0.78248050  0.28263994  1
  O2-  O167  1  0.22116148  0.83588113  0.80535830  1
  O2-  O168  1  0.55723123  0.08863164  0.28867475  1
  O2-  O169  1  0.60436643  0.04535308  0.80843113  1
  O2-  O170  1  0.54450368  0.43053744  0.27942574  1
  O2-  O171  1  0.56546024  0.47798251  0.77228960  1
  O2-  O172  1  0.52304587  0.74014981  0.30035952  1
  O2-  O173  1  0.54554657  0.75082452  0.78416573  1
  O2-  O174  1  0.89280680  0.12481508  0.28882591  1
  O2-  O175  1  0.87235292  0.10375884  0.77161140  1
  O2-  O176  1  0.87818759  0.41589835  0.27106435  1
  O2-  O177  1  0.88563180  0.44659746  0.76724368  1
  O2-  O178  1  0.89921589  0.79923380  0.29345820  1
  O2-  O179  1  0.89111017  0.80974672  0.79786110  1
  O2-  O180  1  0.21513643  0.11353172  0.46745380  1
  O2-  O181  1  0.22177669  0.11557279  0.96545298  1
  O2-  O182  1  0.21773161  0.45015815  0.48360425  1
  O2-  O183  1  0.20895555  0.44185879  0.97038384  1
  O2-  O184  1  0.20363684  0.77611602  0.45541763  1
  O2-  O185  1  0.22392450  0.77774732  1.00039290  1
  O2-  O186  1  0.55650535  0.11482003  0.47471126  1
  O2-  O187  1  0.57044145  0.13766075  0.94921707  1
  O2-  O188  1  0.57178106  0.45952180  0.45917305  1
  O2-  O189  1  0.56053963  0.49379356  0.95202779  1
  O2-  O190  1  0.54421662  0.73506407  0.46932286  1
  O2-  O191  1  0.53747282  0.78248705  0.97425312  1
  O2-  O192  1  0.88138830  0.09786600  0.47208925  1
  O2-  O193  1  0.87632676  0.10293901  0.95806095  1
  O2-  O194  1  0.92755090  0.46889402  0.47680861  1
  O2-  O195  1  0.91237617  0.41596238  0.95436524  1
  O2-  O196  1  0.89010062  0.78479794  0.46817671  1
  O2-  O197  1  0.90451499  0.77797688  0.96228602  1
  O2-  O198  1  0.08494756  0.17609918  0.04001912  1
  O2-  O199  1  0.09908466  0.21766575  0.52861643  1
  O2-  O200  1  0.10888239  0.55638477  0.04370874  1
  O2-  O201  1  0.12554160  0.56807143  0.54626192  1
  O2-  O202  1  0.11805553  0.90317831  0.03570422  1
  O2-  O203  1  0.11226948  0.89754659  0.53239274  1
  O2-  O204  1  0.43168066  0.17943825  0.05139410  1
  O2-  O205  1  0.44476334  0.24393487  0.51663307  1
  O2-  O206  1  0.42323257  0.56367031  0.03492063  1
  O2-  O207  1  0.48897144  0.61291295  0.49457421  1
  O2-  O208  1  0.42177917  0.87616531  0.04776147  1
  O2-  O209  1  0.46888835  0.88500529  0.54061516  1
  O2-  O210  1  0.77602286  0.21299955  0.03114397  1
  O2-  O211  1  0.78893166  0.23194866  0.52515238  1
  O2-  O212  1  0.76547599  0.56931739  0.05003847  1
  O2-  O213  1  0.79354725  0.56379483  0.51722508  1
  O2-  O214  1  0.76518320  0.88838185  0.03295788  1
  O2-  O215  1  0.76483506  0.87413729  0.52952721  1
