# generated using pymatgen
data_H2O
_symmetry_space_group_name_H-M   'P 1'
_cell_length_a   13.51837515
_cell_length_b   13.51296781
_cell_length_c   14.69235523
_cell_angle_alpha   90.09071774
_cell_angle_beta   90.08308975
_cell_angle_gamma   120.02574226
_symmetry_Int_Tables_number   1
_chemical_formula_structural   H2O
_chemical_formula_sum   'H144 O72'
_cell_volume   2323.71346330
_cell_formula_units_Z   72
loop_
 _symmetry_equiv_pos_site_id
 _symmetry_equiv_pos_as_xyz
  1  'x, y, z'
loop_
 _atom_type_symbol
 _atom_type_oxidation_number
  H+  1.0
  O2-  -2.0
loop_
 _atom_site_type_symbol
 _atom_site_label
 _atom_site_symmetry_multiplicity
 _atom_site_fract_x
 _atom_site_fract_y
 _atom_site_fract_z
 _atom_site_occupancy
  H+  H0  1  0.84049420  0.46849621  0.98574114  1
  H+  H1  1  0.47853895  0.59346128  -0.03648590  1
  H+  H2  1  0.01898560  0.50072160  0.25446815  1
  H+  H3  1  0.71299846  -0.02910288  0.79698234  1
  H+  H4  1  0.44362910  0.15258047  0.04839437  1
  H+  H5  1  0.21558161  0.20751885  0.73091554  1
  H+  H6  1  0.64582314  0.16324652  0.76831742  1
  H+  H7  1  1.03729049  0.85339356  0.76598136  1
  H+  H8  1  0.84317062  0.81156876  0.99247826  1
  H+  H9  1  0.81261085  0.57119291  0.75334709  1
  H+  H10  1  0.49099199  0.19543456  0.25230326  1
  H+  H11  1  0.54798124  0.87345487  0.74008504  1
  H+  H12  1  0.02595515  0.85593990  0.01474340  1
  H+  H13  1  0.37168460  0.17892967  0.74577568  1
  H+  H14  1  0.51952754  0.84619598  0.47677574  1
  H+  H15  1  0.38829852  0.52359923  0.52716163  1
  H+  H16  1  0.69928842  0.50465310  0.01339745  1
  H+  H17  1  0.18754328  0.70007382  0.49662148  1
  H+  H18  1  0.36028730  0.17298696  0.25401364  1
  H+  H19  1  0.49252950  0.18510591  0.73956931  1
  H+  H20  1  0.88407520  1.04232602  0.25677526  1
  H+  H21  1  0.54681857  0.06582705  0.25354422  1
  H+  H22  1  0.17603684  0.02755451  1.00019694  1
  H+  H23  1  0.48723414  0.68068527  0.23780931  1
  H+  H24  1  0.89367128  0.50265974  0.66811909  1
  H+  H25  1  0.16130717  0.69698566  0.99916126  1
  H+  H26  1  0.20008339  0.48617213  0.76703786  1
  H+  H27  1  0.30300088  0.82446030  0.49096463  1
  H+  H28  1  0.83182037  0.86974714  0.49194110  1
  H+  H29  1  0.06276448  0.53297657  0.72853555  1
  H+  H30  1  0.44343804  0.52451989  0.66504132  1
  H+  H31  1  0.19775526  0.81299906  0.77975988  1
  H+  H32  1  0.21374831  0.37272234  0.76494542  1
  H+  H33  1  0.69226707  0.83224079  1.02333322  1
  H+  H34  1  0.52831940  0.04476584  0.48882452  1
  H+  H35  1  0.92968048  0.12918889  0.38665410  1
  H+  H36  1  0.84839150  0.62382351  0.52254685  1
  H+  H37  1  0.82998975  0.56040850  0.28367624  1
  H+  H38  1  0.87830542  0.05713021  0.47958470  1
  H+  H39  1  0.85289633  0.69887029  -0.01792176  1
  H+  H40  1  0.18909814  0.50193685  0.00652553  1
  H+  H41  1  0.16511880  0.81016843  0.26364051  1
  H+  H42  1  0.43458910  0.90734718  0.42725425  1
  H+  H43  1  0.84823856  0.20298257  0.44516669  1
  H+  H44  1  0.99577791  0.19813730  0.72299294  1
  H+  H45  1  0.31752965  0.82432649  0.75552446  1
  H+  H46  1  0.82438306  0.13090211  1.02822979  1
  H+  H47  1  0.85258055  0.72437602  0.24522535  1
  H+  H48  1  0.12843797  0.16797746  -0.00049630  1
  H+  H49  1  0.00608410  0.15661189  0.74986591  1
  H+  H50  1  0.81933936  0.29557319  0.02930161  1
  H+  H51  1  0.51489714  0.35029649  1.01165856  1
  H+  H52  1  0.85114551  0.31366301  0.33124735  1
  H+  H53  1  0.48466112  0.98343629  0.70678311  1
  H+  H54  1  -0.10286773  0.51534818  0.50814893  1
  H+  H55  1  0.48269300  0.48278680  0.76568951  1
  H+  H56  1  0.72612886  0.88824068  0.50248317  1
  H+  H57  1  0.05418634  0.52597590  0.50547993  1
  H+  H58  1  0.49595520  0.49868866  0.52554187  1
  H+  H59  1  0.15328618  0.84687340  0.49584062  1
  H+  H60  1  0.01619985  0.84579129  0.24994137  1
  H+  H61  1  0.22222600  0.45110232  0.92079402  1
  H+  H62  1  0.50655463  0.35168063  0.77115526  1
  H+  H63  1  0.80894346  0.95125006  0.02621968  1
  H+  H64  1  0.18071779  0.51398932  0.26750997  1
  H+  H65  1  0.37233832  0.86729693  0.23980794  1
  H+  H66  1  0.45118936  0.90340190  0.09366445  1
  H+  H67  1  0.52449351  0.82863936  1.00620437  1
  H+  H68  1  0.69983240  0.74316048  0.62207130  1
  H+  H69  1  -0.04028854  0.81723344  0.46545730  1
  H+  H70  1  0.73024981  0.20693891  0.44869623  1
  H+  H71  1  0.18453171  0.64333577  0.74373640  1
  H+  H72  1  0.65432028  0.84338230  0.25233032  1
  H+  H73  1  0.81536605  0.24097927  0.71787727  1
  H+  H74  1  1.02237266  0.50650063  1.01723984  1
  H+  H75  1  0.49783412  -0.02301870  1.00460263  1
  H+  H76  1  0.56683329  0.19247545  0.96580375  1
  H+  H77  1  0.20219860  0.38093356  0.47596120  1
  H+  H78  1  0.12850703  0.63388841  0.25498086  1
  H+  H79  1  1.00661100  0.15965329  1.00657480  1
  H+  H80  1  0.87212977  0.74130501  0.74927574  1
  H+  H81  1  0.14160825  0.56358597  0.59518058  1
  H+  H82  1  0.31989343  0.53766868  0.25832956  1
  H+  H83  1  0.19100384  1.01544713  0.26456492  1
  H+  H84  1  0.49384604  -0.12652806  0.23721645  1
  H+  H85  1  0.79784282  0.17166762  0.80524298  1
  H+  H86  1  0.28871893  0.15079694  0.00984103  1
  H+  H87  1  0.36139165  0.50058067  0.75885902  1
  H+  H88  1  0.51709554  0.71311630  1.03701852  1
  H+  H89  1  0.17275343  0.20204047  0.49774487  1
  H+  H90  1  0.51130251  0.36646694  0.27610601  1
  H+  H91  1  0.83136535  0.85541827  0.24971557  1
  H+  H92  1  0.14135080  0.85139920  0.01483079  1
  H+  H93  1  0.54735645  0.74318749  0.48705855  1
  H+  H94  1  0.89296647  0.39925368  0.46509295  1
  H+  H95  1  0.49832829  0.19088840  0.51144660  1
  H+  H96  1  0.00310633  0.16306591  0.24814901  1
  H+  H97  1  0.65657087  0.16307130  1.00700399  1
  H+  H98  1  0.57073331  0.80898213  0.33882968  1
  H+  H99  1  0.22459291  0.77956015  0.91631463  1
  H+  H100  1  0.31573277  0.15913632  0.49009364  1
  H+  H101  1  0.11794718  0.24330927  0.12736678  1
  H+  H102  1  0.63355006  0.47523267  0.27838903  1
  H+  H103  1  0.51363474  0.46732092  1.00250091  1
  H+  H104  1  0.20251347  0.50119899  0.48580970  1
  H+  H105  1  0.77484262  0.25239242  0.12825571  1
  H+  H106  1  0.56814099  0.66453419  0.60321694  1
  H+  H107  1  0.16239666  0.33116243  0.21071690  1
  H+  H108  1  0.23748398  0.11519246  0.86161325  1
  H+  H109  1  0.44342411  0.58029762  0.16006153  1
  H+  H110  1  0.86613076  0.40782343  0.74238799  1
  H+  H111  1  0.54919649  0.44916372  0.40903250  1
  H+  H112  1  0.62240188  0.81746947  0.71902233  1
  H+  H113  1  0.82515505  0.07361518  0.93255383  1
  H+  H114  1  0.56397954  0.12752052  0.40319894  1
  H+  H115  1  0.05648569  0.20563262  0.50133464  1
  H+  H116  1  0.10167699  0.88324452  0.16164219  1
  H+  H117  1  0.43552480  0.22451231  0.13082537  1
  H+  H118  1  0.90572041  0.80380000  0.84660459  1
  H+  H119  1  0.44092962  0.90230540  0.61937876  1
  H+  H120  1  0.87249210  0.40790036  0.90593595  1
  H+  H121  1  0.23310326  0.10438460  0.34887186  1
  H+  H122  1  0.19492024  0.04231634  0.48491526  1
  H+  H123  1  0.55468708  0.09878216  0.84177479  1
  H+  H124  1  0.65389059  0.19841408  0.26188072  1
  H+  H125  1  0.78936062  0.54891163  0.09436455  1
  H+  H126  1  0.79261315  0.26158886  0.60359808  1
  H+  H127  1  0.35801971  0.50980471  0.00749083  1
  H+  H128  1  0.45270219  0.22698199  0.59978238  1
  H+  H129  1  0.54167366  0.42497254  0.86595342  1
  H+  H130  1  0.18251464  0.25517255  0.64116735  1
  H+  H131  1  0.87631863  0.77799565  0.38273606  1
  H+  H132  1  0.85076061  0.04582295  0.78876724  1
  H+  H133  1  0.13759697  0.88397773  0.68923625  1
  H+  H134  1  0.07912827  0.87705291  0.56418356  1
  H+  H135  1  0.23793396  0.47569423  0.35940284  1
  H+  H136  1  0.51506977  0.36446111  0.49441487  1
  H+  H137  1  0.21021047  0.77394060  0.35168923  1
  H+  H138  1  0.78531217  0.88754293  0.15893777  1
  H+  H139  1  0.09445782  0.55307810  0.10907238  1
  H+  H140  1  0.77787329  0.44381190  0.22945244  1
  H+  H141  1  0.19831994  0.02826532  0.77809528  1
  H+  H142  1  0.81457751  0.59650013  0.64711792  1
  H+  H143  1  0.75625518  0.19704241  0.60553069  1
  O2-  O144  1  0.13034023  0.25077055  0.19515298  1
  O2-  O145  1  0.21691801  0.27477601  0.70272975  1
  O2-  O146  1  0.09738702  0.55221412  0.23230431  1
  O2-  O147  1  0.14580100  0.56362355  0.71779170  1
  O2-  O148  1  0.10165480  0.87784996  0.22915242  1
  O2-  O149  1  0.12794892  0.88605831  0.75448456  1
  O2-  O150  1  0.44339435  0.22875868  0.23196136  1
  O2-  O151  1  0.45091996  0.22480444  0.71960809  1
  O2-  O152  1  0.42910303  0.59827747  0.22139746  1
  O2-  O153  1  0.44324464  0.52919777  0.73513395  1
  O2-  O154  1  0.45148147  0.91310903  0.21705635  1
  O2-  O155  1  0.44310048  0.90258072  0.68665426  1
  O2-  O156  1  0.77097718  0.31906539  0.22068404  1
  O2-  O157  1  0.79555178  0.24108756  0.78191269  1
  O2-  O158  1  0.78059003  0.52032205  0.23193917  1
  O2-  O159  1  0.79530471  0.61726308  0.71227973  1
  O2-  O160  1  0.78696442  0.89648306  0.22629958  1
  O2-  O161  1  0.62660204  0.73992978  0.62796670  1
  O2-  O162  1  0.24165108  0.09704408  0.28258201  1
  O2-  O163  1  0.24274845  0.11161822  0.79345527  1
  O2-  O164  1  0.23583908  0.48571939  0.28690136  1
  O2-  O165  1  0.23932592  0.44831447  0.79668576  1
  O2-  O166  1  0.20758855  0.76930382  0.28385285  1
  O2-  O167  1  0.24537984  0.77632783  0.78952736  1
  O2-  O168  1  0.57585315  0.14035516  0.28465118  1
  O2-  O169  1  0.56167956  0.11299492  0.77556328  1
  O2-  O170  1  0.55431432  0.44681500  0.29832849  1
  O2-  O171  1  0.53694993  0.42977465  0.79856017  1
  O2-  O172  1  0.57033009  0.80897638  0.27046020  1
  O2-  O173  1  0.61037206  0.86389913  0.76587407  1
  O2-  O174  1  0.92824308  0.12169255  0.28064700  1
  O2-  O175  1  0.78672850  0.04552086  0.81945576  1
  O2-  O176  1  0.87808018  0.35804899  0.27231026  1
  O2-  O177  1  0.91656650  0.48875819  0.72878971  1
  O2-  O178  1  0.89422707  0.79646979  0.27774449  1
  O2-  O179  1  0.92203605  0.81870704  0.78041697  1
  O2-  O180  1  0.23550574  0.12398684  0.46641431  1
  O2-  O181  1  0.21688362  0.10787278  0.97474461  1
  O2-  O182  1  0.24383048  0.46363349  0.45584633  1
  O2-  O183  1  0.23553135  0.46755153  0.98661204  1
  O2-  O184  1  0.21876494  0.78051460  0.47350841  1
  O2-  O185  1  0.19548582  0.77698418  0.97813871  1
  O2-  O186  1  0.57197522  0.12866677  0.47072418  1
  O2-  O187  1  0.58434679  0.13088361  0.96791475  1
  O2-  O188  1  0.54959235  0.44646733  0.47785023  1
  O2-  O189  1  0.55694504  0.42808165  0.98390586  1
  O2-  O190  1  0.57067004  0.81389328  0.45393485  1
  O2-  O191  1  0.55962227  0.77817809  0.99657993  1
  O2-  O192  1  0.92299154  0.13774284  0.45550900  1
  O2-  O193  1  0.85386124  0.08602208  0.99630867  1
  O2-  O194  1  0.94140904  0.48319679  0.46862983  1
  O2-  O195  1  0.87991222  0.42373596  0.97106991  1
  O2-  O196  1  0.87718496  0.77608838  0.45297816  1
  O2-  O197  1  0.89001567  0.78002886  0.96419743  1
  O2-  O198  1  0.08924560  0.21037057  0.01724647  1
  O2-  O199  1  0.13912904  0.24847567  0.52117007  1
  O2-  O200  1  0.10062116  0.55484247  0.04173936  1
  O2-  O201  1  0.14071089  0.56499785  0.52754020  1
  O2-  O202  1  0.10524627  0.89591700  0.03984027  1
  O2-  O203  1  0.11502013  0.89511170  0.50480119  1
  O2-  O204  1  0.43129165  0.21663501  0.05966659  1
  O2-  O205  1  0.45092308  0.22502255  0.53201439  1
  O2-  O206  1  0.44589127  0.54324764  0.01623192  1
  O2-  O207  1  0.45765718  0.53992925  0.56125339  1
  O2-  O208  1  0.46067302  0.89826218  0.02723491  1
  O2-  O209  1  0.44433624  0.90126660  0.49248643  1
  O2-  O210  1  0.77424380  0.22328614  0.06405739  1
  O2-  O211  1  0.81177373  0.25101468  0.43146418  1
  O2-  O212  1  0.78328327  0.54548294  0.02739113  1
  O2-  O213  1  0.84558365  0.56417120  0.56251077  1
  O2-  O214  1  0.77557902  0.86838173  0.04147645  1
  O2-  O215  1  0.80781761  0.92296664  0.51804484  1
