# generated using pymatgen
data_H2O
_symmetry_space_group_name_H-M   'P 1'
_cell_length_a   13.49711805
_cell_length_b   13.51109942
_cell_length_c   14.67322611
_cell_angle_alpha   89.98509215
_cell_angle_beta   90.04314133
_cell_angle_gamma   119.97370058
_symmetry_Int_Tables_number   1
_chemical_formula_structural   H2O
_chemical_formula_sum   'H144 O72'
_cell_volume   2317.94369446
_cell_formula_units_Z   72
loop_
 _symmetry_equiv_pos_site_id
 _symmetry_equiv_pos_as_xyz
  1  'x, y, z'
loop_
 _atom_type_symbol
 _atom_type_oxidation_number
  H+  1.0
  O2-  -2.0
loop_
 _atom_site_type_symbol
 _atom_site_label
 _atom_site_symmetry_multiplicity
 _atom_site_fract_x
 _atom_site_fract_y
 _atom_site_fract_z
 _atom_site_occupancy
  H+  H0  1  0.51912110  0.47325369  0.26755486  1
  H+  H1  1  0.47326026  0.48776008  0.74852962  1
  H+  H2  1  0.16564366  0.18330660  0.75048394  1
  H+  H3  1  0.48581375  0.95931882  0.23159077  1
  H+  H4  1  0.02947133  0.84917080  0.51296457  1
  H+  H5  1  0.88348688  0.77286421  0.40881817  1
  H+  H6  1  0.30884624  0.15064715  0.77812011  1
  H+  H7  1  0.33356163  0.21204293  0.53108295  1
  H+  H8  1  0.86126340  0.85255760  0.75168599  1
  H+  H9  1  0.49928664  0.17479168  0.52842634  1
  H+  H10  1  0.36688387  0.51893630  0.51529800  1
  H+  H11  1  0.83522388  0.35738954  -0.00632096  1
  H+  H12  1  0.53163389  0.99387964  0.71169236  1
  H+  H13  1  0.81696581  -0.02622148  0.50206725  1
  H+  H14  1  0.93358618  0.15020835  1.01230222  1
  H+  H15  1  0.83347609  0.18902974  0.50940478  1
  H+  H16  1  0.95791849  0.47604924  1.00303763  1
  H+  H17  1  0.13256195  0.61582890  0.01569031  1
  H+  H18  1  0.05526901  0.86981967  0.73711177  1
  H+  H19  1  0.78437963  0.58031745  0.76628656  1
  H+  H20  1  0.48173326  0.18553151  0.73956688  1
  H+  H21  1  0.35753600  0.83523835  0.00765378  1
  H+  H22  1  0.85353510  0.48259894  0.48241725  1
  H+  H23  1  0.67864132  0.50115130  0.01568063  1
  H+  H24  1  0.16525667  0.13155897  0.48766222  1
  H+  H25  1  0.98362535  0.50265511  0.24733344  1
  H+  H26  1  0.46769832  0.82730551  0.49416521  1
  H+  H27  1  0.52072848  0.50021252  -0.00575514  1
  H+  H28  1  0.62835645  0.80820049  0.99196251  1
  H+  H29  1  0.81812154  0.63508602  0.51901743  1
  H+  H30  1  0.17210742  0.69274226  0.24354264  1
  H+  H31  1  0.85850332  0.37742949  0.25116997  1
  H+  H32  1  0.15406431  0.84686411  0.23949619  1
  H+  H33  1  0.63379170  0.46833651  0.26406644  1
  H+  H34  1  0.43543596  0.75484758  0.83341308  1
  H+  H35  1  0.78278623  0.22266143  0.65248863  1
  H+  H36  1  0.82773899  0.30406389  0.50636100  1
  H+  H37  1  0.63616964  0.16329474  0.75828759  1
  H+  H38  1  0.16311114  0.30792255  -0.00335781  1
  H+  H39  1  0.32010511  0.49700584  0.24683076  1
  H+  H40  1  0.97350365  0.15926956  0.25188380  1
  H+  H41  1  0.78516050  0.88631163  0.15598119  1
  H+  H42  1  0.81944952  0.85020561  1.01282508  1
  H+  H43  1  0.15488713  0.53649460  0.50452810  1
  H+  H44  1  0.61270158  0.46015431  0.76359748  1
  H+  H45  1  0.53686637  0.01048861  0.47159571  1
  H+  H46  1  0.80306917  0.47707593  0.74905200  1
  H+  H47  1  0.48864746  0.91471955  0.62261618  1
  H+  H48  1  0.47702424  0.64496512  -0.00174476  1
  H+  H49  1  0.69735799  0.85766661  0.73333823  1
  H+  H50  1  0.81736409  0.18757202  0.22851326  1
  H+  H51  1  0.09441956  0.17689745  -0.03250110  1
  H+  H52  1  0.85810108  0.03748005  0.25420992  1
  H+  H53  1  0.49243392  0.34616099  0.77231123  1
  H+  H54  1  0.71019327  0.85551738  0.24591516  1
  H+  H55  1  0.51303667  0.65647616  0.24118718  1
  H+  H56  1  0.84341455  0.81691877  0.49520188  1
  H+  H57  1  0.83338875  0.14176604  0.76758556  1
  H+  H58  1  0.48485956  0.51608544  0.51592318  1
  H+  H59  1  0.49627188  0.19256851  0.48056077  1
  H+  H60  1  0.44968856  0.33146412  0.53501428  1
  H+  H61  1  0.51357001  0.81567468  -0.00983226  1
  H+  H62  1  0.98093856  0.83762126  0.99091682  1
  H+  H63  1  0.35240166  0.83605914  0.49580160  1
  H+  H64  1  0.52189550  0.69413979  0.49150361  1
  H+  H65  1  0.81296920  0.62459676  0.24206207  1
  H+  H66  1  0.80158724  0.95843389  0.01977799  1
  H+  H67  1  0.69705635  0.18318495  0.23109680  1
  H+  H68  1  0.16174870  0.39208896  0.46379406  1
  H+  H69  1  0.17955283  0.80423880  1.00035549  1
  H+  H70  1  0.16880177  0.69750757  0.48277758  1
  H+  H71  1  0.18924667  0.28423895  0.52718133  1
  H+  H72  1  0.16555695  0.47657452  0.99394131  1
  H+  H73  1  0.85467913  0.81434423  0.26457242  1
  H+  H74  1  -0.03301657  0.47679741  0.76457605  1
  H+  H75  1  0.80524199  0.49251628  0.01654341  1
  H+  H76  1  0.63598889  0.48695215  0.49691104  1
  H+  H77  1  0.29083529  0.48900127  0.98474067  1
  H+  H78  1  0.14546305  -0.03754986  0.24212549  1
  H+  H79  1  0.15681386  0.18924764  0.23850178  1
  H+  H80  1  0.81085699  0.98041413  0.74624454  1
  H+  H81  1  0.66840959  0.17718505  1.00467388  1
  H+  H82  1  0.43656215  0.53765915  0.65286664  1
  H+  H83  1  0.35051505  0.50229322  0.74747014  1
  H+  H84  1  0.51180653  0.13605427  0.25044386  1
  H+  H85  1  0.52090039  0.81848644  0.25672372  1
  H+  H86  1  0.96677306  0.80371666  0.26426567  1
  H+  H87  1  0.13584224  0.52857060  0.23632045  1
  H+  H88  1  0.88958399  0.43939602  0.85711225  1
  H+  H89  1  0.47161089  0.28192030  0.22824375  1
  H+  H90  1  0.41437068  0.19455524  0.14233944  1
  H+  H91  1  0.17897362  0.96801039  0.02372056  1
  H+  H92  1  0.16542758  0.30114491  0.74166592  1
  H+  H93  1  0.87747028  0.74659349  0.73894926  1
  H+  H94  1  0.17653565  0.81863216  0.47844336  1
  H+  H95  1  0.13618544  0.62258496  0.74250258  1
  H+  H96  1  0.18246954  0.02421030  0.48579028  1
  H+  H97  1  0.65616824  0.13061345  0.47808016  1
  H+  H98  1  0.55581025  0.44927992  0.91055020  1
  H+  H99  1  0.81979831  0.29817027  0.74404069  1
  H+  H100  1  0.20048078  0.38172982  0.24956883  1
  H+  H101  1  0.49565235  1.02141130  -0.01799673  1
  H+  H102  1  0.02788935  0.51757806  0.50380498  1
  H+  H103  1  0.97659928  0.15237153  0.48437890  1
  H+  H104  1  0.29315521  0.14344219  0.25586266  1
  H+  H105  1  0.24514534  0.16953407  0.01856492  1
  H+  H106  1  0.18461682  0.48797468  0.75402263  1
  H+  H107  1  0.19331719  0.81045572  0.76012518  1
  H+  H108  1  0.23973628  0.47236362  0.38614331  1
  H+  H109  1  0.47424584  0.12812696  0.98280703  1
  H+  H110  1  0.56069309  0.77847752  0.34759981  1
  H+  H111  1  0.42060434  0.23543057  0.66672478  1
  H+  H112  1  0.86137167  0.09496492  0.85848843  1
  H+  H113  1  0.22050416  0.45205488  0.84773216  1
  H+  H114  1  0.53954282  0.58875263  0.16630108  1
  H+  H115  1  0.90816423  0.81137233  0.90049208  1
  H+  H116  1  0.63534016  0.81747183  0.48833680  1
  H+  H117  1  0.75297352  0.21729508  0.09331170  1
  H+  H118  1  0.28510132  0.76539541  0.78090730  1
  H+  H119  1  0.45714291  0.82181464  0.73929171  1
  H+  H120  1  0.76692301  0.53635405  0.11368294  1
  H+  H121  1  0.09228882  0.54604125  0.11136576  1
  H+  H122  1  0.23914857  0.10518952  0.86949870  1
  H+  H123  1  0.82378327  0.51010610  0.24125180  1
  H+  H124  1  0.56659932  0.09741348  0.33308288  1
  H+  H125  1  0.81325396  0.14197117  0.99903986  1
  H+  H126  1  0.42080319  0.56332286  0.08497165  1
  H+  H127  1  0.89541686  0.44739189  0.39146632  1
  H+  H128  1  0.20775807  0.75905038  0.90884114  1
  H+  H129  1  0.77964379  0.54525401  0.60217203  1
  H+  H130  1  0.09943395  0.54888087  0.65011357  1
  H+  H131  1  0.12152524  0.22873109  0.14814991  1
  H+  H132  1  0.89807691  0.11893075  0.39419925  1
  H+  H133  1  0.36565319  0.84028600  0.23307411  1
  H+  H134  1  0.12053587  0.89266885  0.59604066  1
  H+  H135  1  0.77668232  0.90262498  0.59493479  1
  H+  H136  1  0.55649142  0.44504622  0.40741711  1
  H+  H137  1  0.17656233  0.97679512  0.74443576  1
  H+  H138  1  0.21938187  0.77241368  0.33374845  1
  H+  H139  1  0.21513828  0.10885019  0.34583245  1
  H+  H140  1  0.11801942  0.21322804  0.61162770  1
  H+  H141  1  0.44244213  0.88131552  0.09339893  1
  H+  H142  1  0.11550747  0.88367925  0.10600110  1
  H+  H143  1  0.54542639  0.11265199  0.84111317  1
  O2-  O144  1  0.12100579  0.23447676  0.21508529  1
  O2-  O145  1  0.13187110  0.22299793  0.71691474  1
  O2-  O146  1  0.09368130  0.56410664  0.21163988  1
  O2-  O147  1  0.09923454  0.54204884  0.71805117  1
  O2-  O148  1  0.10611344  0.88162332  0.22035969  1
  O2-  O149  1  0.13467607  0.89964108  0.71504526  1
  O2-  O150  1  0.42713579  0.20038663  0.21094856  1
  O2-  O151  1  0.43482400  0.22458409  0.73263938  1
  O2-  O152  1  0.48228874  0.57686059  0.21226486  1
  O2-  O153  1  0.43344500  0.53135918  0.72255228  1
  O2-  O154  1  0.44718013  0.87723581  0.21167203  1
  O2-  O155  1  0.53352761  0.93009963  0.68016055  1
  O2-  O156  1  0.77699822  0.22757778  0.20608335  1
  O2-  O157  1  0.77535174  0.21857501  0.72053536  1
  O2-  O158  1  0.77436189  0.54422011  0.21856004  1
  O2-  O159  1  0.75578788  0.51288592  0.72768174  1
  O2-  O160  1  0.79101651  0.89308691  0.22433439  1
  O2-  O161  1  0.77730493  0.90043186  0.71461482  1
  O2-  O162  1  0.21195842  0.10858420  0.27758433  1
  O2-  O163  1  0.22855856  0.10586291  0.80284111  1
  O2-  O164  1  0.24317451  0.46160221  0.27339869  1
  O2-  O165  1  0.22950871  0.45319895  0.77966783  1
  O2-  O166  1  0.22299888  0.77606757  0.26597117  1
  O2-  O167  1  0.20474540  0.75152458  0.79094554  1
  O2-  O168  1  0.55887332  0.10028013  0.26452207  1
  O2-  O169  1  0.55264126  0.12164558  0.77330801  1
  O2-  O170  1  0.55374386  0.42772429  0.28833162  1
  O2-  O171  1  0.53492629  0.43147812  0.78972176  1
  O2-  O172  1  0.56499856  0.78103049  0.27923822  1
  O2-  O173  1  0.39900517  0.75224796  0.77537694  1
  O2-  O174  1  0.89330539  0.11888244  0.27479861  1
  O2-  O175  1  0.86529316  0.09421662  0.79135644  1
  O2-  O176  1  0.89607488  0.45633728  0.27574185  1
  O2-  O177  1  0.88639349  0.43536478  0.78895952  1
  O2-  O178  1  0.88641849  0.76627453  0.28802487  1
  O2-  O179  1  0.91023155  0.81886911  0.77134022  1
  O2-  O180  1  0.21643877  0.10480686  0.46307531  1
  O2-  O181  1  0.27276856  0.11858678  0.99598547  1
  O2-  O182  1  0.22858890  0.46756093  0.45472930  1
  O2-  O183  1  0.20937345  0.44254342  0.96413409  1
  O2-  O184  1  0.21327919  0.77525497  0.45517353  1
  O2-  O185  1  0.21475997  0.75932252  0.97669204  1
  O2-  O186  1  0.59180175  0.07995147  0.43770911  1
  O2-  O187  1  0.52905044  0.10208388  0.96056684  1
  O2-  O188  1  0.55563341  0.45450696  0.47490363  1
  O2-  O189  1  0.56713727  0.46454641  0.97706196  1
  O2-  O190  1  0.55632727  0.77064977  0.46263598  1
  O2-  O191  1  0.54882307  0.77039441  0.96722524  1
  O2-  O192  1  0.89659631  0.11492943  0.46245797  1
  O2-  O193  1  0.85869195  0.10269112  0.98433976  1
  O2-  O194  1  0.89576762  0.44459940  0.46036637  1
  O2-  O195  1  0.87737708  0.44022252  0.97596524  1
  O2-  O196  1  0.88388278  0.77486450  0.47710390  1
  O2-  O197  1  0.90180662  0.80552213  0.96731519  1
  O2-  O198  1  0.13369495  0.22699711  0.01898734  1
  O2-  O199  1  0.11608908  0.21680231  0.54129708  1
  O2-  O200  1  0.09038284  0.53584476  0.03927994  1
  O2-  O201  1  0.10612878  0.56407906  0.53208885  1
  O2-  O202  1  0.12313566  0.88711265  0.03766134  1
  O2-  O203  1  0.11274344  0.88942126  0.52809090  1
  O2-  O204  1  0.39227937  0.17471592  0.02927933  1
  O2-  O205  1  0.38403536  0.27590594  0.57224557  1
  O2-  O206  1  0.43132545  0.56040583  0.01907866  1
  O2-  O207  1  0.44359409  0.55373082  0.54414108  1
  O2-  O208  1  0.44036721  0.88153319  0.02516670  1
  O2-  O209  1  0.43413582  0.87396593  0.51565829  1
  O2-  O210  1  0.75056368  0.21583215  0.02458628  1
  O2-  O211  1  0.79158295  0.22648318  0.53438755  1
  O2-  O212  1  0.76166822  0.53043120  0.04314968  1
  O2-  O213  1  0.77948826  0.55186226  0.53504093  1
  O2-  O214  1  0.76896571  0.87804540  0.04055320  1
  O2-  O215  1  0.77498030  0.89441305  0.52724744  1
