# generated using pymatgen
data_H2O
_symmetry_space_group_name_H-M   'P 1'
_cell_length_a   13.51799812
_cell_length_b   13.52358186
_cell_length_c   14.70049975
_cell_angle_alpha   89.97842059
_cell_angle_beta   89.94195217
_cell_angle_gamma   119.98408491
_symmetry_Int_Tables_number   1
_chemical_formula_structural   H2O
_chemical_formula_sum   'H144 O72'
_cell_volume   2327.74832999
_cell_formula_units_Z   72
loop_
 _symmetry_equiv_pos_site_id
 _symmetry_equiv_pos_as_xyz
  1  'x, y, z'
loop_
 _atom_type_symbol
 _atom_type_oxidation_number
  H+  1.0
  O2-  -2.0
loop_
 _atom_site_type_symbol
 _atom_site_label
 _atom_site_symmetry_multiplicity
 _atom_site_fract_x
 _atom_site_fract_y
 _atom_site_fract_z
 _atom_site_occupancy
  H+  H0  1  0.88426994  0.72583377  0.29096571  1
  H+  H1  1  0.48560795  0.63527313  0.51936572  1
  H+  H2  1  0.47536378  0.82489273  0.53153620  1
  H+  H3  1  0.80967602  0.47644421  0.75486652  1
  H+  H4  1  0.17566306  0.84120876  0.75601865  1
  H+  H5  1  1.03035485  0.87819678  0.27430661  1
  H+  H6  1  0.84596757  0.81211007  0.51591605  1
  H+  H7  1  0.84256252  0.14102994  0.97945350  1
  H+  H8  1  0.48945326  0.48201966  0.26065263  1
  H+  H9  1  0.47959761  0.18578979  -0.04144207  1
  H+  H10  1  0.81191451  0.63865632  0.51111787  1
  H+  H11  1  0.55932036  0.83478073  0.77264750  1
  H+  H12  1  0.63933841  0.48599188  0.99062136  1
  H+  H13  1  0.18142360  0.36621392  0.99478876  1
  H+  H14  1  0.03660678  0.51232854  0.53850136  1
  H+  H15  1  0.82820026  0.46867021  0.25623337  1
  H+  H16  1  0.95767979  0.13564705  0.97214715  1
  H+  H17  1  0.91564246  0.45471261  0.75598031  1
  H+  H18  1  0.95132773  0.47891160  0.25703464  1
  H+  H19  1  0.81217056  0.89911518  0.76449115  1
  H+  H20  1  0.82302756  0.31451944  0.22936348  1
  H+  H21  1  0.16449641  0.00147995  0.27663961  1
  H+  H22  1  0.71079845  0.19551595  -0.00814408  1
  H+  H23  1  0.30633576  0.86864233  0.75577488  1
  H+  H24  1  0.17495202  0.15390518  0.48701949  1
  H+  H25  1  0.15024725  0.85560923  0.52330081  1
  H+  H26  1  0.56990640  0.06462465  0.90052407  1
  H+  H27  1  0.62722170  0.49583482  0.48913056  1
  H+  H28  1  0.51306098  0.49126963  0.77143078  1
  H+  H29  1  0.82951850  0.19780669  0.22006341  1
  H+  H30  1  0.13030785  0.98088530  0.74361962  1
  H+  H31  1  0.47864174  0.50806079  0.50995068  1
  H+  H32  1  0.75489540  0.55761217  0.65212038  1
  H+  H33  1  0.29722732  0.80881451  0.97695575  1
  H+  H34  1  0.19208246  0.49322041  0.50559059  1
  H+  H35  1  0.17757534  0.49666935  0.26703598  1
  H+  H36  1  1.04707784  0.18687297  0.52416501  1
  H+  H37  1  0.68229199  0.51899371  0.74562187  1
  H+  H38  1  0.81599252  0.07068421  0.74625943  1
  H+  H39  1  0.97074321  0.82163300  0.50757869  1
  H+  H40  1  0.44678635  0.54549341  0.66491880  1
  H+  H41  1  0.14148010  0.85923719  0.27480194  1
  H+  H42  1  0.52347900  0.68974266  0.99809866  1
  H+  H43  1  0.84900767  0.80457525  -0.00813760  1
  H+  H44  1  0.45294181  0.93277739  0.65177491  1
  H+  H45  1  0.52262855  0.81065267  -0.00913013  1
  H+  H46  1  0.76012365  0.27656431  0.74193775  1
  H+  H47  1  0.54043004  0.07044581  0.23219476  1
  H+  H48  1  0.48958399  0.64775213  0.24785619  1
  H+  H49  1  0.86610564  0.43524527  0.60711312  1
  H+  H50  1  0.22894037  0.52508667  0.77321155  1
  H+  H51  1  0.16918215  0.02574350  0.98939471  1
  H+  H52  1  0.85179051  0.36626192  -0.01118065  1
  H+  H53  1  0.18063002  0.03592081  0.50658921  1
  H+  H54  1  0.24531341  0.79085275  0.27040342  1
  H+  H55  1  0.36126944  0.53802636  0.24615843  1
  H+  H56  1  0.18338687  0.48640457  0.00192873  1
  H+  H57  1  0.46938862  0.21456908  0.53940859  1
  H+  H58  1  0.11826180  0.62731917  0.24799331  1
  H+  H59  1  0.56078800  0.84159766  0.30100620  1
  H+  H60  1  0.14295394  0.20844618  0.71419713  1
  H+  H61  1  0.18979065  0.26514465  0.17310765  1
  H+  H62  1  0.66117919  0.17650678  0.24871680  1
  H+  H63  1  0.70322224  0.16015943  0.51083136  1
  H+  H64  1  0.47724504  0.94983795  0.02148391  1
  H+  H65  1  0.36495956  0.51699569  0.01403731  1
  H+  H66  1  0.26735110  0.15769365  0.76177610  1
  H+  H67  1  0.66111115  0.82356880  0.27070335  1
  H+  H68  1  0.75566866  0.59719306  0.21883741  1
  H+  H69  1  0.51998867  0.10630700  0.47257097  1
  H+  H70  1  0.49128850  0.70713630  0.74474609  1
  H+  H71  1  0.50469031  0.37809834  0.49227636  1
  H+  H72  1  0.29755395  0.81194336  0.49904014  1
  H+  H73  1  0.01388752  0.86055480  0.73799232  1
  H+  H74  1  0.64929963  0.47823441  0.23641552  1
  H+  H75  1  0.84261599  0.35300230  0.52719010  1
  H+  H76  1  0.17327142  0.33490036  0.71808761  1
  H+  H77  1  0.83951083  0.12003048  0.53334250  1
  H+  H78  1  0.37820911  0.74902812  0.22364978  1
  H+  H79  1  0.10069232  0.56601189  0.76591715  1
  H+  H80  1  0.76008141  0.19529182  0.60963887  1
  H+  H81  1  0.47979825  0.18929422  0.25499259  1
  H+  H82  1  0.37780606  0.52039232  0.75836348  1
  H+  H83  1  0.65749181  0.17455878  0.85006424  1
  H+  H84  1  0.19951782  0.68681273  0.74105067  1
  H+  H85  1  0.49025361  0.94228275  0.49865326  1
  H+  H86  1  0.66014807  0.82366714  1.00250420  1
  H+  H87  1  0.63574886  0.78957437  0.52742294  1
  H+  H88  1  0.14939306  0.63703634  0.00570436  1
  H+  H89  1  0.83079973  0.85956408  0.24135353  1
  H+  H90  1  0.82741888  0.70572233  0.75499452  1
  H+  H91  1  0.80027352  0.93425166  0.56309301  1
  H+  H92  1  0.42139817  0.87770208  0.24298349  1
  H+  H93  1  0.99488361  0.16888539  0.23597375  1
  H+  H94  1  0.30717667  0.15045372  0.27926276  1
  H+  H95  1  0.14288879  0.17227036  -0.00553239  1
  H+  H96  1  0.47299470  0.28937275  0.99738529  1
  H+  H97  1  0.84844472  0.68858488  0.00315207  1
  H+  H98  1  0.34911921  0.50909741  0.51052964  1
  H+  H99  1  0.34456279  0.19565215  0.51709639  1
  H+  H100  1  0.28744468  0.14550880  0.97723408  1
  H+  H101  1  0.51470656  0.49399456  0.99382538  1
  H+  H102  1  0.50338808  0.36630933  0.77430358  1
  H+  H103  1  0.80001386  0.51450733  0.51881320  1
  H+  H104  1  0.45974528  0.29532813  0.25226492  1
  H+  H105  1  0.17396550  0.19566215  0.26242279  1
  H+  H106  1  0.15380007  0.29968358  0.49101251  1
  H+  H107  1  0.19323256  0.38648039  0.27331583  1
  H+  H108  1  0.41111974  0.25735684  0.65765805  1
  H+  H109  1  0.18977235  0.76826060  0.37036021  1
  H+  H110  1  0.23361422  0.46722254  0.40949888  1
  H+  H111  1  0.77510801  0.88664951  0.09576962  1
  H+  H112  1  0.18909505  0.10907575  0.84926695  1
  H+  H113  1  0.91269718  0.13938154  0.31789229  1
  H+  H114  1  0.57763254  0.09606667  0.38430708  1
  H+  H115  1  0.64366673  0.15919704  0.71482266  1
  H+  H116  1  0.79777198  0.49408080  0.00517847  1
  H+  H117  1  0.17746684  0.69674901  0.50543817  1
  H+  H118  1  0.89337285  0.79810553  0.37823530  1
  H+  H119  1  0.43901646  0.18489345  0.72229763  1
  H+  H120  1  0.03184048  0.51982967  0.00991898  1
  H+  H121  1  0.74321651  0.51877052  0.09508261  1
  H+  H122  1  0.78045999  0.22686683  0.08736770  1
  H+  H123  1  0.86356441  0.06175817  0.84135283  1
  H+  H124  1  0.83283032  0.97752098  0.22858226  1
  H+  H125  1  0.80794295  -0.03681524  1.00210354  1
  H+  H126  1  0.21651030  0.78343430  0.89208351  1
  H+  H127  1  0.24144917  0.46238692  0.86167925  1
  H+  H128  1  0.76465488  0.83193199  0.63610582  1
  H+  H129  1  0.03644500  0.85336049  0.01592973  1
  H+  H130  1  0.07599869  0.19149639  0.07600141  1
  H+  H131  1  0.10270201  0.55945926  0.15381974  1
  H+  H132  1  0.41678587  0.84882326  0.09095456  1
  H+  H133  1  0.13464160  0.56934474  0.61378013  1
  H+  H134  1  0.22614716  0.11391528  0.37273728  1
  H+  H135  1  0.88130747  0.05845477  0.46516791  1
  H+  H136  1  0.15590948  0.86126919  1.00655798  1
  H+  H137  1  0.10661221  0.89848127  0.60914300  1
  H+  H138  1  0.48822310  0.08794284  0.78140433  1
  H+  H139  1  0.57261520  0.76177851  0.42901076  1
  H+  H140  1  0.87483619  0.44498201  0.90227142  1
  H+  H141  1  0.53126577  0.44547633  0.35088700  1
  H+  H142  1  0.44536559  0.56119558  0.10263237  1
  H+  H143  1  0.55055831  0.45159124  0.89163416  1
  O2-  O144  1  0.14552051  0.24252213  0.22950912  1
  O2-  O145  1  0.14278620  0.26887460  0.67704112  1
  O2-  O146  1  0.09759788  0.55183223  0.22182682  1
  O2-  O147  1  0.16824971  0.60251758  0.72723717  1
  O2-  O148  1  0.11277685  0.91303393  0.25399653  1
  O2-  O149  1  0.09558969  0.89952834  0.71983883  1
  O2-  O150  1  0.42392935  0.21257224  0.23786139  1
  O2-  O151  1  0.41521382  0.24288062  0.72390336  1
  O2-  O152  1  0.44042288  0.57183735  0.21968281  1
  O2-  O153  1  0.45799038  0.55510807  0.73116263  1
  O2-  O154  1  0.36900153  0.81345158  0.20489265  1
  O2-  O155  1  0.44743295  0.95394592  0.71623709  1
  O2-  O156  1  0.78401897  0.23331070  0.20140344  1
  O2-  O157  1  0.72611117  0.19335085  0.73021117  1
  O2-  O158  1  0.72914143  0.51641706  0.20953127  1
  O2-  O159  1  0.76130656  0.55685673  0.71983024  1
  O2-  O160  1  0.78799752  0.89440601  0.21374430  1
  O2-  O161  1  0.77657848  0.81595754  0.74581580  1
  O2-  O162  1  0.22340395  0.11288918  0.30329070  1
  O2-  O163  1  0.18682995  0.11050229  0.78105809  1
  O2-  O164  1  0.22763224  0.46762390  0.29222887  1
  O2-  O165  1  0.25324984  0.47086450  0.79458946  1
  O2-  O166  1  0.17277787  0.76669716  0.30281728  1
  O2-  O167  1  0.22754846  0.81187193  0.77583375  1
  O2-  O168  1  0.58014273  0.13343918  0.27476043  1
  O2-  O169  1  0.49060943  0.07905334  0.71467622  1
  O2-  O170  1  0.52420962  0.43656757  0.28326304  1
  O2-  O171  1  0.55075304  0.44679673  0.79814372  1
  O2-  O172  1  0.58419530  0.78405045  0.30174321  1
  O2-  O173  1  0.48812328  0.77829006  0.74453843  1
  O2-  O174  1  0.91199153  0.12735113  0.25234168  1
  O2-  O175  1  0.85514969  0.03630150  0.77721331  1
  O2-  O176  1  0.87052125  0.43084360  0.27674398  1
  O2-  O177  1  0.83660446  0.42172692  0.77615632  1
  O2-  O178  1  0.89876200  0.80170619  0.30794366  1
  O2-  O179  1  0.86615463  0.78851377  0.77018494  1
  O2-  O180  1  0.22375398  0.11540670  0.48062471  1
  O2-  O181  1  0.20394307  0.10755464  0.96420614  1
  O2-  O182  1  0.23777281  0.46074620  0.47726297  1
  O2-  O183  1  0.22807560  0.44949451  0.98142105  1
  O2-  O184  1  0.21556020  0.77633368  0.48068741  1
  O2-  O185  1  0.21622643  0.77113215  0.95921377  1
  O2-  O186  1  0.57197632  0.08078992  0.45164513  1
  O2-  O187  1  0.60039153  0.14709542  0.90002800  1
  O2-  O188  1  0.54548292  0.45808291  0.46718892  1
  O2-  O189  1  0.55359022  0.45306029  0.96614608  1
  O2-  O190  1  0.55793714  0.75236607  0.49535348  1
  O2-  O191  1  0.56818259  0.77231496  0.97642804  1
  O2-  O192  1  0.87509551  0.07040085  0.52972392  1
  O2-  O193  1  0.87375218  0.09129060  0.95961269  1
  O2-  O194  1  0.87793469  0.43618573  0.54142552  1
  O2-  O195  1  0.88338629  0.44789761  0.96917607  1
  O2-  O196  1  0.89014331  0.78076403  0.48302609  1
  O2-  O197  1  0.89648147  0.76904263  0.98571845  1
  O2-  O198  1  0.09857378  0.21352414  0.01296069  1
  O2-  O199  1  0.10626406  0.21765469  0.47671622  1
  O2-  O200  1  0.11103251  0.55895435  0.03429840  1
  O2-  O201  1  0.12080959  0.55713479  0.54672266  1
  O2-  O202  1  0.11903177  0.90282683  0.03090107  1
  O2-  O203  1  0.10908081  0.89684012  0.54011107  1
  O2-  O204  1  0.43364181  0.20582812  -0.00232638  1
  O2-  O205  1  0.42457268  0.25277561  0.54222556  1
  O2-  O206  1  0.44778609  0.55791318  0.03449679  1
  O2-  O207  1  0.43557230  0.54710909  0.53700751  1
  O2-  O208  1  0.44196971  0.86698279  0.02641725  1
  O2-  O209  1  0.44067925  0.87410368  0.53621902  1
  O2-  O210  1  0.78759425  0.22712624  0.01904615  1
  O2-  O211  1  0.77761714  0.20240173  0.54332261  1
  O2-  O212  1  0.75018639  0.52820386  0.02730137  1
  O2-  O213  1  0.76002373  0.55774135  0.53148469  1
  O2-  O214  1  0.76538313  0.88213941  0.02794653  1
  O2-  O215  1  0.76080734  0.84874213  0.56932953  1
