# generated using pymatgen
data_H2O
_symmetry_space_group_name_H-M   'P 1'
_cell_length_a   13.51120873
_cell_length_b   13.50890169
_cell_length_c   14.67684178
_cell_angle_alpha   89.98291936
_cell_angle_beta   89.99597385
_cell_angle_gamma   120.04587823
_symmetry_Int_Tables_number   1
_chemical_formula_structural   H2O
_chemical_formula_sum   'H144 O72'
_cell_volume   2318.87049856
_cell_formula_units_Z   72
loop_
 _symmetry_equiv_pos_site_id
 _symmetry_equiv_pos_as_xyz
  1  'x, y, z'
loop_
 _atom_type_symbol
 _atom_type_oxidation_number
  H+  1.0
  O2-  -2.0
loop_
 _atom_site_type_symbol
 _atom_site_label
 _atom_site_symmetry_multiplicity
 _atom_site_fract_x
 _atom_site_fract_y
 _atom_site_fract_z
 _atom_site_occupancy
  H+  H0  1  0.48471836  0.31170078  0.74717983  1
  H+  H1  1  0.15046014  0.29096158  0.00995239  1
  H+  H2  1  0.19408591  0.04546171  0.74342830  1
  H+  H3  1  0.78351851  0.56745295  0.64242284  1
  H+  H4  1  0.56117053  0.54952199  0.97129170  1
  H+  H5  1  0.84055025  0.14435304  0.47427418  1
  H+  H6  1  1.03704155  0.16500995  1.01689105  1
  H+  H7  1  0.17897827  0.46149570  -0.00537339  1
  H+  H8  1  0.14615233  0.84396397  0.25811262  1
  H+  H9  1  0.52412595  1.04133602  0.75583915  1
  H+  H10  1  0.96434207  0.83326800  0.99812887  1
  H+  H11  1  1.04757833  0.18916571  0.74235744  1
  H+  H12  1  0.34360494  0.17940747  0.74021679  1
  H+  H13  1  0.84358542  0.48345682  0.24654735  1
  H+  H14  1  0.17461335  0.35464140  0.26346031  1
  H+  H15  1  0.46969677  0.83092823  0.24917977  1
  H+  H16  1  0.18698301  0.48335950  0.76285031  1
  H+  H17  1  0.84896542  0.36444830  0.76159188  1
  H+  H18  1  0.86594035  0.50873156  0.98902047  1
  H+  H19  1  0.51439334  0.69701057  0.24021433  1
  H+  H20  1  0.18539413  0.48839830  0.48111512  1
  H+  H21  1  0.66555029  0.16364145  -0.02033651  1
  H+  H22  1  0.82962902  0.09176397  1.00210282  1
  H+  H23  1  0.13507894  0.99489152  0.03711552  1
  H+  H24  1  0.15941955  0.18807997  0.24530060  1
  H+  H25  1  0.17590575  0.81792927  0.50345153  1
  H+  H26  1  0.70648212  0.85323904  0.24609442  1
  H+  H27  1  0.83683973  0.80358911  0.98991297  1
  H+  H28  1  0.16817453  0.20803013  0.50624755  1
  H+  H29  1  0.69811012  0.52153437  0.23906135  1
  H+  H30  1  0.57146402  0.12668073  0.83987305  1
  H+  H31  1  0.49254238  0.75841959  0.96167938  1
  H+  H32  1  0.77019486  0.89014558  0.60327962  1
  H+  H33  1  0.82080765  0.53982272  0.49258376  1
  H+  H34  1  0.54783107  0.73825103  0.84122398  1
  H+  H35  1  0.15715122  0.63585911  0.51710480  1
  H+  H36  1  0.64927175  0.50631650  -0.02464793  1
  H+  H37  1  0.68487330  0.84367548  0.51772290  1
  H+  H38  1  0.83119070  0.02190414  0.47878129  1
  H+  H39  1  0.85254387  0.70466558  0.75724372  1
  H+  H40  1  0.63927911  0.15163352  0.25688982  1
  H+  H41  1  0.50406661  0.69244712  0.49790794  1
  H+  H42  1  0.20061411  0.14889541  0.99517625  1
  H+  H43  1  0.19682521  0.16794036  0.73981059  1
  H+  H44  1  0.85998289  0.38876135  0.99169588  1
  H+  H45  1  0.30547420  0.12579936  0.00091214  1
  H+  H46  1  0.51362873  0.48246269  0.48584653  1
  H+  H47  1  0.50555713  0.85012515  0.75145568  1
  H+  H48  1  0.52118771  0.03229773  0.26338665  1
  H+  H49  1  0.29596080  0.81859620  0.50524377  1
  H+  H50  1  0.56020441  1.03747846  -0.03038292  1
  H+  H51  1  0.52139502  0.03854248  0.49433128  1
  H+  H52  1  0.81555929  0.64140372  0.24195739  1
  H+  H53  1  0.81534432  0.30769343  0.23791149  1
  H+  H54  1  0.16043068  0.86833272  -0.04400555  1
  H+  H55  1  0.82044865  -0.03049655  0.74772576  1
  H+  H56  1  0.17072494  0.47642797  0.26319525  1
  H+  H57  1  1.02796807  0.50806023  0.74091114  1
  H+  H58  1  0.31058385  0.15529843  0.25828723  1
  H+  H59  1  0.28701522  0.80308261  0.28476084  1
  H+  H60  1  0.67283900  0.78100936  0.02667087  1
  H+  H61  1  0.64201825  0.80918692  0.76185854  1
  H+  H62  1  0.82894837  0.97596980  -0.00450194  1
  H+  H63  1  0.03444451  0.86183069  0.50999304  1
  H+  H64  1  0.78114680  0.14914998  0.69261475  1
  H+  H65  1  0.70108780  0.18516961  0.49384071  1
  H+  H66  1  0.30654912  0.48471036  0.75861981  1
  H+  H67  1  0.85476598  0.37072063  0.48990905  1
  H+  H68  1  0.19274480  1.04967302  0.49067702  1
  H+  H69  1  0.17482554  0.62201759  1.01012777  1
  H+  H70  1  0.50817773  0.46617302  0.26414849  1
  H+  H71  1  0.43180625  0.23501852  0.50142247  1
  H+  H72  1  0.23787206  0.80339814  0.97069110  1
  H+  H73  1  0.63515307  0.49113719  0.48491166  1
  H+  H74  1  0.81918592  0.52222586  0.73133398  1
  H+  H75  1  0.48948949  0.29693950  0.24192620  1
  H+  H76  1  0.36404759  0.51451386  0.50106266  1
  H+  H77  1  0.48357043  0.18870787  0.74166842  1
  H+  H78  1  0.49061915  0.16401642  1.01017888  1
  H+  H79  1  0.83286735  0.64632196  1.00741363  1
  H+  H80  1  0.41704651  0.84777440  -0.00830261  1
  H+  H81  1  0.47460071  0.84612212  0.51695503  1
  H+  H82  1  0.96773325  0.15233514  0.25664257  1
  H+  H83  1  0.11383471  0.80921372  0.97028994  1
  H+  H84  1  0.16216341  0.31163631  0.74299785  1
  H+  H85  1  0.14540261  0.85756303  0.74610470  1
  H+  H86  1  0.37337433  0.56506756  0.16773507  1
  H+  H87  1  0.87914400  0.25526906  0.02953420  1
  H+  H88  1  0.48384646  0.62800652  0.72916681  1
  H+  H89  1  0.48717238  0.17809879  0.24432929  1
  H+  H90  1  0.04157448  0.51478263  0.51310338  1
  H+  H91  1  0.63245472  0.48648913  0.75054737  1
  H+  H92  1  0.69068242  0.18018272  0.73169208  1
  H+  H93  1  0.39177344  0.85484839  0.76321370  1
  H+  H94  1  0.96900833  0.82062216  0.27204923  1
  H+  H95  1  0.56139747  0.46171496  0.84412673  1
  H+  H96  1  0.85332940  0.82623332  0.26180963  1
  H+  H97  1  0.19054837  0.03800538  0.26820853  1
  H+  H98  1  1.02997759  0.86124543  0.74443428  1
  H+  H99  1  0.82082835  0.97803642  0.23695186  1
  H+  H100  1  0.48158730  0.50890482  0.73229492  1
  H+  H101  1  0.55643010  0.44113275  0.35594436  1
  H+  H102  1  0.25080235  0.79687544  0.69963761  1
  H+  H103  1  0.04353367  0.52272773  0.01031950  1
  H+  H104  1  0.82091018  0.65809705  0.50158583  1
  H+  H105  1  0.11109509  0.54540145  0.65226449  1
  H+  H106  1  0.82147414  0.85201961  0.74376188  1
  H+  H107  1  0.87602405  0.16444082  0.79525515  1
  H+  H108  1  0.44896100  0.20229027  0.09838390  1
  H+  H109  1  0.89151285  0.78145409  0.84888880  1
  H+  H110  1  0.89055041  0.44992250  0.84732691  1
  H+  H111  1  0.11919218  0.22600316  0.15535677  1
  H+  H112  1  0.02707421  0.97182519  0.09727073  1
  H+  H113  1  0.47848063  0.64834503  0.09917922  1
  H+  H114  1  0.43780074  0.54778348  0.59378924  1
  H+  H115  1  0.11783746  0.55358088  0.15695897  1
  H+  H116  1  0.23111776  0.12566065  0.40039720  1
  H+  H117  1  0.54620107  0.77324832  0.41107905  1
  H+  H118  1  0.26890376  0.75585048  0.88716539  1
  H+  H119  1  0.78625189  0.56458963  0.09561682  1
  H+  H120  1  0.10306180  0.89541464  0.17572085  1
  H+  H121  1  0.18482447  0.36257960  0.48778229  1
  H+  H122  1  0.44750181  0.89152029  0.60775019  1
  H+  H123  1  0.78280610  0.23377245  0.57996476  1
  H+  H124  1  0.87937682  0.10568697  0.34152133  1
  H+  H125  1  0.76413440  0.86149625  0.10514329  1
  H+  H126  1  0.14700499  0.62584760  0.25114936  1
  H+  H127  1  0.21393454  0.43923722  0.36975340  1
  H+  H128  1  0.95911178  0.47850116  0.25145622  1
  H+  H129  1  0.59965956  0.69247175  0.31258034  1
  H+  H130  1  0.81925907  0.18823020  0.23789638  1
  H+  H131  1  0.52380214  0.88239809  0.05921029  1
  H+  H132  1  0.13255285  0.25200009  0.59565957  1
  H+  H133  1  0.55999356  0.11162269  0.40252530  1
  H+  H134  1  0.11220413  0.89985576  0.59892825  1
  H+  H135  1  0.20364442  0.76241373  0.36945838  1
  H+  H136  1  0.17397445  0.68204454  0.74977323  1
  H+  H137  1  0.88230927  0.46041607  0.56477733  1
  H+  H138  1  0.84803763  0.83164308  0.49499312  1
  H+  H139  1  0.79062119  0.23664393  0.10936022  1
  H+  H140  1  0.22077459  0.42724240  0.90506603  1
  H+  H141  1  0.88937440  0.79450625  0.40438431  1
  H+  H142  1  0.40784631  0.86355065  0.17578910  1
  H+  H143  1  0.90023686  0.09218315  0.86610452  1
  O2-  O144  1  0.11776036  0.22821942  0.22390160  1
  O2-  O145  1  0.12450170  0.23283854  0.71484910  1
  O2-  O146  1  0.11244023  0.54701770  0.22491149  1
  O2-  O147  1  0.10989572  0.54900165  0.72061796  1
  O2-  O148  1  0.10959170  0.89033015  0.24328846  1
  O2-  O149  1  0.11116212  0.90146853  0.72167681  1
  O2-  O150  1  0.44635364  0.21687403  0.21940960  1
  O2-  O151  1  0.44229509  0.22991414  0.72358488  1
  O2-  O152  1  0.43266280  0.64448198  0.15847536  1
  O2-  O153  1  0.43874356  0.54681773  0.70850939  1
  O2-  O154  1  0.43091414  0.87480744  0.23960554  1
  O2-  O155  1  0.46731190  0.89553833  0.73427413  1
  O2-  O156  1  0.77597029  0.22516273  0.21392145  1
  O2-  O157  1  0.77334159  0.21457300  0.71037849  1
  O2-  O158  1  0.77726486  0.56351063  0.21402841  1
  O2-  O159  1  0.78174704  0.56541753  0.71054893  1
  O2-  O160  1  0.78353466  0.89469027  0.21808044  1
  O2-  O161  1  0.77802866  0.89058473  0.72332078  1
  O2-  O162  1  0.23050863  0.12115725  0.28291670  1
  O2-  O163  1  0.23996609  0.12840182  0.75920146  1
  O2-  O164  1  0.21171118  0.43638724  0.28879265  1
  O2-  O165  1  0.22705739  0.44292006  0.78440310  1
  O2-  O166  1  0.20492028  0.76100249  0.30078109  1
  O2-  O167  1  0.22238717  0.76818644  0.76093889  1
  O2-  O168  1  0.55961530  0.11301271  0.28218995  1
  O2-  O169  1  0.56174154  0.12426899  0.77179631  1
  O2-  O170  1  0.55898894  0.43952937  0.28552123  1
  O2-  O171  1  0.55331034  0.44621663  0.77509451  1
  O2-  O172  1  0.57098944  0.74227734  0.29216126  1
  O2-  O173  1  0.55829099  0.76525168  0.77631128  1
  O2-  O174  1  0.88478760  0.11216965  0.27160172  1
  O2-  O175  1  0.90565559  0.11173833  0.79952639  1
  O2-  O176  1  0.87704560  0.43649209  0.26751370  1
  O2-  O177  1  0.88910505  0.44589331  0.77885976  1
  O2-  O178  1  0.88567766  0.78056115  0.28883243  1
  O2-  O179  1  0.89205233  0.78506476  0.78045136  1
  O2-  O180  1  0.22245202  0.12869206  0.46780196  1
  O2-  O181  1  0.22262514  0.09071301  0.98222921  1
  O2-  O182  1  0.22305443  0.44681186  0.45412985  1
  O2-  O183  1  0.21365503  0.41682395  0.97216405  1
  O2-  O184  1  0.21422699  0.77334077  0.48469720  1
  O2-  O185  1  0.27876848  0.76292240  0.95388826  1
  O2-  O186  1  0.57389607  0.11503893  0.46912537  1
  O2-  O187  1  0.58834349  0.11841679  0.95287482  1
  O2-  O188  1  0.55554371  0.44492973  0.46176095  1
  O2-  O189  1  0.57454296  0.48773700  0.94907438  1
  O2-  O190  1  0.54306531  0.77525607  0.47818090  1
  O2-  O191  1  0.48848627  0.68615058  0.94312370  1
  O2-  O192  1  0.86998588  0.09679660  0.44729985  1
  O2-  O193  1  0.87561235  0.06002292  0.97862313  1
  O2-  O194  1  0.89748370  0.45656389  0.50030216  1
  O2-  O195  1  0.90487765  0.46600427  0.96474495  1
  O2-  O196  1  0.89244222  0.79507927  0.47267526  1
  O2-  O197  1  0.89201986  0.78088021  0.96485538  1
  O2-  O198  1  0.11518858  0.21215652  0.04028507  1
  O2-  O199  1  0.13733633  0.25758203  0.52810398  1
  O2-  O200  1  0.12007522  0.54844586  0.03863453  1
  O2-  O201  1  0.12295123  0.55285934  0.53456299  1
  O2-  O202  1  0.06485371  0.93150687  0.07424229  1
  O2-  O203  1  0.11534923  0.89713458  0.53141997  1
  O2-  O204  1  0.43967127  0.19147510  0.03145180  1
  O2-  O205  1  0.39896281  0.15300143  0.51600531  1
  O2-  O206  1  0.55398289  0.67092242  0.01765174  1
  O2-  O207  1  0.44330858  0.55518214  0.52544180  1
  O2-  O208  1  0.50242057  0.88974938  -0.00277557  1
  O2-  O209  1  0.43570289  0.88718859  0.54101153  1
  O2-  O210  1  0.80206551  0.24182029  0.03922817  1
  O2-  O211  1  0.78555179  0.23199243  0.51301759  1
  O2-  O212  1  0.79314019  0.56445425  0.02776165  1
  O2-  O213  1  0.77964333  0.57508252  0.52106436  1
  O2-  O214  1  0.75483650  0.84816399  0.03778513  1
  O2-  O215  1  0.76716233  0.88625734  0.53548481  1
