# generated using pymatgen
data_H2O
_symmetry_space_group_name_H-M   'P 1'
_cell_length_a   13.49578043
_cell_length_b   13.49683116
_cell_length_c   14.67067925
_cell_angle_alpha   89.93942665
_cell_angle_beta   90.02705962
_cell_angle_gamma   119.99855684
_symmetry_Int_Tables_number   1
_chemical_formula_structural   H2O
_chemical_formula_sum   'H144 O72'
_cell_volume   2314.28448905
_cell_formula_units_Z   72
loop_
 _symmetry_equiv_pos_site_id
 _symmetry_equiv_pos_as_xyz
  1  'x, y, z'
loop_
 _atom_type_symbol
 _atom_type_oxidation_number
  H+  1.0
  O2-  -2.0
loop_
 _atom_site_type_symbol
 _atom_site_label
 _atom_site_symmetry_multiplicity
 _atom_site_fract_x
 _atom_site_fract_y
 _atom_site_fract_z
 _atom_site_occupancy
  H+  H0  1  0.48636638  0.64778883  0.01269102  1
  H+  H1  1  0.29625928  0.14622151  0.00612311  1
  H+  H2  1  0.01912265  0.17425037  0.55043154  1
  H+  H3  1  0.33822079  0.47865944  0.24140549  1
  H+  H4  1  0.86128964  0.52707092  0.74270211  1
  H+  H5  1  0.63810182  0.81578421  0.77291587  1
  H+  H6  1  0.78714519  0.89197578  0.08652286  1
  H+  H7  1  0.82902612  0.13139803  0.56406905  1
  H+  H8  1  -0.03395134  0.81165469  -0.02349388  1
  H+  H9  1  0.16746316  0.35148927  0.49041993  1
  H+  H10  1  0.91845001  0.45212321  0.84409809  1
  H+  H11  1  0.64908242  0.50352119  0.27681610  1
  H+  H12  1  0.51168084  0.47863780  0.77351334  1
  H+  H13  1  0.83474061  0.86217329  0.49903975  1
  H+  H14  1  0.16449043  0.35587859  0.24616965  1
  H+  H15  1  0.50339513  0.48535449  1.00683713  1
  H+  H16  1  0.99319466  0.82309665  0.74975899  1
  H+  H17  1  0.52010025  0.81645525  0.76504277  1
  H+  H18  1  0.17221548  0.47143882  0.48659717  1
  H+  H19  1  0.82499608  0.31573624  0.74355929  1
  H+  H20  1  0.96679630  0.47730382  0.49978948  1
  H+  H21  1  0.17735767  0.14619651  1.02862014  1
  H+  H22  1  0.19415755  0.80728154  0.99747769  1
  H+  H23  1  0.30092025  0.48919593  1.00176130  1
  H+  H24  1  0.14681419  0.50451790  0.02005703  1
  H+  H25  1  0.17387318  0.85324882  0.74896769  1
  H+  H26  1  0.67808069  0.48412870  0.54139305  1
  H+  H27  1  0.50021563  0.31194167  0.27083587  1
  H+  H28  1  0.20297291  0.81138533  0.49322580  1
  H+  H29  1  0.16207582  0.32026834  0.75420553  1
  H+  H30  1  0.90891570  0.12629932  0.90821813  1
  H+  H31  1  0.81999429  0.84917129  -0.00505508  1
  H+  H32  1  0.47268602  0.62002925  0.75243267  1
  H+  H33  1  0.86478269  0.83446948  0.24610002  1
  H+  H34  1  0.81201502  0.15317158  1.01136147  1
  H+  H35  1  0.53411985  0.71477031  0.25927397  1
  H+  H36  1  0.36309636  0.18570312  0.76725166  1
  H+  H37  1  0.61718078  0.47658213  0.99252333  1
  H+  H38  1  0.53977300  0.09795163  0.88371457  1
  H+  H39  1  0.52799705  0.03231598  0.26014458  1
  H+  H40  1  0.16625544  0.97021115  0.75168336  1
  H+  H41  1  0.19606401  0.81427567  0.25941796  1
  H+  H42  1  0.71493393  0.86697833  0.22792970  1
  H+  H43  1  0.14557116  0.51057817  0.24626945  1
  H+  H44  1  0.07493794  0.01179953  0.43685537  1
  H+  H45  1  0.19359667  0.18417072  0.24265700  1
  H+  H46  1  0.85423324  0.64788460  0.73483799  1
  H+  H47  1  0.97415475  0.49577667  0.26628768  1
  H+  H48  1  0.50515003  0.15395406  0.75931288  1
  H+  H49  1  0.73017727  0.52445655  -0.11894869  1
  H+  H50  1  0.47015187  0.28274370  0.50147713  1
  H+  H51  1  0.18812191  0.36901266  1.01908878  1
  H+  H52  1  0.46611981  0.28579394  0.00979866  1
  H+  H53  1  0.35065875  0.50052989  0.75098351  1
  H+  H54  1  0.16735486  0.96139537  0.51155982  1
  H+  H55  1  0.46581819  0.16810391  -0.00745891  1
  H+  H56  1  0.86310291  0.03304819  0.98798418  1
  H+  H57  1  0.19556175  0.69635399  0.26159052  1
  H+  H58  1  0.82797442  0.85760247  0.75000403  1
  H+  H59  1  0.63958929  0.82184129  0.98846469  1
  H+  H60  1  0.52406392  0.48946168  0.27744452  1
  H+  H61  1  0.62730379  1.15646149  0.75650828  1
  H+  H62  1  0.17095445  0.50258466  0.74690109  1
  H+  H63  1  -0.00874875  0.17119798  0.20209417  1
  H+  H64  1  0.82477441  0.97216377  0.76821753  1
  H+  H65  1  0.15144612  0.97512245  -0.00033180  1
  H+  H66  1  -0.02461214  0.48185464  -0.00476426  1
  H+  H67  1  0.77989034  0.23880627  0.15292434  1
  H+  H68  1  0.64476743  0.15351532  0.26386892  1
  H+  H69  1  0.80721116  -0.04952217  0.55576513  1
  H+  H70  1  0.31638173  0.81605631  0.76384836  1
  H+  H71  1  0.85455133  0.37867167  0.26275058  1
  H+  H72  1  0.85589682  0.36510960  -0.01301811  1
  H+  H73  1  0.61798211  0.13624792  0.97340200  1
  H+  H74  1  0.39091599  0.41873071  0.18547840  1
  H+  H75  1  0.37461254  0.84839353  0.24124570  1
  H+  H76  1  0.51035049  0.13556891  0.48678184  1
  H+  H77  1  0.15427682  0.62633151  0.51225908  1
  H+  H78  1  0.48241289  0.30343695  0.76310681  1
  H+  H79  1  0.70230784  0.09500864  0.07164524  1
  H+  H80  1  0.78574584  0.54015283  0.64348655  1
  H+  H81  1  0.83511604  0.20194452  0.22911944  1
  H+  H82  1  0.37964479  0.83682343  0.50753921  1
  H+  H83  1  0.48649858  0.96940760  0.73576521  1
  H+  H84  1  0.52600737  0.82897829  0.25233546  1
  H+  H85  1  0.83062213  0.52647358  0.24920929  1
  H+  H86  1  0.48537916  0.18845617  0.26230324  1
  H+  H87  1  0.16816292  0.62709654  0.74270477  1
  H+  H88  1  0.17279642  1.14719275  0.77951634  1
  H+  H89  1  0.86038736  0.71383584  0.25854690  1
  H+  H90  1  0.83341249  -0.01387649  0.21402347  1
  H+  H91  1  0.50677150  0.47166302  0.51831113  1
  H+  H92  1  0.99415960  0.84534493  0.48192928  1
  H+  H93  1  0.69161277  0.17451158  0.51555568  1
  H+  H94  1  0.04436393  0.84651737  0.23190587  1
  H+  H95  1  0.80108237  0.48458466  0.52993062  1
  H+  H96  1  0.13202786  0.88707232  -0.07629757  1
  H+  H97  1  0.81427851  0.29201553  0.51423768  1
  H+  H98  1  0.54109085  0.83145663  0.48842035  1
  H+  H99  1  0.48016570  0.96414268  0.00250122  1
  H+  H100  1  0.31289498  0.18974767  0.27155183  1
  H+  H101  1  0.00332224  0.49157891  0.75523928  1
  H+  H102  1  0.12570363  0.16729592  0.51205912  1
  H+  H103  1  0.03587414  0.18960591  0.05133217  1
  H+  H104  1  0.86805931  0.08928909  0.65099468  1
  H+  H105  1  0.92003177  0.12997385  0.29788855  1
  H+  H106  1  0.35625482  0.16762941  0.47881034  1
  H+  H107  1  0.49317277  0.96079010  0.50931193  1
  H+  H108  1  0.12172231  0.87014340  0.14533773  1
  H+  H109  1  0.31267057  0.80798124  1.00127926  1
  H+  H110  1  0.13824521  0.89020585  0.60411242  1
  H+  H111  1  0.45227205  0.88333815  0.65097019  1
  H+  H112  1  0.84593375  0.69350888  0.95852416  1
  H+  H113  1  0.45243127  0.89121255  0.15021503  1
  H+  H114  1  0.92943551  0.83184012  0.38524722  1
  H+  H115  1  0.23898697  0.77177491  0.85455904  1
  H+  H116  1  0.68758888  0.83868889  0.49612540  1
  H+  H117  1  0.98387199  0.17619531  0.76534780  1
  H+  H118  1  0.23739163  0.77076262  0.40204542  1
  H+  H119  1  0.56272244  0.10094562  0.40420070  1
  H+  H120  1  0.58699457  0.80450249  0.39324738  1
  H+  H121  1  0.43979889  0.56274812  0.10115504  1
  H+  H122  1  0.22071024  0.44411730  0.84401243  1
  H+  H123  1  0.20168173  0.42090704  0.34584899  1
  H+  H124  1  0.12334454  0.22966501  0.66933417  1
  H+  H125  1  0.18440691  0.11129125  0.38579206  1
  H+  H126  1  0.77422129  0.23038674  0.65887155  1
  H+  H127  1  0.35936772  0.49889933  0.52420172  1
  H+  H128  1  0.86001772  0.17420088  0.76819188  1
  H+  H129  1  0.55480918  0.77869241  0.90185179  1
  H+  H130  1  0.43087535  0.53379175  0.61723393  1
  H+  H131  1  0.49163227  0.85062118  0.00940063  1
  H+  H132  1  0.20395557  0.10496408  0.87108165  1
  H+  H133  1  0.11772591  0.54900463  0.60298368  1
  H+  H134  1  0.53292109  0.43447748  0.86673463  1
  H+  H135  1  0.84138672  0.03360854  0.40342278  1
  H+  H136  1  0.90622866  0.78272162  0.83450462  1
  H+  H137  1  0.56127873  0.44930629  0.42883202  1
  H+  H138  1  0.15028067  0.62487309  0.01707497  1
  H+  H139  1  0.78478893  0.56102316  0.16144830  1
  H+  H140  1  0.90254241  0.04672784  0.40093111  1
  H+  H141  1  0.88816085  0.44321136  0.41081770  1
  H+  H142  1  0.80937415  0.50564202  -0.04875425  1
  H+  H143  1  0.10829061  0.55202869  0.15710804  1
  O2-  O144  1  0.10497227  0.22769746  0.17634129  1
  O2-  O145  1  0.11806272  0.23138093  0.73672493  1
  O2-  O146  1  0.10959168  0.55618662  0.22544325  1
  O2-  O147  1  0.12682658  0.54730813  0.72017595  1
  O2-  O148  1  0.12390561  0.87218742  0.21164757  1
  O2-  O149  1  0.13295720  0.89229616  0.72362376  1
  O2-  O150  1  0.44975203  0.23453975  0.24628327  1
  O2-  O151  1  0.44159116  0.22166823  0.74275352  1
  O2-  O152  1  0.41201910  0.49379371  0.21073622  1
  O2-  O153  1  0.43576217  0.53961985  0.73183481  1
  O2-  O154  1  0.45608370  0.89019611  0.21850484  1
  O2-  O155  1  0.45062323  0.88656901  0.71896365  1
  O2-  O156  1  0.78919155  0.24161871  0.21984389  1
  O2-  O157  1  0.77810926  0.23298792  0.72709567  1
  O2-  O158  1  0.78984217  0.56855686  0.22757370  1
  O2-  O159  1  0.81373238  0.56255061  0.72107955  1
  O2-  O160  1  0.79311703  0.90139907  0.20137060  1
  O2-  O161  1  0.77946147  0.89304789  0.74554673  1
  O2-  O162  1  0.23451642  0.17032493  0.29236657  1
  O2-  O163  1  0.20680770  0.10102524  0.80353162  1
  O2-  O164  1  0.20676726  0.43171672  0.27738515  1
  O2-  O165  1  0.22103097  0.44155963  0.77731211  1
  O2-  O166  1  0.23983640  0.77733329  0.28334773  1
  O2-  O167  1  0.23551186  0.77720642  0.78718266  1
  O2-  O168  1  0.56574797  0.10976222  0.28839109  1
  O2-  O169  1  0.54575922  0.10835527  0.77440907  1
  O2-  O170  1  0.57297644  0.46310654  0.30660720  1
  O2-  O171  1  0.55430585  0.44295297  0.80151918  1
  O2-  O172  1  0.57480692  0.79574831  0.27536028  1
  O2-  O173  1  0.55559888  0.77367160  0.79202615  1
  O2-  O174  1  0.90496636  0.12884808  0.23260693  1
  O2-  O175  1  0.89967188  0.13045419  0.78385715  1
  O2-  O176  1  0.89257043  0.45809752  0.28830069  1
  O2-  O177  1  0.91877129  0.45637959  0.77653752  1
  O2-  O178  1  0.90515251  0.79668421  0.27392664  1
  O2-  O179  1  0.90966097  0.77986239  0.76665584  1
  O2-  O180  1  0.15286754  0.07656600  0.44853874  1
  O2-  O181  1  0.20886039  0.10552563  0.99356677  1
  O2-  O182  1  0.20793122  0.42827452  0.46058383  1
  O2-  O183  1  0.21764345  0.44320614  0.98717130  1
  O2-  O184  1  0.23950452  0.76758030  0.47016708  1
  O2-  O185  1  0.23147032  0.76376276  0.97805228  1
  O2-  O186  1  0.55780417  0.09872651  0.47246154  1
  O2-  O187  1  0.53756591  0.09483788  0.95312390  1
  O2-  O188  1  0.55243922  0.43444532  0.49544680  1
  O2-  O189  1  0.53292946  0.43312776  0.98972242  1
  O2-  O190  1  0.59043412  0.80214658  0.46097008  1
  O2-  O191  1  0.55681476  0.78176278  0.97135856  1
  O2-  O192  1  0.86735241  0.08730876  0.58382102  1
  O2-  O193  1  0.90357744  0.11777922  0.97586427  1
  O2-  O194  1  0.88501020  0.43527604  0.47844584  1
  O2-  O195  1  0.89727933  0.44366838  0.96463012  1
  O2-  O196  1  0.94409899  0.86653196  0.44775193  1
  O2-  O197  1  0.88667669  0.77849300  0.95235218  1
  O2-  O198  1  0.11583409  0.22954014  0.07511365  1
  O2-  O199  1  0.10368097  0.21800676  0.54580855  1
  O2-  O200  1  0.10380137  0.54471748  0.04025695  1
  O2-  O201  1  0.10801850  0.54600434  0.53482024  1
  O2-  O202  1  0.11602476  0.88796413  -0.01146249  1
  O2-  O203  1  0.13596983  0.88304937  0.53622838  1
  O2-  O204  1  0.42329424  0.20224015  0.02094580  1
  O2-  O205  1  0.43257093  0.19778097  0.50428904  1
  O2-  O206  1  0.44294038  0.56581026  0.03366295  1
  O2-  O207  1  0.43721024  0.53246186  0.54915607  1
  O2-  O208  1  0.44845192  0.88793848  0.03398242  1
  O2-  O209  1  0.46021779  0.87965608  0.53118391  1
  O2-  O210  1  0.75011034  0.16645443  0.03886761  1
  O2-  O211  1  0.77063854  0.21465794  0.54288692  1
  O2-  O212  1  0.76408223  0.54489800  -0.05763672  1
  O2-  O213  1  0.76136463  0.52045235  0.56188971  1
  O2-  O214  1  0.78380403  0.89326062  0.01816794  1
  O2-  O215  1  0.77355303  0.86864725  0.53417957  1
