# generated using pymatgen
data_H2O
_symmetry_space_group_name_H-M   'P 1'
_cell_length_a   13.50973468
_cell_length_b   13.49846109
_cell_length_c   14.67646304
_cell_angle_alpha   89.95706860
_cell_angle_beta   89.96782459
_cell_angle_gamma   120.00600432
_symmetry_Int_Tables_number   1
_chemical_formula_structural   H2O
_chemical_formula_sum   'H144 O72'
_cell_volume   2317.69594151
_cell_formula_units_Z   72
loop_
 _symmetry_equiv_pos_site_id
 _symmetry_equiv_pos_as_xyz
  1  'x, y, z'
loop_
 _atom_type_symbol
 _atom_type_oxidation_number
  H+  1.0
  O2-  -2.0
loop_
 _atom_site_type_symbol
 _atom_site_label
 _atom_site_symmetry_multiplicity
 _atom_site_fract_x
 _atom_site_fract_y
 _atom_site_fract_z
 _atom_site_occupancy
  H+  H0  1  0.03288495  0.53398862  0.50732678  1
  H+  H1  1  0.82395918  0.17514132  0.23577796  1
  H+  H2  1  0.63394559  0.82366191  -0.00063745  1
  H+  H3  1  0.48275494  0.27845125  0.23933881  1
  H+  H4  1  0.15658681  0.81150515  0.76542945  1
  H+  H5  1  0.82024159  0.98358961  0.02215593  1
  H+  H6  1  0.68533108  0.53980120  0.03945288  1
  H+  H7  1  0.18033059  0.83119556  0.71808660  1
  H+  H8  1  0.68422464  0.84733889  0.47823435  1
  H+  H9  1  0.70480207  0.17414884  0.74903996  1
  H+  H10  1  0.17332486  0.17911597  0.26726316  1
  H+  H11  1  0.80032406  0.84372908  0.48635272  1
  H+  H12  1  0.90279467  0.11955039  0.36104506  1
  H+  H13  1  0.84370781  0.69985951  0.99037070  1
  H+  H14  1  -0.00715546  0.48614001  0.00215495  1
  H+  H15  1  0.35301115  0.92189005  0.71388099  1
  H+  H16  1  0.30310120  0.80503149  0.25164107  1
  H+  H17  1  -0.00294282  0.16472277  0.28001643  1
  H+  H18  1  1.03261578  0.16174676  0.73501481  1
  H+  H19  1  0.86765179  0.62220660  0.25853953  1
  H+  H20  1  -0.00368394  0.87759947  0.80128179  1
  H+  H21  1  0.15274153  0.30443645  0.50975202  1
  H+  H22  1  0.82062081  0.77564762  0.74399096  1
  H+  H23  1  0.14497968  0.49160565  0.74387294  1
  H+  H24  1  0.21959666  0.65815577  0.78566751  1
  H+  H25  1  0.90865411  0.44050167  0.91223019  1
  H+  H26  1  0.38310164  0.58204696  0.26401336  1
  H+  H27  1  0.89481662  0.78653416  0.55361219  1
  H+  H28  1  0.86282047  0.35218671  0.77676314  1
  H+  H29  1  0.13604891  0.90623739  0.55616796  1
  H+  H30  1  0.17091658  0.34488932  0.76011492  1
  H+  H31  1  0.30735066  0.81280008  1.00498746  1
  H+  H32  1  0.51158244  0.14096916  -0.01959984  1
  H+  H33  1  0.51520210  0.13868042  0.48050181  1
  H+  H34  1  0.64703549  0.46008731  0.56567082  1
  H+  H35  1  0.89195784  0.45988900  0.36429208  1
  H+  H36  1  0.16567075  0.84746327  0.01327102  1
  H+  H37  1  0.33307953  0.77981927  0.78208685  1
  H+  H38  1  0.81233790  0.59605166  0.73112786  1
  H+  H39  1  -0.01861080  0.47258944  0.77370260  1
  H+  H40  1  0.86814369  0.67061032  0.50718082  1
  H+  H41  1  0.84636891  0.01310826  0.75139197  1
  H+  H42  1  0.15209815  0.63495079  0.24181777  1
  H+  H43  1  0.18319266  1.03126441  -0.00314709  1
  H+  H44  1  0.85877355  1.00283201  0.26129649  1
  H+  H45  1  0.36802816  0.15851018  0.23560656  1
  H+  H46  1  -0.01785096  0.82746926  0.26665051  1
  H+  H47  1  0.10503337  0.99462682  0.82438968  1
  H+  H48  1  0.94815787  0.39513448  0.40850894  1
  H+  H49  1  0.55161080  0.44407431  0.92364516  1
  H+  H50  1  0.46392643  0.80454065  0.22769225  1
  H+  H51  1  0.15781093  0.18943848  0.49376001  1
  H+  H52  1  0.21635263  0.39813159  0.29199122  1
  H+  H53  1  0.19345859  0.48932385  -0.00560436  1
  H+  H54  1  0.21530015  0.43010174  0.84586966  1
  H+  H55  1  0.55298631  0.47145440  0.22608367  1
  H+  H56  1  0.36760160  0.18217045  1.01456885  1
  H+  H57  1  0.31109595  0.48824796  0.99578803  1
  H+  H58  1  0.80340044  0.28914626  0.50527911  1
  H+  H59  1  0.84868766  0.13370052  0.75519981  1
  H+  H60  1  0.83801886  0.49651223  0.50770005  1
  H+  H61  1  0.84779185  0.86659741  0.25641943  1
  H+  H62  1  0.51120379  0.71878695  0.46701556  1
  H+  H63  1  0.20180238  0.82024778  0.47260349  1
  H+  H64  1  0.50697389  1.02079743  -0.01525833  1
  H+  H65  1  0.38407562  0.18867196  0.49225872  1
  H+  H66  1  0.46448795  0.55131243  0.47192312  1
  H+  H67  1  0.19458595  0.04152463  0.45249208  1
  H+  H68  1  0.38062884  0.17347186  0.74090430  1
  H+  H69  1  0.45076130  0.21260803  0.10053200  1
  H+  H70  1  0.18063044  0.14957039  0.99642010  1
  H+  H71  1  0.55304069  0.46468324  0.50225521  1
  H+  H72  1  0.10971281  0.55173118  0.66326961  1
  H+  H73  1  0.83667487  0.19285524  1.00505819  1
  H+  H74  1  0.63116252  0.13296841  0.48559443  1
  H+  H75  1  0.24035256  0.12792196  0.37196615  1
  H+  H76  1  0.36319805  0.84644752  0.50285283  1
  H+  H77  1  0.48526360  0.98939277  0.73975520  1
  H+  H78  1  0.50184776  0.29614899  0.53124277  1
  H+  H79  1  0.29784198  0.50116473  0.49940589  1
  H+  H80  1  0.50916992  0.35659864  1.00702416  1
  H+  H81  1  0.83300156  0.48911923  0.74498343  1
  H+  H82  1  0.81047064  0.86231992  0.03651246  1
  H+  H83  1  0.15604714  0.64483773  0.51166305  1
  H+  H84  1  0.48907212  0.97778455  0.50338440  1
  H+  H85  1  0.15339896  0.96328379  0.24027318  1
  H+  H86  1  0.91606273  0.82277184  0.93447008  1
  H+  H87  1  -0.02903465  0.15039372  0.49635268  1
  H+  H88  1  0.22015477  0.11350095  0.18494830  1
  H+  H89  1  0.48207838  0.84427397  0.00768660  1
  H+  H90  1  0.69375834  0.83824523  0.73099437  1
  H+  H91  1  0.15836117  0.31707501  -0.00368277  1
  H+  H92  1  0.51555535  0.80711401  0.76424080  1
  H+  H93  1  0.48660075  0.52169869  0.03044917  1
  H+  H94  1  0.04523762  0.83534881  0.00524340  1
  H+  H95  1  0.86324262  0.34148296  1.00924957  1
  H+  H96  1  -0.03159246  0.15011401  -0.02596901  1
  H+  H97  1  0.84810268  0.03153993  0.49006502  1
  H+  H98  1  0.17135231  0.48455968  0.50851145  1
  H+  H99  1  0.96984527  0.50945901  0.23312136  1
  H+  H100  1  0.52143838  0.63080857  0.71945598  1
  H+  H101  1  0.51632779  0.12314004  0.24660957  1
  H+  H102  1  0.81561870  0.17850466  0.51137351  1
  H+  H103  1  0.04297371  0.83517256  0.48413101  1
  H+  H104  1  0.16318138  0.63651914  1.01848526  1
  H+  H105  1  0.52818889  0.14720241  0.75679533  1
  H+  H106  1  0.18565726  0.81141546  0.26081794  1
  H+  H107  1  0.47822955  0.93472393  0.23421906  1
  H+  H108  1  0.23911656  0.75422878  0.91625637  1
  H+  H109  1  0.90114744  0.78861146  0.35596878  1
  H+  H110  1  0.43424340  0.90164704  0.60314421  1
  H+  H111  1  0.81387477  0.53225500  0.60940912  1
  H+  H112  1  0.79832763  0.91391121  0.16866372  1
  H+  H113  1  0.16428388  0.26917148  0.20396156  1
  H+  H114  1  0.55781794  0.09962712  0.84997865  1
  H+  H115  1  0.60322754  0.58563492  0.40867218  1
  H+  H116  1  0.76432284  0.87291069  0.63735080  1
  H+  H117  1  0.78160128  0.21916593  0.65987707  1
  H+  H118  1  0.45177034  0.19940430  0.64859763  1
  H+  H119  1  0.52045732  0.44701822  0.33158932  1
  H+  H120  1  0.52159439  0.70045361  0.99438854  1
  H+  H121  1  0.22922580  0.47483940  0.37474246  1
  H+  H122  1  0.08789082  0.23309494  0.07741936  1
  H+  H123  1  0.44108424  0.87594228  0.10039674  1
  H+  H124  1  0.80034679  0.22950010  0.10242835  1
  H+  H125  1  0.07735869  0.95330876  0.65202922  1
  H+  H126  1  0.56363630  0.77771924  0.85203173  1
  H+  H127  1  0.85910216  0.72357065  0.82699168  1
  H+  H128  1  0.44352241  0.58101369  0.57636818  1
  H+  H129  1  0.10871525  0.87434533  0.15709562  1
  H+  H130  1  0.78945778  0.57983376  0.10878445  1
  H+  H131  1  0.53390564  0.53368597  0.66730859  1
  H+  H132  1  0.24207174  0.77238767  0.39054991  1
  H+  H133  1  0.45166837  0.58290043  0.10902213  1
  H+  H134  1  0.12260633  0.55265059  0.10586566  1
  H+  H135  1  0.11421885  0.20878662  0.64731617  1
  H+  H136  1  0.69865876  0.15786864  0.22621451  1
  H+  H137  1  0.24998944  0.13740280  0.85810092  1
  H+  H138  1  0.02445283  0.89474520  0.65442411  1
  H+  H139  1  0.87901215  0.09449518  0.89321321  1
  H+  H140  1  0.55670740  0.08380499  0.33370388  1
  H+  H141  1  0.15005516  0.51700136  0.25197223  1
  H+  H142  1  0.20302662  0.16184795  0.76496921  1
  H+  H143  1  0.55463178  0.76766763  0.36734949  1
  O2-  O144  1  0.14069283  0.23697808  0.26476259  1
  O2-  O145  1  0.11387897  0.20613629  0.71514138  1
  O2-  O146  1  0.10979755  0.55300062  0.22069899  1
  O2-  O147  1  0.11008508  0.54233923  0.73003632  1
  O2-  O148  1  0.10953425  0.87743587  0.22521813  1
  O2-  O149  1  0.02698395  0.94014008  0.84580342  1
  O2-  O150  1  0.45003952  0.19781031  0.21541800  1
  O2-  O151  1  0.45840854  0.20078116  0.71572373  1
  O2-  O152  1  0.45398258  0.61715079  0.22633415  1
  O2-  O153  1  0.48167820  0.56219331  0.68130251  1
  O2-  O154  1  0.42818971  0.85601129  0.20999009  1
  O2-  O155  1  0.42068785  0.91358587  0.70892921  1
  O2-  O156  1  0.77993000  0.20665888  0.20690251  1
  O2-  O157  1  0.78649183  0.21462273  0.72691187  1
  O2-  O158  1  0.88121506  0.58282418  0.20772454  1
  O2-  O159  1  0.79095051  0.51839479  0.70811356  1
  O2-  O160  1  0.81305492  0.91678115  0.23671503  1
  O2-  O161  1  0.77232076  0.87136069  0.70450468  1
  O2-  O162  1  0.21966834  0.10130660  0.25058998  1
  O2-  O163  1  0.24452812  0.12468129  0.79130608  1
  O2-  O164  1  0.23747457  0.47774590  0.30583358  1
  O2-  O165  1  0.20414110  0.42585119  0.77927927  1
  O2-  O166  1  0.22437701  0.76859930  0.28168697  1
  O2-  O167  1  0.28308927  0.71760412  0.82328153  1
  O2-  O168  1  0.55576233  0.08022850  0.26641613  1
  O2-  O169  1  0.56635868  0.10267071  0.78001819  1
  O2-  O170  1  0.52065683  0.40946401  0.27017912  1
  O2-  O171  1  0.56418468  0.42741708  0.56160546  1
  O2-  O172  1  0.51959278  0.73831350  0.25492311  1
  O2-  O173  1  0.56431072  0.77688348  0.78356908  1
  O2-  O174  1  0.91234325  0.11840327  0.29263221  1
  O2-  O175  1  0.88724297  0.09154644  0.77812516  1
  O2-  O176  1  0.88893950  0.48840937  0.25016621  1
  O2-  O177  1  0.90182060  0.43188318  0.80094224  1
  O2-  O178  1  0.90007217  0.79427728  0.28939608  1
  O2-  O179  1  0.86046570  0.73283303  0.75973667  1
  O2-  O180  1  0.23452087  0.12432353  0.43930813  1
  O2-  O181  1  0.22713130  0.11413805  0.98026641  1
  O2-  O182  1  0.21224730  0.44687228  0.48333102  1
  O2-  O183  1  0.23148621  0.44631767  0.97132099  1
  O2-  O184  1  0.24395900  0.77810264  0.45995954  1
  O2-  O185  1  0.22618352  0.76927481  0.98127635  1
  O2-  O186  1  0.55114099  0.09068435  0.46163517  1
  O2-  O187  1  0.54604480  0.09728353  0.95492643  1
  O2-  O188  1  0.53274461  0.51408277  0.41987003  1
  O2-  O189  1  0.54715563  0.44115689  0.98989092  1
  O2-  O190  1  0.56702943  0.78976580  0.43354097  1
  O2-  O191  1  0.55987105  0.77979946  0.96790610  1
  O2-  O192  1  0.89021479  0.11468021  0.47287176  1
  O2-  O193  1  0.88469049  0.10475447  0.96155325  1
  O2-  O194  1  0.90640754  0.43435410  0.42482681  1
  O2-  O195  1  0.91019253  0.44031822  0.98129887  1
  O2-  O196  1  0.90054063  0.75720046  0.49409356  1
  O2-  O197  1  0.90512924  0.74619983  0.94407521  1
  O2-  O198  1  0.10825277  0.23202586  0.01399409  1
  O2-  O199  1  0.11349109  0.22049786  0.52470561  1
  O2-  O200  1  0.12409789  0.55311198  0.03747784  1
  O2-  O201  1  0.10639343  0.56802326  0.53963816  1
  O2-  O202  1  0.12020935  0.88344495  0.03497284  1
  O2-  O203  1  0.12793034  0.88787190  0.49120285  1
  O2-  O204  1  0.44992983  0.22275917  0.03254523  1
  O2-  O205  1  0.45759723  0.20882412  0.52171154  1
  O2-  O206  1  0.44894341  0.56795045  0.04215349  1
  O2-  O207  1  0.42307564  0.58568752  0.51148989  1
  O2-  O208  1  0.44227182  0.88396962  0.03179330  1
  O2-  O209  1  0.44183660  0.89579192  0.53410187  1
  O2-  O210  1  0.81130801  0.24369494  0.03337591  1
  O2-  O211  1  0.76811605  0.21240014  0.53235226  1
  O2-  O212  1  0.75323445  0.60737590  0.06514443  1
  O2-  O213  1  0.81609858  0.54633588  0.53895563  1
  O2-  O214  1  0.77852287  0.90901755  0.05762141  1
  O2-  O215  1  0.76401662  0.88545401  0.51015706  1
