# generated using pymatgen
data_H2O
_symmetry_space_group_name_H-M   'P 1'
_cell_length_a   13.51579818
_cell_length_b   13.51077660
_cell_length_c   14.69562355
_cell_angle_alpha   90.03455319
_cell_angle_beta   89.97955360
_cell_angle_gamma   120.00322176
_symmetry_Int_Tables_number   1
_chemical_formula_structural   H2O
_chemical_formula_sum   'H144 O72'
_cell_volume   2323.94840153
_cell_formula_units_Z   72
loop_
 _symmetry_equiv_pos_site_id
 _symmetry_equiv_pos_as_xyz
  1  'x, y, z'
loop_
 _atom_type_symbol
 _atom_type_oxidation_number
  H+  1.0
  O2-  -2.0
loop_
 _atom_site_type_symbol
 _atom_site_label
 _atom_site_symmetry_multiplicity
 _atom_site_fract_x
 _atom_site_fract_y
 _atom_site_fract_z
 _atom_site_occupancy
  H+  H0  1  0.69363965  0.51412080  0.74032104  1
  H+  H1  1  0.17990900  0.70330236  1.01099792  1
  H+  H2  1  0.47912037  0.95148965  0.75856360  1
  H+  H3  1  0.83905626  0.47809882  0.75916360  1
  H+  H4  1  0.52320299  0.02578677  0.25169936  1
  H+  H5  1  0.20226115  0.70253493  0.54754893  1
  H+  H6  1  0.70975932  0.18298804  0.23441937  1
  H+  H7  1  0.49980079  0.20987111  0.54030136  1
  H+  H8  1  0.76086721  0.96789871  0.58450172  1
  H+  H9  1  1.03534760  0.85338570  0.74156592  1
  H+  H10  1  0.02125163  0.20993523  0.46986344  1
  H+  H11  1  0.50342321  0.80865145  0.00101525  1
  H+  H12  1  0.48959247  0.18124641  0.24211781  1
  H+  H13  1  0.21174592  0.38510889  0.48642622  1
  H+  H14  1  0.14186432  0.62737505  0.73946856  1
  H+  H15  1  0.46550711  0.51399716  0.24758874  1
  H+  H16  1  0.58401195  0.10568213  0.33654308  1
  H+  H17  1  0.49612206  0.32455644  0.52982528  1
  H+  H18  1  0.15277159  0.97501140  0.74566209  1
  H+  H19  1  0.52611169  0.08863113  0.67096085  1
  H+  H20  1  0.15511789  0.16701661  0.21296045  1
  H+  H21  1  0.15525932  0.97807816  0.23954425  1
  H+  H22  1  0.30265206  0.15040808  0.26290820  1
  H+  H23  1  0.97638050  0.15526388  0.73723614  1
  H+  H24  1  0.14516079  0.51375447  0.51668137  1
  H+  H25  1  0.32317139  0.50807009  0.49283707  1
  H+  H26  1  -0.07772702  0.85851272  0.55646909  1
  H+  H27  1  0.96703231  0.48500152  0.49466516  1
  H+  H28  1  0.48133435  0.64480220  0.24842878  1
  H+  H29  1  0.48926737  0.34809086  0.26085990  1
  H+  H30  1  0.14861673  0.52389942  0.00389737  1
  H+  H31  1  0.85874734  0.81438721  0.97747047  1
  H+  H32  1  0.12917527  0.12272320  0.47220165  1
  H+  H33  1  0.84516697  0.79130981  0.76604368  1
  H+  H34  1  0.11461501  0.54500373  0.14890723  1
  H+  H35  1  0.45954762  0.61722844  0.74712716  1
  H+  H36  1  0.18827171  0.70996908  0.21710266  1
  H+  H37  1  0.79863932  0.91441561  0.72250817  1
  H+  H38  1  0.30712814  0.82760865  0.01481226  1
  H+  H39  1  0.99911806  0.12256768  0.96585564  1
  H+  H40  1  0.36806527  0.85284658  0.22048787  1
  H+  H41  1  0.50435809  0.79884502  0.77512031  1
  H+  H42  1  0.16443712  0.14769670  1.07113374  1
  H+  H43  1  0.18171016  0.04238310  0.48239910  1
  H+  H44  1  1.02197062  0.50839853  0.74439729  1
  H+  H45  1  0.79884113  0.21872653  0.15353339  1
  H+  H46  1  0.82932348  0.55290595  0.50240167  1
  H+  H47  1  0.49073776  0.53218337  0.51094822  1
  H+  H48  1  0.48107855  0.51781124  0.01992717  1
  H+  H49  1  1.14611821  0.28976842  0.71522233  1
  H+  H50  1  0.62136098  0.49538958  0.00756730  1
  H+  H51  1  0.48463411  0.64933383  1.01848402  1
  H+  H52  1  0.07292565  0.84546731  0.50710089  1
  H+  H53  1  0.79813570  0.83145478  0.24598079  1
  H+  H54  1  0.84095293  0.36135923  0.75446703  1
  H+  H55  1  0.62804753  0.80477451  0.25715747  1
  H+  H56  1  0.18588549  0.14845909  0.74506096  1
  H+  H57  1  0.61242977  0.78097386  0.77018334  1
  H+  H58  1  0.03790147  0.50420686  0.24182195  1
  H+  H59  1  0.64388884  0.15001715  0.99860137  1
  H+  H60  1  0.59209446  0.46940371  0.24096123  1
  H+  H61  1  0.31116207  0.50538387  0.26129678  1
  H+  H62  1  0.36271195  0.19014373  0.76249045  1
  H+  H63  1  0.82638506  0.95948097  -0.01305586  1
  H+  H64  1  1.03340281  0.52761712  1.01047501  1
  H+  H65  1  0.83868927  0.17838241  0.01036280  1
  H+  H66  1  0.64007490  0.50434237  0.48702942  1
  H+  H67  1  0.18068471  0.50158349  0.25806381  1
  H+  H68  1  0.18846830  0.82861848  0.21363147  1
  H+  H69  1  0.28644671  0.79668294  0.75489697  1
  H+  H70  1  0.09558255  0.53876338  0.60821255  1
  H+  H71  1  0.21120112  0.11478785  0.34579462  1
  H+  H72  1  0.85788975  0.68245507  0.76023545  1
  H+  H73  1  0.04010008  0.15308506  0.17559167  1
  H+  H74  1  0.17519282  0.80612311  0.75050488  1
  H+  H75  1  0.68751672  0.20123183  0.49626185  1
  H+  H76  1  0.83490143  0.03457240  0.35839685  1
  H+  H77  1  0.83234430  0.29310173  0.00799420  1
  H+  H78  1  0.81753686  0.18722644  0.71534520  1
  H+  H79  1  0.53375160  0.72106506  0.49126134  1
  H+  H80  1  0.44465658  0.24195810  0.67406717  1
  H+  H81  1  0.48404076  -0.03289989  1.01426580  1
  H+  H82  1  0.28148906  0.46375454  0.75402248  1
  H+  H83  1  0.51644157  1.02551574  0.50832545  1
  H+  H84  1  0.84161596  0.46839400  0.98898397  1
  H+  H85  1  0.70383639  0.84463116  0.99680422  1
  H+  H86  1  0.76521651  0.54573816  0.27201657  1
  H+  H87  1  0.14429841  0.97479705  0.01645350  1
  H+  H88  1  0.81756942  0.85955559  0.50336140  1
  H+  H89  1  0.87774796  0.72074909  0.27666139  1
  H+  H90  1  0.77854073  0.82162762  0.64639245  1
  H+  H91  1  0.46872336  0.18556130  1.00982781  1
  H+  H92  1  0.38572108  0.85580900  0.54792582  1
  H+  H93  1  0.86414295  0.35386294  0.26196328  1
  H+  H94  1  0.83656167  0.12231274  0.28392636  1
  H+  H95  1  0.18163032  0.83227009  0.00935182  1
  H+  H96  1  0.80985329  0.65916007  0.02561111  1
  H+  H97  1  0.51488298  0.37144025  0.77207716  1
  H+  H98  1  0.95431913  0.23116409  0.80027834  1
  H+  H99  1  0.87563863  0.47893315  0.25795468  1
  H+  H100  1  0.17616263  0.37218521  0.98912876  1
  H+  H101  1  0.16456151  0.46642169  0.75209655  1
  H+  H102  1  0.69547051  0.18420188  0.71486348  1
  H+  H103  1  0.78999894  0.94202777  0.23930521  1
  H+  H104  1  0.48399236  0.84541826  0.24148996  1
  H+  H105  1  -0.02497834  0.84507002  0.26683026  1
  H+  H106  1  0.47008203  0.50625372  0.74022614  1
  H+  H107  1  0.21459213  0.82614375  0.55009428  1
  H+  H108  1  0.81755749  0.33397756  0.49504302  1
  H+  H109  1  0.56320855  0.11438719  0.91316608  1
  H+  H110  1  0.44382204  0.21923317  0.15524632  1
  H+  H111  1  0.12404618  0.90165791  0.60544458  1
  H+  H112  1  0.50628406  0.86498848  0.51849220  1
  H+  H113  1  0.77429035  0.23688768  0.58639789  1
  H+  H114  1  0.71764830  0.64913711  0.09423977  1
  H+  H115  1  0.45957693  0.88260092  0.66814661  1
  H+  H116  1  0.19661701  0.43162765  0.89314246  1
  H+  H117  1  0.44229503  0.56232451  0.11526565  1
  H+  H118  1  0.88429072  0.43853462  0.89804702  1
  H+  H119  1  0.26015412  0.80020111  0.35771180  1
  H+  H120  1  0.19299620  0.12272530  0.84893907  1
  H+  H121  1  0.10463708  0.89903604  0.15093884  1
  H+  H122  1  0.55128717  0.45096578  0.40397779  1
  H+  H123  1  0.51210738  0.16181702  0.74566022  1
  H+  H124  1  0.54531327  0.77345712  0.34708016  1
  H+  H125  1  0.45165624  0.89179396  0.10513166  1
  H+  H126  1  0.44453613  0.56423260  0.60074088  1
  H+  H127  1  0.64764045  0.84601618  0.46362242  1
  H+  H128  1  0.23269663  0.46851318  0.35724194  1
  H+  H129  1  0.89864685  0.75935500  0.90057740  1
  H+  H130  1  0.89753107  0.44803999  0.39910310  1
  H+  H131  1  0.53612527  0.75832476  0.91251587  1
  H+  H132  1  0.35218370  0.19030648  0.02026277  1
  H+  H133  1  0.90475153  0.10625273  0.89657519  1
  H+  H134  1  0.94358166  0.10124230  0.52638057  1
  H+  H135  1  0.81213261  0.66193815  0.52455784  1
  H+  H136  1  0.79904298  0.57524192  0.16746716  1
  H+  H137  1  0.55790361  0.46145349  0.85293427  1
  H+  H138  1  0.03335232  0.84852582  0.00510385  1
  H+  H139  1  0.50595629  0.37183226  0.99948324  1
  H+  H140  1  0.77231747  0.55269467  0.64984802  1
  H+  H141  1  0.27462901  0.78944590  0.40483596  1
  H+  H142  1  0.09602683  0.20584489  0.62689761  1
  H+  H143  1  0.48957162  0.10146480  0.43916765  1
  O2-  O144  1  0.12203063  0.19256919  0.16340856  1
  O2-  O145  1  0.10919941  0.20861256  0.69329872  1
  O2-  O146  1  0.11872887  0.54691570  0.21738263  1
  O2-  O147  1  0.10072176  0.54346763  0.71932915  1
  O2-  O148  1  0.11087836  0.89647755  0.21811797  1
  O2-  O149  1  0.11403255  0.89750014  0.71614703  1
  O2-  O150  1  0.44653754  0.21980298  0.22319097  1
  O2-  O151  1  0.44524945  0.23388279  0.74244681  1
  O2-  O152  1  0.43324362  0.56094578  0.22285173  1
  O2-  O153  1  0.42485262  0.54092374  0.71661168  1
  O2-  O154  1  0.45474169  0.89492616  0.21592459  1
  O2-  O155  1  0.44649316  0.87287575  0.73547428  1
  O2-  O156  1  0.79306296  0.22205615  0.22099929  1
  O2-  O157  1  0.77642470  0.22659059  0.69197984  1
  O2-  O158  1  0.82775287  0.56878241  0.22889630  1
  O2-  O159  1  0.77407307  0.54753455  0.71744287  1
  O2-  O160  1  0.74839284  0.86004847  0.22025743  1
  O2-  O161  1  0.75265930  0.83326573  0.70816757  1
  O2-  O162  1  0.22006782  0.11268302  0.27720865  1
  O2-  O163  1  0.22050016  0.11464378  0.78511148  1
  O2-  O164  1  0.22961584  0.46636895  0.28789119  1
  O2-  O165  1  0.19932362  0.41954026  0.77239493  1
  O2-  O166  1  0.23286129  0.78991300  0.19714010  1
  O2-  O167  1  0.20542939  0.75748463  0.77321934  1
  O2-  O168  1  0.56696571  0.10895442  0.27232736  1
  O2-  O169  1  0.55126253  0.11512101  0.73313739  1
  O2-  O170  1  0.52405729  0.43173282  0.27899166  1
  O2-  O171  1  0.55776738  0.45599684  0.78575960  1
  O2-  O172  1  0.54296166  0.76615906  0.27887652  1
  O2-  O173  1  0.53639416  0.75039910  0.79859788  1
  O2-  O174  1  0.86710815  0.07173724  0.29913188  1
  O2-  O175  1  0.91194003  0.15529926  0.77244840  1
  O2-  O176  1  0.90911866  0.43501749  0.28607511  1
  O2-  O177  1  0.87861335  0.43757014  0.78410913  1
  O2-  O178  1  0.89587368  0.79872964  0.29109610  1
  O2-  O179  1  0.89641637  0.76233505  0.78506087  1
  O2-  O180  1  0.19447535  0.11392466  0.45374272  1
  O2-  O181  1  0.19505903  0.12154147  1.01903472  1
  O2-  O182  1  0.24140339  0.46412714  0.46716764  1
  O2-  O183  1  0.19731282  0.44492500  0.95996574  1
  O2-  O184  1  0.25400630  0.78298793  0.56486906  1
  O2-  O185  1  0.22389889  0.78782665  0.99281074  1
  O2-  O186  1  0.54759723  0.10732780  0.48186795  1
  O2-  O187  1  0.56194207  0.11463535  0.97957538  1
  O2-  O188  1  0.55727081  0.46012092  0.47086544  1
  O2-  O189  1  0.54363556  0.45414638  0.98030410  1
  O2-  O190  1  0.55951497  0.79583681  0.46130383  1
  O2-  O191  1  0.53793004  0.76122681  0.98118194  1
  O2-  O192  1  0.79944320  0.01639861  0.53191761  1
  O2-  O193  1  0.91813626  0.10739567  0.96262125  1
  O2-  O194  1  0.88749958  0.44993212  0.46712149  1
  O2-  O195  1  0.89000126  0.43899964  0.96671863  1
  O2-  O196  1  0.84022954  0.80977327  0.54707883  1
  O2-  O197  1  0.89849192  0.76771014  0.96845701  1
  O2-  O198  1  0.13798804  0.14032506  -0.06034834  1
  O2-  O199  1  0.02564912  0.16182445  0.51711500  1
  O2-  O200  1  0.11328363  0.56681074  0.03382152  1
  O2-  O201  1  0.09722226  0.54481029  0.53922995  1
  O2-  O202  1  0.11325099  0.89170444  0.03047612  1
  O2-  O203  1  0.14115638  0.90376892  0.53783215  1
  O2-  O204  1  0.43531668  0.22990038  0.03582007  1
  O2-  O205  1  0.46252680  0.25104583  0.56325894  1
  O2-  O206  1  0.44610899  0.56424868  0.04560452  1
  O2-  O207  1  0.45003272  0.57269849  0.53267012  1
  O2-  O208  1  0.44167334  0.88657457  0.03635282  1
  O2-  O209  1  0.47262883  0.90690381  0.55174681  1
  O2-  O210  1  0.79327149  0.21340700  0.03154777  1
  O2-  O211  1  0.76964043  0.24585929  0.51686732  1
  O2-  O212  1  0.74729833  0.60209590  0.06875867  1
  O2-  O213  1  0.77894862  0.57777621  0.53059310  1
  O2-  O214  1  0.78627564  0.87480256  -0.01016917  1
  O2-  O215  1  0.77867799  0.93141615  0.45950358  1
