# generated using pymatgen
data_H2O
_symmetry_space_group_name_H-M   'P 1'
_cell_length_a   13.52308918
_cell_length_b   13.51918919
_cell_length_c   14.69821086
_cell_angle_alpha   90.01213427
_cell_angle_beta   90.02844207
_cell_angle_gamma   119.98723506
_symmetry_Int_Tables_number   1
_chemical_formula_structural   H2O
_chemical_formula_sum   'H144 O72'
_cell_volume   2327.43411693
_cell_formula_units_Z   72
loop_
 _symmetry_equiv_pos_site_id
 _symmetry_equiv_pos_as_xyz
  1  'x, y, z'
loop_
 _atom_type_symbol
 _atom_type_oxidation_number
  H+  1.0
  O2-  -2.0
loop_
 _atom_site_type_symbol
 _atom_site_label
 _atom_site_symmetry_multiplicity
 _atom_site_fract_x
 _atom_site_fract_y
 _atom_site_fract_z
 _atom_site_occupancy
  H+  H0  1  0.82783787  0.19583271  0.01504788  1
  H+  H1  1  0.81733445  0.49614002  0.22877393  1
  H+  H2  1  0.86549543  0.50209126  -0.01940855  1
  H+  H3  1  0.30169115  0.15651981  0.25453695  1
  H+  H4  1  0.61942287  0.45893834  0.49176277  1
  H+  H5  1  0.82311849  -0.00696574  0.51167472  1
  H+  H6  1  0.29864869  0.75348428  0.44192224  1
  H+  H7  1  0.11744261  -0.04685605  0.51306787  1
  H+  H8  1  0.81686264  0.29177480  0.73223783  1
  H+  H9  1  0.45507323  1.00022807  0.52886048  1
  H+  H10  1  0.84678583  0.35836164  0.25539323  1
  H+  H11  1  0.30015093  0.14870409  0.75994370  1
  H+  H12  1  0.04611033  0.52920625  0.01487130  1
  H+  H13  1  0.44032678  0.90697658  0.66580990  1
  H+  H14  1  0.81693641  0.63365936  0.01196733  1
  H+  H15  1  0.84314312  0.13708523  0.75018422  1
  H+  H16  1  0.90627471  0.46264048  0.89271813  1
  H+  H17  1  0.34293242  0.85161150  0.99228793  1
  H+  H18  1  0.82684417  0.63213403  0.74110967  1
  H+  H19  1  0.14607104  0.51247731  0.73639821  1
  H+  H20  1  0.15086502  0.63268220  0.74273547  1
  H+  H21  1  -0.03679453  0.14052083  0.75477146  1
  H+  H22  1  0.29392035  0.48141758  0.75683329  1
  H+  H23  1  0.14411150  -0.13872840  0.23150021  1
  H+  H24  1  0.96468990  0.47481356  0.75063389  1
  H+  H25  1  0.14724787  0.18348678  0.25493249  1
  H+  H26  1  0.38475234  0.52011707  0.24111711  1
  H+  H27  1  0.52311306  0.37672170  -0.01702114  1
  H+  H28  1  -0.02867380  0.15965494  0.49075477  1
  H+  H29  1  0.85406306  0.81865639  0.26298637  1
  H+  H30  1  0.48305026  0.63461439  0.74383486  1
  H+  H31  1  -0.01995118  0.80770784  0.76687326  1
  H+  H32  1  0.82400632  0.97011500  0.23702022  1
  H+  H33  1  0.70731481  0.85314626  0.22882522  1
  H+  H34  1  0.92654733  0.85109552  0.38966669  1
  H+  H35  1  -0.02638488  0.82721810  0.26126779  1
  H+  H36  1  0.52184494  0.47319813  0.24835228  1
  H+  H37  1  0.47131082  0.48165296  0.51623863  1
  H+  H38  1  0.51397854  0.82203840  0.98514193  1
  H+  H39  1  0.31558056  0.81583879  0.76471743  1
  H+  H40  1  0.22239781  0.53931182  0.27615343  1
  H+  H41  1  0.49756180  0.60631496  0.50855750  1
  H+  H42  1  0.12846713  0.95643295  -0.00216170  1
  H+  H43  1  0.51944676  0.49411784  0.98223450  1
  H+  H44  1  0.15055399  0.96058593  0.75140026  1
  H+  H45  1  -0.03643123  0.14640747  0.27165405  1
  H+  H46  1  0.82394011  0.95953281  0.74930147  1
  H+  H47  1  0.49522559  0.19270440  -0.00400879  1
  H+  H48  1  0.17050067  0.17550684  -0.01927271  1
  H+  H49  1  0.16240384  0.69892922  0.25529009  1
  H+  H50  1  0.14782540  0.30085938  0.51491655  1
  H+  H51  1  0.18004195  0.48571065  0.50220037  1
  H+  H52  1  0.43788828  0.21662639  0.64678296  1
  H+  H53  1  0.16096752  0.64649852  1.02543390  1
  H+  H54  1  0.18561780  0.49417319  -0.00982926  1
  H+  H55  1  0.17935378  0.69319037  0.48703612  1
  H+  H56  1  0.15703992  0.84569803  0.75271026  1
  H+  H57  1  0.79927301  0.62570328  0.51201343  1
  H+  H58  1  0.25742154  0.49406134  0.36251900  1
  H+  H59  1  0.79943122  0.82329304  1.00573984  1
  H+  H60  1  0.77406624  0.22543065  0.59116694  1
  H+  H61  1  0.64210548  0.81269354  0.76219245  1
  H+  H62  1  0.88870773  0.11591523  0.40189936  1
  H+  H63  1  0.33019516  0.84000611  0.23330490  1
  H+  H64  1  0.63097468  0.81473863  0.99191163  1
  H+  H65  1  0.10376411  0.89950851  0.14210054  1
  H+  H66  1  0.81904619  0.19311576  0.50218354  1
  H+  H67  1  0.84605133  0.14799404  0.26161185  1
  H+  H68  1  0.89039666  0.85234599  0.49396722  1
  H+  H69  1  0.14394884  0.29328540  0.74333211  1
  H+  H70  1  0.24657272  0.10324760  1.02410738  1
  H+  H71  1  0.86019871  0.80703640  0.76511965  1
  H+  H72  1  0.70211932  0.18237063  0.23937726  1
  H+  H73  1  0.84581551  0.47225932  0.75100914  1
  H+  H74  1  0.48020433  0.83827619  0.47213003  1
  H+  H75  1  0.88287912  0.44379561  0.34221622  1
  H+  H76  1  0.69230910  0.49749650  0.23224209  1
  H+  H77  1  0.51303235  0.14670744  0.24838321  1
  H+  H78  1  0.38175118  0.20021224  -0.01649514  1
  H+  H79  1  0.03180255  0.51669653  0.24413143  1
  H+  H80  1  0.70744391  0.93126963  0.56324367  1
  H+  H81  1  0.52039125  0.03755294  0.76399957  1
  H+  H82  1  0.48380138  0.30111650  0.73292485  1
  H+  H83  1  0.84731156  0.37073153  0.48530577  1
  H+  H84  1  0.46973041  0.17140467  0.50315329  1
  H+  H85  1  0.67859321  0.78717354  0.46887532  1
  H+  H86  1  0.50702495  0.02617501  0.24952713  1
  H+  H87  1  0.46770402  0.80676654  0.51722903  1
  H+  H88  1  0.02720051  0.51887809  0.50790157  1
  H+  H89  1  0.84750151  0.48863990  0.48549334  1
  H+  H90  1  0.18195714  0.03928576  0.25139450  1
  H+  H91  1  0.17684891  0.14843860  0.48871511  1
  H+  H92  1  -0.01063203  0.17964151  -0.02094022  1
  H+  H93  1  0.33349350  0.88782936  0.53653906  1
  H+  H94  1  0.63390071  0.15664224  0.48185532  1
  H+  H95  1  0.96173322  0.80327364  0.99406208  1
  H+  H96  1  0.50760512  0.03871616  0.98147932  1
  H+  H97  1  0.14214897  0.84255344  0.01159401  1
  H+  H98  1  0.51727006  0.48557360  0.75560590  1
  H+  H99  1  0.49279709  0.30207715  0.23245605  1
  H+  H100  1  0.34840419  0.16852642  0.50551544  1
  H+  H101  1  0.51806725  0.15503877  0.75485408  1
  H+  H102  1  0.55859983  0.76937019  0.46047308  1
  H+  H103  1  0.55865739  0.77919757  0.84823851  1
  H+  H104  1  0.49547386  0.85568377  0.74044265  1
  H+  H105  1  0.69616382  0.17733182  0.73295358  1
  H+  H106  1  0.48462614  0.63987494  0.00401428  1
  H+  H107  1  0.21494701  0.44997356  0.84429905  1
  H+  H108  1  0.77341981  0.87540947  0.09311623  1
  H+  H109  1  0.56213958  0.12361435  0.89728999  1
  H+  H110  1  0.77205265  0.53955147  0.13031728  1
  H+  H111  1  0.70346798  0.51713222  0.73785850  1
  H+  H112  1  0.88718275  0.75847992  0.90247942  1
  H+  H113  1  0.55256611  0.10982782  0.39343484  1
  H+  H114  1  0.36649574  0.52246334  -0.00147802  1
  H+  H115  1  0.44328009  0.55123234  0.65665226  1
  H+  H116  1  0.55310972  0.84819821  0.28854058  1
  H+  H117  1  0.22407413  0.10782797  0.85035618  1
  H+  H118  1  0.20424923  0.78106074  0.34220256  1
  H+  H119  1  0.77369768  0.55291412  0.60259736  1
  H+  H120  1  0.13146878  0.72930249  0.93427132  1
  H+  H121  1  0.44796872  0.22645985  0.14228108  1
  H+  H122  1  0.70439378  0.18448971  0.01737432  1
  H+  H123  1  0.11445483  0.55998386  0.15723669  1
  H+  H124  1  0.89707878  0.12792454  0.90065703  1
  H+  H125  1  0.16712542  0.25433076  0.06312512  1
  H+  H126  1  0.14779973  0.17633978  0.74483884  1
  H+  H127  1  0.69430939  0.51625816  1.00781627  1
  H+  H128  1  0.78243879  0.22248517  0.15014304  1
  H+  H129  1  0.56993806  0.74838325  0.32012801  1
  H+  H130  1  0.56084954  0.44783083  0.84201730  1
  H+  H131  1  0.21576118  0.10907505  0.39989428  1
  H+  H132  1  0.24048972  0.77828544  0.85467333  1
  H+  H133  1  0.10080200  0.23956373  0.18395367  1
  H+  H134  1  0.50031691  0.34036827  0.48513536  1
  H+  H135  1  0.41798372  0.89476147  0.08027046  1
  H+  H136  1  0.78969626  0.88347763  0.66100460  1
  H+  H137  1  0.10394610  0.55943852  0.59942151  1
  H+  H138  1  0.10642998  0.21618106  0.60057088  1
  H+  H139  1  0.42720998  0.81237486  0.20524111  1
  H+  H140  1  0.56436385  0.43718865  0.34046584  1
  H+  H141  1  0.19082242  0.37758084  0.97346944  1
  H+  H142  1  0.29684610  0.48074563  0.50610665  1
  H+  H143  1  0.44380644  0.53182726  0.14299943  1
  O2-  O144  1  0.10011959  0.22162638  0.24792426  1
  O2-  O145  1  0.10469119  0.21322317  0.72026515  1
  O2-  O146  1  0.11299784  0.56503627  0.22576976  1
  O2-  O147  1  0.10660108  0.55463664  0.71533640  1
  O2-  O148  1  0.10905036  0.90683489  0.21042507  1
  O2-  O149  1  0.10818446  0.87804874  0.73612669  1
  O2-  O150  1  0.44774966  0.22145261  0.20969772  1
  O2-  O151  1  0.44260983  0.21901914  0.71485713  1
  O2-  O152  1  0.44423363  0.51157702  0.20770916  1
  O2-  O153  1  0.44085626  0.55251993  0.72448446  1
  O2-  O154  1  0.41034202  0.87474972  0.20671831  1
  O2-  O155  1  0.45276044  0.89746461  0.73199163  1
  O2-  O156  1  0.78343564  0.22453888  0.22070106  1
  O2-  O157  1  0.77512552  0.21216297  0.70695904  1
  O2-  O158  1  0.77257768  0.53324641  0.20338726  1
  O2-  O159  1  0.78309738  0.55278485  0.71380106  1
  O2-  O160  1  0.78917389  0.89083887  0.21184086  1
  O2-  O161  1  0.78636957  0.87752093  0.72809589  1
  O2-  O162  1  0.22244055  0.11855690  0.27830663  1
  O2-  O163  1  0.22003674  0.10919832  0.78253328  1
  O2-  O164  1  0.28766329  0.53818721  0.30559267  1
  O2-  O165  1  0.21229231  0.44144268  0.77608202  1
  O2-  O166  1  0.20186908  0.78199425  0.27444783  1
  O2-  O167  1  0.23476118  0.77121521  0.78724835  1
  O2-  O168  1  0.55115754  0.10506222  0.27319715  1
  O2-  O169  1  0.56261375  0.12062114  0.78078654  1
  O2-  O170  1  0.57082773  0.43953688  0.27284823  1
  O2-  O171  1  0.55959649  0.44546654  0.77392931  1
  O2-  O172  1  0.56340933  0.78661957  0.26497628  1
  O2-  O173  1  0.55989318  0.77707759  0.77980803  1
  O2-  O174  1  0.88001435  0.10335068  0.28800475  1
  O2-  O175  1  0.88217220  0.09747110  0.77632472  1
  O2-  O176  1  0.88373319  0.44167734  0.27410041  1
  O2-  O177  1  0.88402873  0.42959053  0.77238439  1
  O2-  O178  1  0.89949284  0.78928955  0.29440500  1
  O2-  O179  1  0.89609011  0.76240984  0.78654175  1
  O2-  O180  1  0.21693526  0.10753647  0.46761876  1
  O2-  O181  1  0.20937377  0.10225408  0.96724600  1
  O2-  O182  1  0.21819692  0.44296550  0.48067327  1
  O2-  O183  1  0.22775243  0.46083516  0.95777770  1
  O2-  O184  1  0.23585798  0.76669322  0.45630377  1
  O2-  O185  1  0.19552106  0.77045743  0.97597248  1
  O2-  O186  1  0.55273490  0.11539219  0.46104646  1
  O2-  O187  1  0.55607291  0.12127911  0.96535470  1
  O2-  O188  1  0.54275800  0.42235729  0.46305698  1
  O2-  O189  1  0.56414469  0.45729331  0.96046378  1
  O2-  O190  1  0.60237237  0.73217439  0.44342248  1
  O2-  O191  1  0.55049603  0.77822923  0.96463974  1
  O2-  O192  1  0.88939445  0.12141147  0.47027950  1
  O2-  O193  1  0.90734014  0.14796923  0.96591377  1
  O2-  O194  1  0.88900746  0.45085839  0.46100342  1
  O2-  O195  1  0.92812681  0.49351983  0.95520092  1
  O2-  O196  1  0.94107515  0.90164499  0.44634223  1
  O2-  O197  1  0.88085057  0.75702834  0.97060176  1
  O2-  O198  1  0.14222673  0.23848695  0.00018809  1
  O2-  O199  1  0.10609158  0.21840734  0.53255493  1
  O2-  O200  1  0.12339846  0.56265739  0.04455839  1
  O2-  O201  1  0.10739404  0.55990339  0.53112937  1
  O2-  O202  1  0.09468498  0.88095843  0.02991292  1
  O2-  O203  1  0.06202810  0.87197664  0.52899432  1
  O2-  O204  1  0.45495604  0.23560209  0.01675083  1
  O2-  O205  1  0.43023420  0.21097043  0.52841335  1
  O2-  O206  1  0.44661033  0.55732305  0.02198180  1
  O2-  O207  1  0.44374382  0.53385082  0.53901098  1
  O2-  O208  1  0.42430184  0.89474130  0.01320125  1
  O2-  O209  1  0.39916037  0.94418845  0.57238321  1
  O2-  O210  1  0.78035152  0.22380614  0.04620359  1
  O2-  O211  1  0.77572233  0.23136132  0.52291925  1
  O2-  O212  1  0.77301199  0.55105766  0.03523531  1
  O2-  O213  1  0.76658010  0.54744624  0.53367132  1
  O2-  O214  1  0.75641270  0.86038684  0.02717529  1
  O2-  O215  1  0.76729126  0.91694016  0.54181663  1
