# generated using pymatgen
data_H2O
_symmetry_space_group_name_H-M   'P 1'
_cell_length_a   13.46544754
_cell_length_b   13.47617671
_cell_length_c   14.66402705
_cell_angle_alpha   89.92330152
_cell_angle_beta   90.05258151
_cell_angle_gamma   119.92493618
_symmetry_Int_Tables_number   1
_chemical_formula_structural   H2O
_chemical_formula_sum   'H144 O72'
_cell_volume   2306.21061810
_cell_formula_units_Z   72
loop_
 _symmetry_equiv_pos_site_id
 _symmetry_equiv_pos_as_xyz
  1  'x, y, z'
loop_
 _atom_type_symbol
 _atom_type_oxidation_number
  H+  1.0
  O2-  -2.0
loop_
 _atom_site_type_symbol
 _atom_site_label
 _atom_site_symmetry_multiplicity
 _atom_site_fract_x
 _atom_site_fract_y
 _atom_site_fract_z
 _atom_site_occupancy
  H+  H0  1  0.86301866  0.77214983  0.20490510  1
  H+  H1  1  0.80660236  0.51783392  0.73780498  1
  H+  H2  1  0.58761743  0.41196578  0.38649949  1
  H+  H3  1  0.69004679  0.50013958  0.23462005  1
  H+  H4  1  0.50628721  0.14053771  -0.00956723  1
  H+  H5  1  0.60972743  0.78333362  0.76138969  1
  H+  H6  1  0.51440757  0.16866874  0.76059324  1
  H+  H7  1  0.18327278  0.99466478  0.76334678  1
  H+  H8  1  0.28892662  0.14322980  0.25781887  1
  H+  H9  1  0.27367286  0.78163895  0.67364572  1
  H+  H10  1  0.17241382  0.80583936  1.04543604  1
  H+  H11  1  1.02486425  0.17522405  0.74353449  1
  H+  H12  1  0.15650143  0.31607698  0.51399889  1
  H+  H13  1  0.56093437  0.11092030  0.35021987  1
  H+  H14  1  0.47777329  0.17248794  0.24290452  1
  H+  H15  1  0.83514082  0.99880506  -0.03825481  1
  H+  H16  1  0.83989727  0.02690521  0.83306064  1
  H+  H17  1  0.13861831  0.51098081  0.02171266  1
  H+  H18  1  0.80557058  0.30647251  1.01686638  1
  H+  H19  1  0.45243929  0.56189191  0.61839151  1
  H+  H20  1  0.16657551  0.29216711  0.03937130  1
  H+  H21  1  0.62060555  0.12113104  0.25529569  1
  H+  H22  1  0.29845959  0.11339021  0.76734566  1
  H+  H23  1  0.81213169  0.61338338  0.24706587  1
  H+  H24  1  0.51020607  1.02241310  -0.01373484  1
  H+  H25  1  0.16807570  0.14669286  0.25845276  1
  H+  H26  1  0.81415694  0.45467767  0.46965154  1
  H+  H27  1  0.96744746  0.81127641  0.72733668  1
  H+  H28  1  0.48058128  0.29260453  0.00917582  1
  H+  H29  1  0.03453541  0.20144876  0.51405638  1
  H+  H30  1  0.77617863  0.90757125  0.20710748  1
  H+  H31  1  0.35988714  0.17334950  0.01124928  1
  H+  H32  1  0.15103983  0.63453504  0.74080982  1
  H+  H33  1  0.80094012  0.95380516  0.71565946  1
  H+  H34  1  0.96015002  0.48272037  0.77245656  1
  H+  H35  1  0.84527833  0.70372252  0.74756738  1
  H+  H36  1  0.63632605  0.47806855  -0.01042110  1
  H+  H37  1  0.20025319  0.78318044  0.40998859  1
  H+  H38  1  0.82156420  0.84720905  0.71680117  1
  H+  H39  1  0.61697676  0.81178844  0.28416429  1
  H+  H40  1  0.14685764  0.97325323  0.25317469  1
  H+  H41  1  0.29241407  0.58456812  0.93950239  1
  H+  H42  1  0.38890245  0.52992611  0.01005428  1
  H+  H43  1  0.30744730  0.48296086  0.26073218  1
  H+  H44  1  0.14343553  0.96160742  0.02193439  1
  H+  H45  1  0.17466298  0.69628108  0.27253282  1
  H+  H46  1  0.99306323  0.16721615  0.26790557  1
  H+  H47  1  0.47131823  0.95760127  0.24593919  1
  H+  H48  1  0.80992221  0.29809939  0.75968085  1
  H+  H49  1  0.48333931  0.84354522  0.00517297  1
  H+  H50  1  0.23746975  0.46202985  0.89790425  1
  H+  H51  1  0.17092762  0.34398482  0.76841905  1
  H+  H52  1  0.98747340  0.17602053  1.01544995  1
  H+  H53  1  0.51138978  0.35289731  0.25011944  1
  H+  H54  1  0.97977051  0.82423175  0.25921177  1
  H+  H55  1  0.50799117  0.47892982  0.76413889  1
  H+  H56  1  0.47740559  0.16181755  0.51842213  1
  H+  H57  1  0.79070131  0.69792475  0.48921527  1
  H+  H58  1  0.64700773  0.16823824  0.76793619  1
  H+  H59  1  0.83356904  -0.00170040  0.49714357  1
  H+  H60  1  0.86925937  1.05421200  0.28935452  1
  H+  H61  1  0.12893416  0.50751331  0.49502984  1
  H+  H62  1  0.51770144  0.76044445  0.35840510  1
  H+  H63  1  0.48572756  0.63174645  0.24616224  1
  H+  H64  1  0.96701310  0.82248845  0.98271628  1
  H+  H65  1  0.84939072  0.46754482  0.24677823  1
  H+  H66  1  0.13700443  0.62567975  0.04652715  1
  H+  H67  1  0.86622206  0.17916290  1.00846282  1
  H+  H68  1  0.50675447  0.64551199  1.00489143  1
  H+  H69  1  0.16813147  0.79839058  0.70426700  1
  H+  H70  1  0.87420445  0.41881109  0.33634272  1
  H+  H71  1  0.82116703  0.86292149  0.28620191  1
  H+  H72  1  0.75502541  0.18234977  0.15039228  1
  H+  H73  1  0.48749145  0.69771934  0.49736617  1
  H+  H74  1  0.45219728  0.88647070  0.09872094  1
  H+  H75  1  0.47637249  0.81235976  0.48506282  1
  H+  H76  1  0.17814297  0.13942356  1.00285296  1
  H+  H77  1  0.66225336  0.51377045  0.50784165  1
  H+  H78  1  0.19808239  0.17003225  0.49183161  1
  H+  H79  1  0.36278052  0.50252110  0.75112018  1
  H+  H80  1  0.54856218  0.33540432  0.47758383  1
  H+  H81  1  0.34646338  0.86088838  0.52002301  1
  H+  H82  1  0.81834895  0.13708691  0.48692301  1
  H+  H83  1  0.51663497  0.47543852  0.25776827  1
  H+  H84  1  0.80383255  0.15562772  0.24176728  1
  H+  H85  1  0.46952132  0.83797374  0.24496983  1
  H+  H86  1  0.90219207  0.78364346  0.88527073  1
  H+  H87  1  0.31436748  0.49272767  0.49503960  1
  H+  H88  1  0.09445545  0.53669673  0.66800693  1
  H+  H89  1  0.84343523  0.49074955  0.99641072  1
  H+  H90  1  -0.04259142  0.48066801  0.00277976  1
  H+  H91  1  0.40860198  0.88002924  0.74243645  1
  H+  H92  1  0.29129486  0.80538780  1.04024994  1
  H+  H93  1  0.68736696  0.51457165  0.74627417  1
  H+  H94  1  0.17550808  0.46626463  0.77024686  1
  H+  H95  1  0.92834310  0.44826949  0.48218669  1
  H+  H96  1  0.80120093  0.17377252  0.76464668  1
  H+  H97  1  0.63246681  0.82504822  0.95851618  1
  H+  H98  1  0.81615570  0.64549754  0.00271610  1
  H+  H99  1  0.02173059  0.72607388  0.66028010  1
  H+  H100  1  0.10844622  0.61323492  0.49813029  1
  H+  H101  1  0.83186515  0.88136336  -0.06204525  1
  H+  H102  1  0.18897674  0.48392831  0.26926849  1
  H+  H103  1  0.47824574  0.29858104  0.74174583  1
  H+  H104  1  0.29216185  0.81475278  0.26817707  1
  H+  H105  1  0.23046992  0.12508651  0.40265171  1
  H+  H106  1  0.49256735  0.82961052  0.73489322  1
  H+  H107  1  0.03142877  0.50969277  0.25674875  1
  H+  H108  1  0.89805270  0.13439068  0.40524579  1
  H+  H109  1  0.53780546  0.76071844  0.88048829  1
  H+  H110  1  0.09381759  0.88585070  0.11194138  1
  H+  H111  1  0.23942678  0.45175797  0.40334846  1
  H+  H112  1  0.44381699  0.21593713  0.65301341  1
  H+  H113  1  0.73016222  0.83866653  0.09333096  1
  H+  H114  1  0.26338142  0.64435752  0.59721088  1
  H+  H115  1  0.82173044  0.85846499  0.48752705  1
  H+  H116  1  0.54941590  0.43441708  0.85063928  1
  H+  H117  1  0.30080957  0.62941522  0.62497934  1
  H+  H118  1  0.22362489  0.73452481  0.89031883  1
  H+  H119  1  0.54992066  0.11863809  0.85740213  1
  H+  H120  1  0.71480562  0.26836591  0.46021563  1
  H+  H121  1  0.69366926  0.18185326  1.00759972  1
  H+  H122  1  0.11313710  0.21030116  0.13216989  1
  H+  H123  1  0.44600719  0.89488062  0.59476244  1
  H+  H124  1  0.45798954  0.56005298  0.15326180  1
  H+  H125  1  0.10573336  0.22443907  0.65599230  1
  H+  H126  1  0.52059575  0.48100092  0.99263923  1
  H+  H127  1  0.77837629  0.56662718  0.09475712  1
  H+  H128  1  0.53584486  0.57044237  0.54046933  1
  H+  H129  1  0.44029905  0.21006003  0.15111435  1
  H+  H130  1  0.36715418  0.17941645  0.50840352  1
  H+  H131  1  0.87690255  0.44471383  0.85834719  1
  H+  H132  1  0.72875772  0.89429357  0.09450435  1
  H+  H133  1  0.16766884  0.73406677  0.89003410  1
  H+  H134  1  0.90930063  0.14769401  0.86432435  1
  H+  H135  1  0.15201778  0.28618662  0.24708052  1
  H+  H136  1  0.47971663  0.63272085  0.75628567  1
  H+  H137  1  0.85616934  0.76243114  0.39663139  1
  H+  H138  1  0.11089362  0.54916675  0.17082325  1
  H+  H139  1  0.71802709  0.57533742  0.60307845  1
  H+  H140  1  0.78427503  0.89949209  0.58529659  1
  H+  H141  1  0.21342785  0.08937191  0.91399431  1
  H+  H142  1  0.11094551  0.82825709  0.56841391  1
  H+  H143  1  0.14704989  0.85133472  0.25429231  1
  O2-  O144  1  0.10698876  0.20651305  0.22521382  1
  O2-  O145  1  0.10518324  0.22153754  0.72400869  1
  O2-  O146  1  0.11535427  0.55512173  0.23856732  1
  O2-  O147  1  0.10341777  0.54762591  0.73438992  1
  O2-  O148  1  0.10408417  0.88954304  0.23158793  1
  O2-  O149  1  0.07234768  0.80891004  0.66416568  1
  O2-  O150  1  0.43876993  0.21401682  0.21901363  1
  O2-  O151  1  0.44399957  0.21653771  0.72160538  1
  O2-  O152  1  0.45147199  0.55181218  0.22092370  1
  O2-  O153  1  0.44396517  0.54574737  0.73155208  1
  O2-  O154  1  0.43065059  0.87882979  0.21918856  1
  O2-  O155  1  0.47267560  0.88688504  0.70640603  1
  O2-  O156  1  0.73302983  0.14060207  0.20920804  1
  O2-  O157  1  0.76225108  0.21548437  0.74284197  1
  O2-  O158  1  0.77195976  0.54228980  0.21141377  1
  O2-  O159  1  0.76611590  0.55927352  0.71904568  1
  O2-  O160  1  0.77746664  0.90289151  0.27370236  1
  O2-  O161  1  0.77251547  0.87762202  0.69008148  1
  O2-  O162  1  0.20979151  0.10298164  0.28247241  1
  O2-  O163  1  0.22810895  0.06148440  0.80160411  1
  O2-  O164  1  0.23000918  0.44282453  0.28913309  1
  O2-  O165  1  0.21531532  0.42604766  0.79317510  1
  O2-  O166  1  0.21290830  0.77780805  0.29443790  1
  O2-  O167  1  0.22779255  0.77484526  0.72709317  1
  O2-  O168  1  0.54324205  0.09842514  0.28475718  1
  O2-  O169  1  0.55857669  0.13038899  0.78804069  1
  O2-  O170  1  0.55843210  0.43358090  0.27339170  1
  O2-  O171  1  0.54874789  0.43512383  0.78252150  1
  O2-  O172  1  0.53296202  0.76421890  0.28843271  1
  O2-  O173  1  0.53105709  0.74795658  0.78433023  1
  O2-  O174  1  0.91200232  0.13801230  0.29846654  1
  O2-  O175  1  0.87924685  0.10529632  0.80527234  1
  O2-  O176  1  0.89413238  0.43342334  0.27085511  1
  O2-  O177  1  0.87749648  0.44255896  0.78999969  1
  O2-  O178  1  0.89065126  0.77857643  0.26736290  1
  O2-  O179  1  0.89346277  0.78730187  0.76179213  1
  O2-  O180  1  0.24346399  0.13566781  0.46961378  1
  O2-  O181  1  0.21856474  0.09808037  0.98178444  1
  O2-  O182  1  0.23474618  0.45454489  0.47179216  1
  O2-  O183  1  0.25834688  0.50479701  0.95874853  1
  O2-  O184  1  0.19020057  0.77468114  0.47857312  1
  O2-  O185  1  0.21005568  0.76028800  1.05927777  1
  O2-  O186  1  0.64835790  0.18827923  0.46222033  1
  O2-  O187  1  0.54844010  0.10367246  0.96308337  1
  O2-  O188  1  0.61476081  0.40111586  0.44683579  1
  O2-  O189  1  0.55444032  0.43406279  0.96989316  1
  O2-  O190  1  0.51045377  0.76673117  0.45946608  1
  O2-  O191  1  0.54903921  0.77222584  0.95399668  1
  O2-  O192  1  0.88235987  0.12131232  0.47377657  1
  O2-  O193  1  0.91252443  0.14684732  0.98238980  1
  O2-  O194  1  0.84888699  0.40779155  0.45633217  1
  O2-  O195  1  0.87815081  0.44377304  0.97620131  1
  O2-  O196  1  0.85064422  0.77318153  0.46198080  1
  O2-  O197  1  0.89000334  0.78425864  0.95232290  1
  O2-  O198  1  0.11725619  0.21216558  0.05598285  1
  O2-  O199  1  0.11387969  0.23539031  0.53720749  1
  O2-  O200  1  0.09068274  0.53852448  0.05053070  1
  O2-  O201  1  0.07439248  0.53190019  0.51631473  1
  O2-  O202  1  0.09444919  0.88074563  0.04397106  1
  O2-  O203  1  0.13116593  0.83938063  0.49649558  1
  O2-  O204  1  0.44206130  0.21174977  0.03160709  1
  O2-  O205  1  0.44745610  0.21167568  0.53669812  1
  O2-  O206  1  0.46909611  0.56586839  0.03264681  1
  O2-  O207  1  0.46267972  0.56909084  0.55011764  1
  O2-  O208  1  0.44759517  0.88747493  0.03062456  1
  O2-  O209  1  0.42946054  0.89419649  0.52807591  1
  O2-  O210  1  0.77092104  0.22446172  0.03584089  1
  O2-  O211  1  0.68770297  0.12769639  0.51186707  1
  O2-  O212  1  0.77685840  0.56521823  0.02659740  1
  O2-  O213  1  0.68923933  0.58691247  0.54414743  1
  O2-  O214  1  0.79407163  0.92708773  -0.07499516  1
  O2-  O215  1  0.79236541  0.91162550  0.51597852  1
