# generated using pymatgen
data_H2O
_symmetry_space_group_name_H-M   'P 1'
_cell_length_a   13.52378195
_cell_length_b   13.51840611
_cell_length_c   14.68282305
_cell_angle_alpha   90.02331163
_cell_angle_beta   89.95123831
_cell_angle_gamma   120.00120380
_symmetry_Int_Tables_number   1
_chemical_formula_structural   H2O
_chemical_formula_sum   'H144 O72'
_cell_volume   2324.65452538
_cell_formula_units_Z   72
loop_
 _symmetry_equiv_pos_site_id
 _symmetry_equiv_pos_as_xyz
  1  'x, y, z'
loop_
 _atom_type_symbol
 _atom_type_oxidation_number
  H+  1.0
  O2-  -2.0
loop_
 _atom_site_type_symbol
 _atom_site_label
 _atom_site_symmetry_multiplicity
 _atom_site_fract_x
 _atom_site_fract_y
 _atom_site_fract_z
 _atom_site_occupancy
  H+  H0  1  0.77028923  0.23091009  0.60145540  1
  H+  H1  1  0.16621840  0.64128680  0.00137117  1
  H+  H2  1  0.83634272  0.97237334  0.75071973  1
  H+  H3  1  0.15038810  0.51423049  0.71518356  1
  H+  H4  1  0.78062910  0.94637778  0.25903572  1
  H+  H5  1  0.51954665  0.50431354  0.01379616  1
  H+  H6  1  0.90437107  0.78604284  0.91210100  1
  H+  H7  1  0.80438156  -0.04342796  0.51229814  1
  H+  H8  1  0.81340229  0.63971123  0.99641492  1
  H+  H9  1  0.49619462  0.64829679  0.51233339  1
  H+  H10  1  0.81236318  0.30949152  0.51091271  1
  H+  H11  1  0.80887114  0.50739152  0.23621544  1
  H+  H12  1  0.98230195  0.81151362  0.76966292  1
  H+  H13  1  0.50397946  0.80548494  0.49217525  1
  H+  H14  1  0.48067334  0.17689710  0.24499753  1
  H+  H15  1  0.16156759  0.52002961  0.99873416  1
  H+  H16  1  0.84651518  0.14920618  0.76349700  1
  H+  H17  1  0.84568991  0.49000659  0.49112905  1
  H+  H18  1  0.49865191  0.67572605  0.26975570  1
  H+  H19  1  0.18673470  0.81777709  0.48717072  1
  H+  H20  1  0.17166976  0.13715269  0.76347887  1
  H+  H21  1  0.90308896  0.45558775  0.35415035  1
  H+  H22  1  0.14953786  0.31030737  0.73317965  1
  H+  H23  1  0.51087094  0.80783839  0.76693768  1
  H+  H24  1  0.63318675  0.47482628  0.27474540  1
  H+  H25  1  0.51692814  0.48921779  0.74353662  1
  H+  H26  1  0.45987989  0.04823171  0.81761949  1
  H+  H27  1  0.22430596  0.77649802  0.84019520  1
  H+  H28  1  0.51602791  0.37493285  1.00527560  1
  H+  H29  1  0.37450613  0.19360233  0.00908891  1
  H+  H30  1  0.51431009  0.35783496  0.27480329  1
  H+  H31  1  0.47634772  0.15505351  0.74664393  1
  H+  H32  1  0.06725537  0.19978398  0.20889126  1
  H+  H33  1  -0.03139619  0.15300704  0.76874248  1
  H+  H34  1  0.50837141  0.36413519  0.50471416  1
  H+  H35  1  0.15071567  0.96136130  0.73812555  1
  H+  H36  1  0.69588087  0.51573285  0.52262909  1
  H+  H37  1  0.48432336  0.50228517  0.25879790  1
  H+  H38  1  0.78225971  0.16557973  0.25328611  1
  H+  H39  1  0.60068272  0.12715716  0.26114695  1
  H+  H40  1  0.47479710  0.18278110  0.51899800  1
  H+  H41  1  0.17722550  0.31969535  0.22972077  1
  H+  H42  1  0.18049903  0.35719295  0.96922340  1
  H+  H43  1  0.91505909  0.11716563  0.28501500  1
  H+  H44  1  0.36724229  0.84679746  0.50903740  1
  H+  H45  1  -0.02266423  0.49681832  0.00132749  1
  H+  H46  1  0.32460448  0.16458782  0.25967079  1
  H+  H47  1  0.51504047  0.84209455  0.20214480  1
  H+  H48  1  0.93263046  0.80379807  0.26324906  1
  H+  H49  1  0.93854752  0.39311924  0.28262893  1
  H+  H50  1  0.48453791  0.00581809  0.97971353  1
  H+  H51  1  0.43248355  0.21998746  0.60819113  1
  H+  H52  1  0.82873260  0.97074215  0.01728471  1
  H+  H53  1  0.34756407  0.50394342  0.73236302  1
  H+  H54  1  0.85173771  0.47990252  0.76579384  1
  H+  H55  1  0.62474808  0.15187613  0.49449328  1
  H+  H56  1  0.44990506  0.26738177  0.76799120  1
  H+  H57  1  0.64775964  0.82498146  1.00072913  1
  H+  H58  1  0.15806920  0.35958195  0.47230178  1
  H+  H59  1  0.80833519  0.29739381  0.74614558  1
  H+  H60  1  0.49898630  0.51928761  0.51921993  1
  H+  H61  1  0.51000414  1.03057316  0.49600969  1
  H+  H62  1  -0.03442043  0.47482315  0.76026634  1
  H+  H63  1  0.85968555  0.82459486  1.00028844  1
  H+  H64  1  0.46478876  0.62668672  0.74844841  1
  H+  H65  1  0.71195918  0.52709304  0.74204724  1
  H+  H66  1  0.68932162  0.17959295  0.74184277  1
  H+  H67  1  0.02760532  0.84408926  0.50581056  1
  H+  H68  1  0.25061670  0.83939504  0.25777181  1
  H+  H69  1  0.48967471  0.96805752  0.72769921  1
  H+  H70  1  0.84342476  0.69468149  0.49537742  1
  H+  H71  1  0.54839119  0.82209896  1.05503195  1
  H+  H72  1  0.16025966  0.47898285  0.47590204  1
  H+  H73  1  0.19290419  0.48640080  0.24851992  1
  H+  H74  1  0.06505791  0.54569418  0.23124360  1
  H+  H75  1  -0.02306369  0.14644338  -0.01218650  1
  H+  H76  1  0.79203858  0.83363357  0.25500051  1
  H+  H77  1  0.79821548  0.61778455  0.24656078  1
  H+  H78  1  0.96580213  0.49215260  0.49099353  1
  H+  H79  1  0.86931401  0.76541254  0.36041215  1
  H+  H80  1  0.48130841  0.88674854  -0.02701745  1
  H+  H81  1  0.15308429  0.17510095  0.50092025  1
  H+  H82  1  0.50537270  0.64690688  1.03124442  1
  H+  H83  1  0.86815219  0.81745659  0.77299677  1
  H+  H84  1  0.24607157  0.44400769  0.88882014  1
  H+  H85  1  0.83501940  0.64022380  0.75028353  1
  H+  H86  1  0.29076015  0.13539395  0.75534576  1
  H+  H87  1  0.17407848  0.81385627  -0.01643410  1
  H+  H88  1  0.16341888  0.18059579  -0.00748022  1
  H+  H89  1  0.64678608  0.16598179  -0.01722418  1
  H+  H90  1  0.78416760  0.56032102  0.60722716  1
  H+  H91  1  0.77655595  0.27959771  0.23627814  1
  H+  H92  1  0.19473357  0.03269898  0.99042607  1
  H+  H93  1  0.20510147  0.16183801  0.25438979  1
  H+  H94  1  0.37330999  0.84856708  0.73472666  1
  H+  H95  1  0.19295323  -0.00656029  0.24434631  1
  H+  H96  1  0.14780457  0.63876781  0.50078382  1
  H+  H97  1  0.68764044  0.83848375  0.50140730  1
  H+  H98  1  0.29793720  0.83105953  0.97271654  1
  H+  H99  1  0.36363396  0.50012029  0.24978115  1
  H+  H100  1  0.14271263  0.57311138  0.14222726  1
  H+  H101  1  0.14504629  0.40804287  0.80062852  1
  H+  H102  1  0.84018818  0.81228867  0.49168615  1
  H+  H103  1  0.80933900  0.15790921  1.00821654  1
  H+  H104  1  0.75052442  0.86274393  0.69334020  1
  H+  H105  1  0.11101428  0.86436774  0.27136087  1
  H+  H106  1  0.19047479  0.81723987  0.74968339  1
  H+  H107  1  0.95686465  0.15134950  0.50221890  1
  H+  H108  1  0.78017853  0.88929151  0.10624068  1
  H+  H109  1  0.29821239  0.14692125  0.49302680  1
  H+  H110  1  0.49882213  0.20689848  0.00757497  1
  H+  H111  1  0.13813020  0.23352717  0.07973600  1
  H+  H112  1  0.61556994  0.79450882  0.26925749  1
  H+  H113  1  0.53535221  0.75784219  0.40086575  1
  H+  H114  1  0.11012323  0.88153413  0.64866320  1
  H+  H115  1  0.10524090  0.56026627  0.59017294  1
  H+  H116  1  0.84953911  0.09732625  0.37695569  1
  H+  H117  1  0.15622531  0.63578733  0.73144121  1
  H+  H118  1  0.12722467  0.89529593  0.10173798  1
  H+  H119  1  0.54005443  0.39408446  0.70603251  1
  H+  H120  1  0.64657008  0.49831638  0.99134722  1
  H+  H121  1  0.44955514  0.88330322  0.59645861  1
  H+  H122  1  0.22732693  0.71292317  0.26117818  1
  H+  H123  1  0.45175821  0.22921574  0.15441995  1
  H+  H124  1  0.57248352  0.15189128  0.89096560  1
  H+  H125  1  0.47807286  0.90627021  0.12960652  1
  H+  H126  1  0.75908252  0.19121737  0.09405626  1
  H+  H127  1  0.14635373  0.96223191  0.50451201  1
  H+  H128  1  0.53128375  0.10474962  0.35318690  1
  H+  H129  1  0.84093181  0.15848316  0.50748322  1
  H+  H130  1  0.07492215  0.17385331  0.66956397  1
  H+  H131  1  0.46272313  0.56062760  0.11774996  1
  H+  H132  1  0.55325814  0.44254056  0.41470696  1
  H+  H133  1  0.89288968  0.44409540  0.91871585  1
  H+  H134  1  0.81381762  0.51984644  -0.00037077  1
  H+  H135  1  0.89013792  0.10338932  0.90364293  1
  H+  H136  1  0.03645037  0.85413559  0.01872508  1
  H+  H137  1  0.23993264  0.78338396  0.40126019  1
  H+  H138  1  0.22939488  0.11195521  0.39849718  1
  H+  H139  1  0.45103126  0.56277388  0.61202015  1
  H+  H140  1  0.53847596  0.76404678  0.85844638  1
  H+  H141  1  0.22933433  0.10395066  0.89693716  1
  H+  H142  1  0.21131303  0.43724532  0.34376160  1
  H+  H143  1  0.16209001  0.26136100  0.57758130  1
  O2-  O144  1  0.14945900  0.24065016  0.20045065  1
  O2-  O145  1  0.10178237  0.20441792  0.73022049  1
  O2-  O146  1  0.14435601  0.57400873  0.21131177  1
  O2-  O147  1  0.10936620  0.55758962  0.70470084  1
  O2-  O148  1  0.16170461  0.91153601  0.22270543  1
  O2-  O149  1  0.11437618  0.87988452  0.71634054  1
  O2-  O150  1  0.44882216  0.22740507  0.22237989  1
  O2-  O151  1  0.42787914  0.20676140  0.72287898  1
  O2-  O152  1  0.44624284  0.54333948  0.23249166  1
  O2-  O153  1  0.43009683  0.54995714  0.71587362  1
  O2-  O154  1  0.53745290  0.88823317  0.14584578  1
  O2-  O155  1  0.45382433  0.88512085  0.71144340  1
  O2-  O156  1  0.74333895  0.19948238  0.21836061  1
  O2-  O157  1  0.76841484  0.21832709  0.71900580  1
  O2-  O158  1  0.75723304  0.53729543  0.22627862  1
  O2-  O159  1  0.79339444  0.56136880  0.72275773  1
  O2-  O160  1  0.75229757  0.87208085  0.22793576  1
  O2-  O161  1  0.81888396  0.89483446  0.73083813  1
  O2-  O162  1  0.24167357  0.12106791  0.28231223  1
  O2-  O163  1  0.21134845  0.09367814  0.78228901  1
  O2-  O164  1  0.22233273  0.43750133  0.27463258  1
  O2-  O165  1  0.19077478  0.41220857  0.74752067  1
  O2-  O166  1  0.26931121  0.78834624  0.29188801  1
  O2-  O167  1  0.23207014  0.77779714  0.77213295  1
  O2-  O168  1  0.52294538  0.09865484  0.28589420  1
  O2-  O169  1  0.51919605  0.09996792  0.77549538  1
  O2-  O170  1  0.55339359  0.43654963  0.30176966  1
  O2-  O171  1  0.56465558  0.45302440  0.75295681  1
  O2-  O172  1  0.53483307  0.75729527  0.29130387  1
  O2-  O173  1  0.53581820  0.75540134  0.79197729  1
  O2-  O174  1  0.83811816  0.08845164  0.30809007  1
  O2-  O175  1  0.88584826  0.11009358  0.78908366  1
  O2-  O176  1  0.91355123  0.44922925  0.28632425  1
  O2-  O177  1  0.88719624  0.43405815  0.78603265  1
  O2-  O178  1  0.85754922  0.76093964  0.29121510  1
  O2-  O179  1  0.90404164  0.77274489  0.79694093  1
  O2-  O180  1  0.21933334  0.10605843  0.46637629  1
  O2-  O181  1  0.23574775  0.11215352  0.96525476  1
  O2-  O182  1  0.19820343  0.43850605  0.44924678  1
  O2-  O183  1  0.20856324  0.43674546  0.94720140  1
  O2-  O184  1  0.22943564  0.77818240  0.46969734  1
  O2-  O185  1  0.21593153  0.77713489  0.95698554  1
  O2-  O186  1  0.54318153  0.11165409  0.47546624  1
  O2-  O187  1  0.56790582  0.14643472  0.95847794  1
  O2-  O188  1  0.55150500  0.44600517  0.48365096  1
  O2-  O189  1  0.55512205  0.45678284  0.98298080  1
  O2-  O190  1  0.54030643  0.75993621  0.47031534  1
  O2-  O191  1  0.56294608  0.79057554  0.99695157  1
  O2-  O192  1  0.87567927  0.11238338  0.48402347  1
  O2-  O193  1  0.89419341  0.10182352  0.97194696  1
  O2-  O194  1  0.88514594  0.44968738  0.46639650  1
  O2-  O195  1  0.89579649  0.46107426  0.98424850  1
  O2-  O196  1  0.88282724  0.77336314  0.46830299  1
  O2-  O197  1  0.90297793  0.78597124  0.98055007  1
  O2-  O198  1  0.12304805  0.22208015  0.01339442  1
  O2-  O199  1  0.11506734  0.21800298  0.52570317  1
  O2-  O200  1  0.13048089  0.56409387  0.03040020  1
  O2-  O201  1  0.10130907  0.55731659  0.52172035  1
  O2-  O202  1  0.12036143  0.89437901  0.03458440  1
  O2-  O203  1  0.10836424  0.88199206  0.52734559  1
  O2-  O204  1  0.45310972  0.23960746  0.03514480  1
  O2-  O205  1  0.43476947  0.22435927  0.53958368  1
  O2-  O206  1  0.46997302  0.56523131  0.04995453  1
  O2-  O207  1  0.46256909  0.56600095  0.54202873  1
  O2-  O208  1  0.43612952  0.92161655  -0.00806832  1
  O2-  O209  1  0.44955867  0.88567157  0.52799994  1
  O2-  O210  1  0.76042309  0.18988339  0.02707363  1
  O2-  O211  1  0.77148297  0.22871536  0.53318602  1
  O2-  O212  1  0.76402226  0.55542402  0.00200094  1
  O2-  O213  1  0.77853384  0.55832938  0.53864834  1
  O2-  O214  1  0.78776938  0.88915361  0.03890569  1
  O2-  O215  1  0.76727304  0.87372097  0.52415334  1
