# generated using pymatgen
data_H2O
_symmetry_space_group_name_H-M   'P 1'
_cell_length_a   13.49795050
_cell_length_b   13.50530077
_cell_length_c   14.69054310
_cell_angle_alpha   89.99801498
_cell_angle_beta   90.01378081
_cell_angle_gamma   119.97512846
_symmetry_Int_Tables_number   1
_chemical_formula_structural   H2O
_chemical_formula_sum   'H144 O72'
_cell_volume   2319.79361988
_cell_formula_units_Z   72
loop_
 _symmetry_equiv_pos_site_id
 _symmetry_equiv_pos_as_xyz
  1  'x, y, z'
loop_
 _atom_type_symbol
 _atom_type_oxidation_number
  H+  1.0
  O2-  -2.0
loop_
 _atom_site_type_symbol
 _atom_site_label
 _atom_site_symmetry_multiplicity
 _atom_site_fract_x
 _atom_site_fract_y
 _atom_site_fract_z
 _atom_site_occupancy
  H+  H0  1  0.13885162  0.16200406  0.73519747  1
  H+  H1  1  0.86664790  0.83000001  0.49499118  1
  H+  H2  1  0.15525170  0.65506770  0.02659071  1
  H+  H3  1  -0.02752650  0.49507487  0.01187724  1
  H+  H4  1  0.48618967  -0.03038246  1.00974021  1
  H+  H5  1  0.15747568  0.31521348  0.00435032  1
  H+  H6  1  0.81555048  -0.03170454  0.50025158  1
  H+  H7  1  0.82013660  0.17560093  0.75649497  1
  H+  H8  1  0.20697128  0.40424717  0.83209600  1
  H+  H9  1  0.83606191  0.65779439  0.76391694  1
  H+  H10  1  0.28046615  0.80886496  0.77598291  1
  H+  H11  1  0.25950333  0.52676856  0.92660419  1
  H+  H12  1  0.16126535  0.19810794  0.99927849  1
  H+  H13  1  0.85500816  1.03025922  0.25215248  1
  H+  H14  1  0.04383249  0.85775299  0.01720851  1
  H+  H15  1  0.17577168  0.01975248  0.76108760  1
  H+  H16  1  0.81612216  0.29290878  0.01178082  1
  H+  H17  1  0.37420815  0.51586814  0.51403837  1
  H+  H18  1  0.84031700  0.30498909  0.50228191  1
  H+  H19  1  0.18592524  0.73328851  0.27517664  1
  H+  H20  1  0.83678577  0.85162281  0.72035230  1
  H+  H21  1  0.86619441  0.83018878  0.26831147  1
  H+  H22  1  0.49120494  0.19423106  0.23275383  1
  H+  H23  1  -0.12311660  0.43639074  0.13584107  1
  H+  H24  1  0.82182872  0.17445198  0.23691087  1
  H+  H25  1  0.84655800  0.48659475  1.00547261  1
  H+  H26  1  0.49012594  0.64087131  0.50894583  1
  H+  H27  1  0.17691433  0.73944610  0.48657104  1
  H+  H28  1  0.81628797  0.17455145  1.00135420  1
  H+  H29  1  0.52433193  0.82080039  0.48934336  1
  H+  H30  1  0.19290446  0.15944912  0.25605473  1
  H+  H31  1  0.46386628  0.82347791  0.75468950  1
  H+  H32  1  0.23018960  0.12250660  0.39680608  1
  H+  H33  1  0.67243524  0.50753679  0.22958239  1
  H+  H34  1  0.38323792  0.60784732  0.19627977  1
  H+  H35  1  0.30722527  0.82480308  -0.00267682  1
  H+  H36  1  0.35175618  0.19850413  0.50252829  1
  H+  H37  1  -0.01966253  0.48516779  0.50973687  1
  H+  H38  1  0.84451359  0.35275325  0.21821258  1
  H+  H39  1  0.78092221  0.88943523  0.59062343  1
  H+  H40  1  0.52208043  0.04207895  0.25432610  1
  H+  H41  1  0.70040565  0.51247667  -0.00215355  1
  H+  H42  1  0.12081388  0.22782279  0.14555171  1
  H+  H43  1  0.63187104  0.14665321  0.98177657  1
  H+  H44  1  0.49146491  0.46507992  0.75787292  1
  H+  H45  1  -0.02628744  0.15386713  -0.01357834  1
  H+  H46  1  0.00451033  0.53471039  0.23296127  1
  H+  H47  1  0.52118091  0.70143378  0.26391808  1
  H+  H48  1  0.02355418  0.85062142  0.75484409  1
  H+  H49  1  0.49573244  0.48469292  0.25563204  1
  H+  H50  1  0.36349275  0.51452424  0.73304459  1
  H+  H51  1  0.85759032  0.47247301  0.51835182  1
  H+  H52  1  0.37059385  0.79421769  0.67739370  1
  H+  H53  1  0.51781089  0.49181707  0.48928534  1
  H+  H54  1  0.19585849  0.45183282  0.28328735  1
  H+  H55  1  0.16631114  0.86927220  0.01701013  1
  H+  H56  1  0.70371170  0.85054752  0.23863997  1
  H+  H57  1  0.96233689  0.14811905  0.75416840  1
  H+  H58  1  0.37461621  0.87098768  0.51171452  1
  H+  H59  1  0.52432270  0.48510118  -0.00684140  1
  H+  H60  1  0.38012965  0.86110285  0.24699512  1
  H+  H61  1  0.52597112  0.70244797  1.00501477  1
  H+  H62  1  0.49687637  0.85591719  0.24456590  1
  H+  H63  1  0.48201838  0.33066604  0.50146702  1
  H+  H64  1  0.97424311  0.14949033  0.25138476  1
  H+  H65  1  0.18840153  0.86071317  0.50093654  1
  H+  H66  1  0.46370407  0.29144110  0.73535826  1
  H+  H67  1  0.53869605  0.04803539  0.48183427  1
  H+  H68  1  0.49884193  0.36749062  0.25213285  1
  H+  H69  1  0.77015946  0.53004264  0.63866535  1
  H+  H70  1  0.32838743  0.48409161  0.26354828  1
  H+  H71  1  0.47630180  0.17874713  0.72256509  1
  H+  H72  1  0.69068626  0.17444122  0.75373602  1
  H+  H73  1  0.29195759  0.14145065  0.75097755  1
  H+  H74  1  0.18638214  0.04561910  0.98873501  1
  H+  H75  1  0.38067669  0.52346182  0.02229884  1
  H+  H76  1  0.14058560  0.28121143  0.72527060  1
  H+  H77  1  0.17845957  0.15457150  0.48475908  1
  H+  H78  1  0.78543771  0.49798164  0.21974829  1
  H+  H79  1  0.03612210  0.86524108  0.51389546  1
  H+  H80  1  0.70577677  0.50107679  0.54286703  1
  H+  H81  1  0.86082921  0.68615487  0.99763312  1
  H+  H82  1  0.16671301  0.29628356  0.24048563  1
  H+  H83  1  0.16307986  0.81191959  0.77070907  1
  H+  H84  1  0.19709911  1.04383027  0.26001579  1
  H+  H85  1  0.82139743  0.96081154  0.72764513  1
  H+  H86  1  0.64045544  0.15802142  0.25180690  1
  H+  H87  1  0.72030914  0.18916328  0.49842823  1
  H+  H88  1  0.50313189  0.69466066  0.77087874  1
  H+  H89  1  0.82941819  0.53776888  0.77518035  1
  H+  H90  1  0.52315565  0.82048103  0.00278829  1
  H+  H91  1  0.18714192  0.51153458  0.01350219  1
  H+  H92  1  0.11296062  0.55246849  0.28508388  1
  H+  H93  1  0.18579923  0.33999714  0.49916246  1
  H+  H94  1  0.21684913  0.78094078  0.91311240  1
  H+  H95  1  0.81726029  0.30250143  0.76789517  1
  H+  H96  1  0.51469511  1.02777893  0.75340345  1
  H+  H97  1  -0.03536826  0.46839832  0.77930964  1
  H+  H98  1  0.13968020  0.62630449  0.75709185  1
  H+  H99  1  0.51453253  0.14987142  -0.01671330  1
  H+  H100  1  0.70959183  0.84815374  0.00513092  1
  H+  H101  1  0.17137002  0.46999889  0.76078929  1
  H+  H102  1  0.36903331  0.18715917  0.00172387  1
  H+  H103  1  0.64318485  0.81970600  0.49030004  1
  H+  H104  1  0.85562248  0.15592487  0.48359798  1
  H+  H105  1  0.19398982  0.60984309  0.53387810  1
  H+  H106  1  0.01937296  0.16852192  0.49889152  1
  H+  H107  1  0.91394775  0.76123869  0.90814689  1
  H+  H108  1  0.15670923  0.98765781  0.51634191  1
  H+  H109  1  0.98845247  0.84190173  0.26765502  1
  H+  H110  1  0.76189448  0.54706677  0.09627327  1
  H+  H111  1  0.53900047  0.77233359  0.86190230  1
  H+  H112  1  0.45138234  0.89534510  0.10236412  1
  H+  H113  1  0.46368110  0.91113846  0.59349827  1
  H+  H114  1  0.16582661  0.48372641  0.52684257  1
  H+  H115  1  0.17502433  0.87879756  0.24419983  1
  H+  H116  1  0.57312426  0.12838715  0.39616953  1
  H+  H117  1  0.91008866  0.85520123  0.82997549  1
  H+  H118  1  0.78318076  0.88721793  0.14918188  1
  H+  H119  1  0.53051800  0.42317162  0.84593799  1
  H+  H120  1  0.54808755  0.10377289  0.84359128  1
  H+  H121  1  0.56639861  0.78266122  0.35134608  1
  H+  H122  1  0.36978668  0.18912020  0.23497261  1
  H+  H123  1  0.23870323  0.42199291  0.41239427  1
  H+  H124  1  0.22282096  0.11672408  0.89526278  1
  H+  H125  1  0.44696593  0.22344134  0.09188832  1
  H+  H126  1  0.43672988  0.23619294  0.59685510  1
  H+  H127  1  0.82695260  0.84457239  0.00516601  1
  H+  H128  1  0.11364477  0.89049436  0.66419757  1
  H+  H129  1  0.24122719  0.81972783  0.35883956  1
  H+  H130  1  0.54476178  0.44428452  0.39708572  1
  H+  H131  1  0.13003553  0.91217070  0.15350920  1
  H+  H132  1  0.11635462  0.58252277  0.11948921  1
  H+  H133  1  0.45273588  0.56438509  0.65121445  1
  H+  H134  1  0.91532153  0.79859394  0.40821040  1
  H+  H135  1  0.77351741  0.20091742  0.14522465  1
  H+  H136  1  0.85884983  0.03014595  0.98699081  1
  H+  H137  1  0.89054198  0.43157570  0.87165810  1
  H+  H138  1  0.11004467  0.54326240  0.67002020  1
  H+  H139  1  0.45490256  0.55781647  0.11179905  1
  H+  H140  1  0.89320622  0.10958769  0.39474534  1
  H+  H141  1  0.52079626  0.36495858  0.98831725  1
  H+  H142  1  0.88910749  0.11022353  0.84765886  1
  H+  H143  1  0.09399266  0.19621494  0.59227301  1
  O2-  O144  1  0.11724662  0.21882321  0.21294232  1
  O2-  O145  1  0.09524706  0.19880218  0.70982999  1
  O2-  O146  1  0.09005860  0.58947492  0.23965319  1
  O2-  O147  1  0.10481580  0.54416288  0.73770515  1
  O2-  O148  1  0.13141991  0.91560081  0.22163947  1
  O2-  O149  1  0.11434226  0.88843313  0.73165472  1
  O2-  O150  1  0.44888628  0.23216722  0.20839534  1
  O2-  O151  1  0.43104687  0.21364077  0.70174696  1
  O2-  O152  1  0.42228827  0.56794645  0.21813361  1
  O2-  O153  1  0.44602742  0.56056241  0.71924118  1
  O2-  O154  1  0.45796820  0.89689770  0.21948027  1
  O2-  O155  1  0.41729571  0.85600676  0.71970212  1
  O2-  O156  1  0.77904503  0.21233750  0.21250737  1
  O2-  O157  1  0.77680117  0.22008350  0.74150792  1
  O2-  O158  1  0.74859341  0.54153522  0.19992304  1
  O2-  O159  1  0.78920858  0.57480756  0.74958345  1
  O2-  O160  1  0.78454269  0.89297193  0.21660718  1
  O2-  O161  1  0.79103372  0.88630565  0.69762879  1
  O2-  O162  1  0.23765899  0.12568827  0.28294270  1
  O2-  O163  1  0.21409092  0.10446608  0.77872693  1
  O2-  O164  1  0.24625730  0.42152581  0.29658949  1
  O2-  O165  1  0.21228313  0.42502321  0.76800647  1
  O2-  O166  1  0.24314412  0.81309457  0.29098619  1
  O2-  O167  1  0.19982809  0.76689312  0.79696298  1
  O2-  O168  1  0.55943802  0.12403960  0.27252942  1
  O2-  O169  1  0.55571753  0.10726862  0.77501135  1
  O2-  O170  1  0.53555995  0.44607349  0.27956510  1
  O2-  O171  1  0.50226286  0.40280917  0.78252556  1
  O2-  O172  1  0.56561685  0.78374691  0.28298813  1
  O2-  O173  1  0.52574801  0.77191377  0.79526881  1
  O2-  O174  1  0.89390900  0.11177285  0.27400750  1
  O2-  O175  1  0.88282373  0.11433953  0.77976973  1
  O2-  O176  1  0.87819578  0.43659221  0.20272176  1
  O2-  O177  1  0.88521423  0.42472399  0.80421610  1
  O2-  O178  1  0.91183141  0.79910252  0.29564790  1
  O2-  O179  1  0.91551531  0.80358061  0.78681870  1
  O2-  O180  1  0.23014291  0.12396272  0.46553313  1
  O2-  O181  1  0.22638648  0.12512064  0.96339938  1
  O2-  O182  1  0.23288795  0.42309601  0.48047604  1
  O2-  O183  1  0.23018447  0.47865347  0.98060380  1
  O2-  O184  1  0.23187638  0.81965318  0.47530137  1
  O2-  O185  1  0.22381375  0.78559010  0.98126351  1
  O2-  O186  1  0.58122712  0.12878761  0.46316655  1
  O2-  O187  1  0.55143337  0.10655179  0.95861642  1
  O2-  O188  1  0.54737775  0.44193336  0.46519944  1
  O2-  O189  1  0.56129811  0.44492350  0.96426509  1
  O2-  O190  1  0.56025039  0.77639853  0.46802137  1
  O2-  O191  1  0.56442518  0.78151696  0.97932920  1
  O2-  O192  1  0.89405554  0.10932799  0.46243930  1
  O2-  O193  1  0.89322481  0.11063883  0.96373925  1
  O2-  O194  1  0.90542571  0.45068150  0.48016286  1
  O2-  O195  1  0.89050444  0.44326055  0.99603027  1
  O2-  O196  1  0.91797928  0.80052383  0.47676484  1
  O2-  O197  1  0.90828562  0.76725831  0.97532852  1
  O2-  O198  1  0.11746033  0.23475517  0.02393993  1
  O2-  O199  1  0.10111967  0.20562327  0.52476216  1
  O2-  O200  1  0.11613740  0.57473774  0.05223745  1
  O2-  O201  1  0.13709879  0.53376674  0.55424448  1
  O2-  O202  1  0.12485188  0.90946240  0.03712080  1
  O2-  O203  1  0.12004230  0.90793046  0.53972365  1
  O2-  O204  1  0.44983509  0.22260471  0.02354133  1
  O2-  O205  1  0.43412315  0.24497827  0.52743881  1
  O2-  O206  1  0.46097760  0.55924568  0.04251027  1
  O2-  O207  1  0.45514515  0.56143534  0.53502695  1
  O2-  O208  1  0.44720624  0.88986808  0.03417268  1
  O2-  O209  1  0.45657755  0.90039947  0.52713016  1
  O2-  O210  1  0.77143616  0.20967227  0.02539503  1
  O2-  O211  1  0.80122223  0.22222902  0.51959313  1
  O2-  O212  1  0.77790065  0.54931418  0.02734279  1
  O2-  O213  1  0.76036311  0.49035363  0.57897973  1
  O2-  O214  1  0.79142680  0.88994255  0.02529015  1
  O2-  O215  1  0.77409250  0.88713462  0.52146031  1
