# generated using pymatgen
data_H2O
_symmetry_space_group_name_H-M   'P 1'
_cell_length_a   13.52385894
_cell_length_b   13.52636696
_cell_length_c   14.68300657
_cell_angle_alpha   89.98315297
_cell_angle_beta   89.98232359
_cell_angle_gamma   120.03053764
_symmetry_Int_Tables_number   1
_chemical_formula_structural   H2O
_chemical_formula_sum   'H144 O72'
_cell_volume   2325.37833014
_cell_formula_units_Z   72
loop_
 _symmetry_equiv_pos_site_id
 _symmetry_equiv_pos_as_xyz
  1  'x, y, z'
loop_
 _atom_type_symbol
 _atom_type_oxidation_number
  H+  1.0
  O2-  -2.0
loop_
 _atom_site_type_symbol
 _atom_site_label
 _atom_site_symmetry_multiplicity
 _atom_site_fract_x
 _atom_site_fract_y
 _atom_site_fract_z
 _atom_site_occupancy
  H+  H0  1  0.48344693  0.18189699  0.03518784  1
  H+  H1  1  -0.03478956  0.47591772  0.48472960  1
  H+  H2  1  0.65062126  0.15558257  0.03701245  1
  H+  H3  1  0.82464392  0.51200986  0.51524351  1
  H+  H4  1  0.17802898  0.02749362  0.49882938  1
  H+  H5  1  0.95688183  0.85524141  0.90772902  1
  H+  H6  1  0.29609884  0.46958080  0.49344302  1
  H+  H7  1  0.03727144  0.50739286  0.74683531  1
  H+  H8  1  0.37533625  0.18109260  0.25484934  1
  H+  H9  1  0.51997296  0.14702089  0.25394789  1
  H+  H10  1  0.85810289  0.04282809  0.51258061  1
  H+  H11  1  0.85262255  0.48522446  0.24886690  1
  H+  H12  1  0.91153505  0.98394772  -0.03875846  1
  H+  H13  1  0.31258929  0.47237164  0.76826412  1
  H+  H14  1  0.82480866  0.32140386  0.00564131  1
  H+  H15  1  0.14207572  0.64400640  0.22721324  1
  H+  H16  1  0.56798867  0.78890952  0.52426761  1
  H+  H17  1  0.47713852  0.28194619  0.74101522  1
  H+  H18  1  0.64858746  0.48619100  0.49594105  1
  H+  H19  1  0.85214855  0.14700795  0.75387892  1
  H+  H20  1  0.29903719  0.47182375  0.99436524  1
  H+  H21  1  0.70882737  0.51352762  0.21574186  1
  H+  H22  1  0.10046355  0.87767999  0.60375185  1
  H+  H23  1  0.97037312  0.16222951  0.50457739  1
  H+  H24  1  0.81816924  0.29872757  0.75739241  1
  H+  H25  1  0.14046624  0.84694965  0.74634462  1
  H+  H26  1  0.63219449  0.47910421  0.98132813  1
  H+  H27  1  0.82626568  0.19293529  0.24803398  1
  H+  H28  1  0.46988752  0.61936736  0.00679121  1
  H+  H29  1  0.84313998  0.03440483  0.28083506  1
  H+  H30  1  1.01330994  0.83404172  0.74820739  1
  H+  H31  1  0.04240874  0.52546124  -0.02393740  1
  H+  H32  1  0.46979403  0.81178371  0.49511848  1
  H+  H33  1  0.81831762  0.84163107  0.76065089  1
  H+  H34  1  1.03021821  0.17844215  0.74119691  1
  H+  H35  1  0.20991951  0.03768812  0.25872001  1
  H+  H36  1  0.20971298  0.82759258  1.00096509  1
  H+  H37  1  0.06435330  0.82588590  0.04430853  1
  H+  H38  1  0.63645820  0.82428105  0.28291622  1
  H+  H39  1  0.12160628  0.14810430  0.00534189  1
  H+  H40  1  0.80990536  0.18677931  0.51910888  1
  H+  H41  1  0.15199429  0.17001927  0.24775155  1
  H+  H42  1  0.48407434  0.30491044  0.50666882  1
  H+  H43  1  0.73769443  0.86133099  0.53148550  1
  H+  H44  1  0.82023829  0.63359450  0.22557000  1
  H+  H45  1  0.85574640  0.48776909  0.80069346  1
  H+  H46  1  0.47734142  0.84588773  0.72979846  1
  H+  H47  1  0.20826357  0.83779820  0.25462632  1
  H+  H48  1  0.50127117  0.96875146  0.24024893  1
  H+  H49  1  0.49487183  0.96034771  0.03719252  1
  H+  H50  1  0.85964196  -0.00953242  0.95492480  1
  H+  H51  1  0.83029111  0.63399271  0.76151287  1
  H+  H52  1  0.09141034  0.87687524  0.22526602  1
  H+  H53  1  0.18427494  0.33729100  0.76852424  1
  H+  H54  1  0.56958027  0.11226047  1.12150748  1
  H+  H55  1  0.63061374  0.14643620  0.71558591  1
  H+  H56  1  0.28484656  0.13183912  0.75630958  1
  H+  H57  1  0.14423210  0.84192350  0.51290138  1
  H+  H58  1  0.82719138  0.31257861  0.24531075  1
  H+  H59  1  0.79978875  0.83986425  0.27072745  1
  H+  H60  1  0.63072603  0.81226128  0.76118867  1
  H+  H61  1  0.16305818  1.01438771  0.74787325  1
  H+  H62  1  0.82523963  0.64243722  -0.03122266  1
  H+  H63  1  0.85189369  0.49472505  0.94292730  1
  H+  H64  1  0.64627943  0.15515493  0.25473650  1
  H+  H65  1  0.14432064  0.17705392  0.51401457  1
  H+  H66  1  0.29481670  0.14885716  0.49573541  1
  H+  H67  1  0.48213760  0.29735212  0.02224902  1
  H+  H68  1  0.48499466  0.96825933  0.70943041  1
  H+  H69  1  0.46745758  0.96735919  0.50714151  1
  H+  H70  1  0.13914390  0.62294002  0.50231823  1
  H+  H71  1  0.14466802  0.50699902  0.50123405  1
  H+  H72  1  0.64474715  0.45482451  0.76382640  1
  H+  H73  1  0.86403881  0.81781562  0.50563811  1
  H+  H74  1  0.94391739  0.82229271  0.27716260  1
  H+  H75  1  0.52617674  0.46356595  0.24944122  1
  H+  H76  1  0.14504827  0.16892640  0.73984145  1
  H+  H77  1  0.82168831  0.96428841  0.75551029  1
  H+  H78  1  0.79798334  0.87919706  0.02713179  1
  H+  H79  1  0.35709874  0.48003865  0.24141632  1
  H+  H80  1  0.50130007  0.80183045  0.99308788  1
  H+  H81  1  0.50975100  0.83685672  0.26247927  1
  H+  H82  1  0.62692504  0.14962387  0.49259291  1
  H+  H83  1  0.37101986  0.84406090  0.02096237  1
  H+  H84  1  -0.02719305  0.49184489  0.24994537  1
  H+  H85  1  1.00706729  0.20664548  0.97870507  1
  H+  H86  1  0.20263269  0.70609030  0.98557411  1
  H+  H87  1  0.23691288  0.80668154  0.85294216  1
  H+  H88  1  0.28297698  0.81088075  0.48968296  1
  H+  H89  1  0.47610241  0.59637401  0.24454897  1
  H+  H90  1  0.46544970  0.62882892  0.74551583  1
  H+  H91  1  0.17561407  0.35674474  0.49142874  1
  H+  H92  1  0.18400938  0.35158286  0.25838952  1
  H+  H93  1  0.18242459  0.35202671  0.99711827  1
  H+  H94  1  0.89084582  0.21078843  0.97635737  1
  H+  H95  1  0.80489003  0.55434753  0.67252178  1
  H+  H96  1  0.47792583  0.18406241  0.50604001  1
  H+  H97  1  0.11176809  0.22208869  0.60419033  1
  H+  H98  1  0.48711048  0.50743894  0.51303644  1
  H+  H99  1  0.11504110  0.20383931  0.10215461  1
  H+  H100  1  0.30156326  0.83712334  0.75771051  1
  H+  H101  1  0.82777597  0.63120371  0.52136073  1
  H+  H102  1  0.61003613  0.78710140  0.99357388  1
  H+  H103  1  0.15062690  0.51240820  0.99581655  1
  H+  H104  1  0.46318258  0.61181816  0.51304953  1
  H+  H105  1  0.50831933  0.14037954  0.70859080  1
  H+  H106  1  0.51131885  0.47348296  -0.01425016  1
  H+  H107  1  0.97876878  0.81456103  0.49501938  1
  H+  H108  1  0.44630430  0.21886959  0.16036745  1
  H+  H109  1  0.78891482  0.24088549  0.65756902  1
  H+  H110  1  0.14587102  0.05483310  0.88402739  1
  H+  H111  1  0.80972510  0.30402061  0.50827036  1
  H+  H112  1  0.79935791  0.57460233  0.06507919  1
  H+  H113  1  0.88587579  0.44349857  0.39614018  1
  H+  H114  1  0.80315394  0.89385116  0.62638193  1
  H+  H115  1  0.75632788  0.86998684  0.17986751  1
  H+  H116  1  1.03257692  0.17009293  0.24932574  1
  H+  H117  1  0.22762813  0.43402626  0.34459621  1
  H+  H118  1  0.13092037  0.98661361  -0.02214696  1
  H+  H119  1  0.57797812  0.45031339  0.40217822  1
  H+  H120  1  0.91068386  0.13747046  0.84353201  1
  H+  H121  1  0.51914693  0.10559432  0.90011407  1
  H+  H122  1  0.54467132  0.77229572  0.84491882  1
  H+  H123  1  0.45622050  0.87523158  0.15458113  1
  H+  H124  1  0.88832654  0.11759285  0.36649267  1
  H+  H125  1  0.51905822  0.08854280  0.85127754  1
  H+  H126  1  0.54148390  0.78313525  0.36804351  1
  H+  H127  1  0.16287043  0.90697672  0.11812298  1
  H+  H128  1  0.42469326  0.21436192  0.64838417  1
  H+  H129  1  0.22645547  0.10731261  0.35372835  1
  H+  H130  1  0.09407956  0.53208753  0.65032450  1
  H+  H131  1  0.53982657  0.35465158  0.25777983  1
  H+  H132  1  0.55641872  0.41757307  0.84496836  1
  H+  H133  1  0.20791709  0.77197646  0.39934634  1
  H+  H134  1  0.42866711  0.54061094  0.66248515  1
  H+  H135  1  0.42460239  0.88361839  0.59600136  1
  H+  H136  1  0.10078458  0.56858221  0.13605444  1
  H+  H137  1  0.87754879  0.76886864  0.36877344  1
  H+  H138  1  0.30749174  0.80722514  0.26856238  1
  H+  H139  1  0.80653280  0.25472119  0.10179391  1
  H+  H140  1  0.74376844  0.75336847  0.06050607  1
  H+  H141  1  0.55570693  0.10977338  0.39979849  1
  H+  H142  1  0.43911411  0.53837002  0.09615928  1
  H+  H143  1  0.22524594  0.41922278  0.86757437  1
  O2-  O144  1  0.10940623  0.20622471  0.22102926  1
  O2-  O145  1  0.11245680  0.21893993  0.72051436  1
  O2-  O146  1  0.09283443  0.56590133  0.20290468  1
  O2-  O147  1  0.10769212  0.52519394  0.71527571  1
  O2-  O148  1  0.17241120  0.91869990  0.21163437  1
  O2-  O149  1  0.09055514  0.87572511  0.71785609  1
  O2-  O150  1  0.45498280  0.21483165  0.22929305  1
  O2-  O151  1  0.42417779  0.20304961  0.71535589  1
  O2-  O152  1  0.44024386  0.52111766  0.21590757  1
  O2-  O153  1  0.42197647  0.54643631  0.72914907  1
  O2-  O154  1  0.46394445  0.88398555  0.22480786  1
  O2-  O155  1  0.43492875  0.88158771  0.70369446  1
  O2-  O156  1  0.78621508  0.23131613  0.22148667  1
  O2-  O157  1  0.78447640  0.22547190  0.72436665  1
  O2-  O158  1  0.78867485  0.56136561  0.19131040  1
  O2-  O159  1  0.80291788  0.55310363  0.74013916  1
  O2-  O160  1  0.76082937  0.88177674  0.24698293  1
  O2-  O161  1  0.78077263  0.88365574  0.73209000  1
  O2-  O162  1  0.23626875  0.11666050  0.28643156  1
  O2-  O163  1  0.20203551  0.09409176  0.77351638  1
  O2-  O164  1  0.23534172  0.43193261  0.27744173  1
  O2-  O165  1  0.23183624  0.41605646  0.79795519  1
  O2-  O166  1  0.22717959  0.77928899  0.28391283  1
  O2-  O167  1  0.22696541  0.81370872  0.78704232  1
  O2-  O168  1  0.56229223  0.10346198  0.26703270  1
  O2-  O169  1  0.55112838  0.10000586  0.69386550  1
  O2-  O170  1  0.58011383  0.43872606  0.27179380  1
  O2-  O171  1  0.56273122  0.40971148  0.77848028  1
  O2-  O172  1  0.55126762  0.78672377  0.29949993  1
  O2-  O173  1  0.54811070  0.77484752  0.77716413  1
  O2-  O174  1  0.88805898  0.11579356  0.29814154  1
  O2-  O175  1  0.89369065  0.10890775  0.77811229  1
  O2-  O176  1  0.89211538  0.44758170  0.27675761  1
  O2-  O177  1  0.88568811  0.43759986  0.82687691  1
  O2-  O178  1  0.86716911  0.77014726  0.29939323  1
  O2-  O179  1  0.87986715  0.77030107  0.79644086  1
  O2-  O180  1  0.21369574  0.10700992  0.47431469  1
  O2-  O181  1  0.09988227  0.02674983  0.94098833  1
  O2-  O182  1  0.21819404  0.43645298  0.46699794  1
  O2-  O183  1  0.21845970  0.43106492  0.97087446  1
  O2-  O184  1  0.20242905  0.76796446  0.46763063  1
  O2-  O185  1  0.25143607  0.78977096  0.97390045  1
  O2-  O186  1  0.54762641  0.10811604  0.46667084  1
  O2-  O187  1  0.56852660  0.10493188  1.05513150  1
  O2-  O188  1  0.56965698  0.44969947  0.46938321  1
  O2-  O189  1  0.55023607  0.43079926  0.96656274  1
  O2-  O190  1  0.50962658  0.76537510  0.47743635  1
  O2-  O191  1  0.53425501  0.75677082  0.96502152  1
  O2-  O192  1  0.88777622  0.11939176  0.48486403  1
  O2-  O193  1  0.94896331  0.20770599  0.93781463  1
  O2-  O194  1  0.88295246  0.43900281  0.46408093  1
  O2-  O195  1  0.89251274  0.45172115  0.92722922  1
  O2-  O196  1  0.89534078  0.77363997  0.47489850  1
  O2-  O197  1  0.88922275  0.77876008  0.89854030  1
  O2-  O198  1  0.12169197  0.21474352  0.03476675  1
  O2-  O199  1  0.10667175  0.22034455  0.53597504  1
  O2-  O200  1  0.11575208  0.56059680  0.00925139  1
  O2-  O201  1  0.09798484  0.54134705  0.52144807  1
  O2-  O202  1  0.14343206  0.88784402  0.04507533  1
  O2-  O203  1  0.10593068  0.88475648  0.53530492  1
  O2-  O204  1  0.44132939  0.22107858  0.05216010  1
  O2-  O205  1  0.43728945  0.22412079  0.52735252  1
  O2-  O206  1  0.43622775  0.53863832  0.02816893  1
  O2-  O207  1  0.43666294  0.53522681  0.53836545  1
  O2-  O208  1  0.45097344  0.87600295  0.04918171  1
  O2-  O209  1  0.42212117  0.88545236  0.52639463  1
  O2-  O210  1  0.79428953  0.24565542  0.03455529  1
  O2-  O211  1  0.76742774  0.22629329  0.53714861  1
  O2-  O212  1  0.78945659  0.56610063  -0.00222285  1
  O2-  O213  1  0.78636453  0.55132503  0.54443971  1
  O2-  O214  1  0.73633269  0.82138499  0.06555745  1
  O2-  O215  1  0.81430031  0.90146469  0.55667831  1
