# generated using pymatgen
data_H2O
_symmetry_space_group_name_H-M   'P 1'
_cell_length_a   13.51166010
_cell_length_b   13.50500345
_cell_length_c   14.66606365
_cell_angle_alpha   90.00093784
_cell_angle_beta   90.05346321
_cell_angle_gamma   120.06707404
_symmetry_Int_Tables_number   1
_chemical_formula_structural   H2O
_chemical_formula_sum   'H144 O72'
_cell_volume   2316.07928620
_cell_formula_units_Z   72
loop_
 _symmetry_equiv_pos_site_id
 _symmetry_equiv_pos_as_xyz
  1  'x, y, z'
loop_
 _atom_type_symbol
 _atom_type_oxidation_number
  H+  1.0
  O2-  -2.0
loop_
 _atom_site_type_symbol
 _atom_site_label
 _atom_site_symmetry_multiplicity
 _atom_site_fract_x
 _atom_site_fract_y
 _atom_site_fract_z
 _atom_site_occupancy
  H+  H0  1  0.96669038  0.80893351  0.26385698  1
  H+  H1  1  0.37915014  0.17120736  0.73165062  1
  H+  H2  1  0.18783913  0.39860680  0.77715878  1
  H+  H3  1  0.30318039  0.11972776  0.24291815  1
  H+  H4  1  0.81894672  0.97067920  -0.00675975  1
  H+  H5  1  1.00612634  0.24385181  0.30631848  1
  H+  H6  1  0.36744605  0.53805478  0.74303935  1
  H+  H7  1  0.48605351  0.00966225  1.00689960  1
  H+  H8  1  0.31845699  0.50641000  0.99616071  1
  H+  H9  1  0.47879604  0.46691812  0.76153134  1
  H+  H10  1  0.82588552  0.17757739  0.73596962  1
  H+  H11  1  0.81520466  0.82272843  0.52335118  1
  H+  H12  1  0.84812845  0.69153311  0.25983395  1
  H+  H13  1  0.49027223  0.35479787  0.76443469  1
  H+  H14  1  0.53304510  0.82138645  0.74536432  1
  H+  H15  1  0.84637570  0.38300671  0.24154176  1
  H+  H16  1  0.15265315  0.95564654  0.24730684  1
  H+  H17  1  0.15226222  0.17510301  -0.01348176  1
  H+  H18  1  1.03118088  0.16258325  0.48011408  1
  H+  H19  1  0.80545503  0.51290057  0.75227705  1
  H+  H20  1  0.13654865  0.96382108  0.74073632  1
  H+  H21  1  0.53056581  0.50509476  -0.00794452  1
  H+  H22  1  0.30660650  0.80437261  0.48749572  1
  H+  H23  1  0.82597868  0.30643713  0.00423704  1
  H+  H24  1  0.89423282  0.81390491  1.03770298  1
  H+  H25  1  0.52153848  0.69749088  0.74207567  1
  H+  H26  1  0.16043004  0.52886938  1.01397917  1
  H+  H27  1  0.36342450  0.88056122  0.01288848  1
  H+  H28  1  0.32140465  0.49246306  0.26130255  1
  H+  H29  1  0.78327627  0.21971965  0.64882200  1
  H+  H30  1  0.10235801  0.17224320  0.62911353  1
  H+  H31  1  0.45990664  0.92102707  0.11400317  1
  H+  H32  1  0.16986735  0.29143395  0.66664480  1
  H+  H33  1  0.12736688  0.63950436  0.74586864  1
  H+  H34  1  0.80304836  0.84871664  -0.02733834  1
  H+  H35  1  0.48863945  0.51743083  0.23661938  1
  H+  H36  1  0.20164396  0.38462786  0.98470040  1
  H+  H37  1  0.61682643  0.82070504  -0.02019596  1
  H+  H38  1  0.96725167  0.49620298  0.24954092  1
  H+  H39  1  0.63334493  0.14899100  0.48810571  1
  H+  H40  1  0.62482236  0.78999805  0.24608545  1
  H+  H41  1  -0.01927561  0.14934941  0.74788060  1
  H+  H42  1  0.17267008  0.81125435  0.27542722  1
  H+  H43  1  0.71751106  0.53740675  -0.00177710  1
  H+  H44  1  0.82729747  0.18778756  0.99935992  1
  H+  H45  1  0.17953760  -0.03890812  0.51724342  1
  H+  H46  1  0.20193829  0.14570769  0.27025586  1
  H+  H47  1  0.81973175  0.02393378  0.25305178  1
  H+  H48  1  0.81975617  0.52317482  0.23012395  1
  H+  H49  1  0.17074224  0.85418598  0.01522143  1
  H+  H50  1  0.54725446  0.45032696  0.90197976  1
  H+  H51  1  0.95862261  0.47841172  0.76497449  1
  H+  H52  1  0.85812473  0.48970320  0.99475039  1
  H+  H53  1  0.64626809  0.15873848  0.25426702  1
  H+  H54  1  0.53115179  0.37579338  0.24509374  1
  H+  H55  1  0.37458619  0.18018877  0.50636633  1
  H+  H56  1  0.49073467  0.17795912  0.50332231  1
  H+  H57  1  0.14599625  0.53187162  0.75470695  1
  H+  H58  1  0.48258601  -0.03741537  0.50418770  1
  H+  H59  1  0.82624815  0.22950442  0.49679696  1
  H+  H60  1  0.95113311  0.48498584  0.53382863  1
  H+  H61  1  0.70480798  0.84786968  0.75387799  1
  H+  H62  1  0.51005277  0.85182180  0.21601790  1
  H+  H63  1  0.51445338  0.12697145  0.24634542  1
  H+  H64  1  0.57111714  0.44429156  0.39946180  1
  H+  H65  1  0.65061656  0.15506462  0.97609094  1
  H+  H66  1  0.15352095  0.00250295  0.98341730  1
  H+  H67  1  0.64900445  0.15194083  0.75008887  1
  H+  H68  1  0.83744986  0.22921623  0.24246153  1
  H+  H69  1  0.77652409  0.06064793  0.48260746  1
  H+  H70  1  0.17840387  0.69052957  0.27319068  1
  H+  H71  1  0.16283652  0.52514773  0.24411160  1
  H+  H72  1  0.50617381  0.98269024  0.73661493  1
  H+  H73  1  0.86237962  0.02966173  0.75869384  1
  H+  H74  1  0.80246040  0.32392936  0.53355735  1
  H+  H75  1  0.14692752  0.27232177  0.51547905  1
  H+  H76  1  0.04218422  0.84194433  0.01766288  1
  H+  H77  1  0.52850313  0.22180640  -0.00152087  1
  H+  H78  1  0.83459406  0.49652793  0.53506153  1
  H+  H79  1  0.52380363  -0.01969540  0.22912429  1
  H+  H80  1  0.69211658  0.51792802  0.52146402  1
  H+  H81  1  0.64747624  0.49519118  0.24483155  1
  H+  H82  1  0.18908019  0.80748060  0.50029318  1
  H+  H83  1  0.90679102  0.11864402  0.89351408  1
  H+  H84  1  1.01212513  0.84580413  0.75509427  1
  H+  H85  1  0.84132361  0.69246531  0.49942590  1
  H+  H86  1  0.15103598  0.82035372  0.76134130  1
  H+  H87  1  0.52462589  0.81739597  0.48647681  1
  H+  H88  1  0.20013214  0.15010658  0.74278972  1
  H+  H89  1  0.85056467  1.00129866  0.28169909  1
  H+  H90  1  0.52783397  0.15148989  0.74726851  1
  H+  H91  1  0.79842796  0.80487854  0.22272456  1
  H+  H92  1  0.48347321  0.64930360  1.00761662  1
  H+  H93  1  -0.02058355  0.15693958  -0.01401752  1
  H+  H94  1  0.54064876  0.77025837  0.89283171  1
  H+  H95  1  0.04101405  0.52751478  0.01374704  1
  H+  H96  1  0.40533936  0.86104921  0.76574913  1
  H+  H97  1  0.81917983  0.94152179  0.53841505  1
  H+  H98  1  0.52763005  0.36293956  0.48596233  1
  H+  H99  1  0.84431475  0.65132387  1.00630049  1
  H+  H100  1  0.84451767  0.35683489  0.76544138  1
  H+  H101  1  0.81213924  0.63224944  0.76203192  1
  H+  H102  1  0.63711219  0.80740403  0.49387165  1
  H+  H103  1  0.52473202  0.33820914  0.01554190  1
  H+  H104  1  0.17614121  0.31339980  0.26722800  1
  H+  H105  1  0.25547649  0.81115716  0.72657053  1
  H+  H106  1  0.06750283  0.01259247  0.91931332  1
  H+  H107  1  0.19086765  0.12950741  0.47986604  1
  H+  H108  1  0.78080750  0.56598412  0.14116051  1
  H+  H109  1  0.75633296  0.84245649  0.13150217  1
  H+  H110  1  0.12781307  0.57083150  0.15518402  1
  H+  H111  1  0.24994551  0.46467549  0.35384831  1
  H+  H112  1  0.24256106  0.09201153  0.39919381  1
  H+  H113  1  0.55704086  0.77937656  0.34042275  1
  H+  H114  1  0.87571053  0.76983736  0.40886261  1
  H+  H115  1  0.18521630  0.45558827  0.55700355  1
  H+  H116  1  0.78257501  0.22634439  0.14226223  1
  H+  H117  1  0.89368993  0.44473257  0.90703361  1
  H+  H118  1  0.44871836  0.56886377  0.09878469  1
  H+  H119  1  0.84784658  0.81672649  0.78764119  1
  H+  H120  1  0.56905176  0.11547164  0.88606120  1
  H+  H121  1  0.19986100  0.70500321  0.98767285  1
  H+  H122  1  0.82279923  0.01764978  0.40425054  1
  H+  H123  1  0.23125807  0.78359621  0.89726970  1
  H+  H124  1  0.11943115  0.87877075  0.60371409  1
  H+  H125  1  0.45802620  0.21768551  0.64295484  1
  H+  H126  1  0.90511481  0.19650410  0.37484290  1
  H+  H127  1  0.23400795  0.47811719  0.86397764  1
  H+  H128  1  0.08869277  0.20909952  0.20366685  1
  H+  H129  1  0.21895047  0.09896126  0.83467375  1
  H+  H130  1  0.11278688  0.55041463  0.61320869  1
  H+  H131  1  0.15677635  0.60951019  0.51645771  1
  H+  H132  1  0.76271608  0.56297714  0.61811892  1
  H+  H133  1  0.44385116  0.18656602  0.12380830  1
  H+  H134  1  0.17309431  0.24799472  0.07506678  1
  H+  H135  1  0.55892027  0.10410961  0.39612271  1
  H+  H136  1  0.21455912  0.76676839  0.37975780  1
  H+  H137  1  0.78616203  0.87453850  0.66894467  1
  H+  H138  1  0.38236744  0.05354892  0.14229451  1
  H+  H139  1  0.89945138  0.78392799  0.87642868  1
  H+  H140  1  0.40629399  0.52947717  0.64408308  1
  H+  H141  1  0.12018903  0.87747576  0.15777672  1
  H+  H142  1  0.44370122  0.88530561  0.59389607  1
  H+  H143  1  0.48270022  0.63415948  0.24246791  1
  O2-  O144  1  0.12766042  0.22706122  0.26233937  1
  O2-  O145  1  0.12513069  0.21154178  0.68930244  1
  O2-  O146  1  0.12562018  0.56865867  0.22359976  1
  O2-  O147  1  0.09665249  0.55890822  0.72552383  1
  O2-  O148  1  0.11478473  0.87413455  0.22644570  1
  O2-  O149  1  0.08998035  0.88097396  0.72442715  1
  O2-  O150  1  0.40876262  0.12589868  0.17490758  1
  O2-  O151  1  0.46010873  0.21337509  0.71147023  1
  O2-  O152  1  0.44212644  0.55318094  0.21787709  1
  O2-  O153  1  0.43789920  0.56151115  0.70731557  1
  O2-  O154  1  0.48772623  0.90814809  0.19157060  1
  O2-  O155  1  0.46184297  0.89803739  0.71755117  1
  O2-  O156  1  0.77636917  0.23545601  0.20925484  1
  O2-  O157  1  0.78417860  0.21760205  0.71702476  1
  O2-  O158  1  0.77545405  0.56227819  0.20954069  1
  O2-  O159  1  0.76872030  0.55663733  0.73221896  1
  O2-  O160  1  0.73369492  0.80719713  0.19209646  1
  O2-  O161  1  0.78821927  0.88897375  0.73665766  1
  O2-  O162  1  0.23376627  0.09487390  0.28190392  1
  O2-  O163  1  0.23218900  0.10355383  0.76783891  1
  O2-  O164  1  0.23969549  0.45245595  0.28803140  1
  O2-  O165  1  0.22718285  0.47892227  0.79488195  1
  O2-  O166  1  0.21161460  0.76939683  0.30275017  1
  O2-  O167  1  0.19995067  0.78282406  0.77620131  1
  O2-  O168  1  0.56692160  0.10678544  0.27879592  1
  O2-  O169  1  0.56725422  0.10929132  0.77174386  1
  O2-  O170  1  0.56525963  0.45340841  0.26886920  1
  O2-  O171  1  0.48400931  0.41145046  0.80260129  1
  O2-  O172  1  0.54741099  0.76997792  0.27230147  1
  O2-  O173  1  0.56409983  0.77501590  0.77200346  1
  O2-  O174  1  0.93968805  0.25079010  0.32443772  1
  O2-  O175  1  0.90415852  0.11334396  0.77649748  1
  O2-  O176  1  0.88574170  0.46256779  0.26499852  1
  O2-  O177  1  0.88045769  0.43505815  0.79201104  1
  O2-  O178  1  0.88610051  0.77175589  0.28464886  1
  O2-  O179  1  0.89169227  0.77908019  0.80785616  1
  O2-  O180  1  0.23973305  0.09547478  0.46699865  1
  O2-  O181  1  0.14609546  0.05912247  0.94133501  1
  O2-  O182  1  0.21225012  0.39960989  0.57052156  1
  O2-  O183  1  0.23612969  0.46742113  0.97200967  1
  O2-  O184  1  0.22339889  0.76208378  0.46848518  1
  O2-  O185  1  0.24251490  0.78563947  0.96416550  1
  O2-  O186  1  0.55389621  0.10023343  0.46422554  1
  O2-  O187  1  0.56925527  0.11859644  0.95459324  1
  O2-  O188  1  0.57063530  0.44415463  0.46646666  1
  O2-  O189  1  0.57293242  0.46827948  0.96782638  1
  O2-  O190  1  0.56973629  0.78827822  0.45526216  1
  O2-  O191  1  0.53613092  0.77563104  0.96018498  1
  O2-  O192  1  0.84731527  0.07060718  0.45604982  1
  O2-  O193  1  0.90065096  0.11511576  0.96183500  1
  O2-  O194  1  0.86780549  0.44402060  0.52590179  1
  O2-  O195  1  0.89866571  0.44764602  0.97552156  1
  O2-  O196  1  0.87720920  0.77294587  0.47636315  1
  O2-  O197  1  0.92513448  0.79020592  0.98754710  1
  O2-  O198  1  0.13890528  0.23568123  0.01454686  1
  O2-  O199  1  0.10604306  0.18684008  0.50687758  1
  O2-  O200  1  0.12204916  0.57116855  0.03648194  1
  O2-  O201  1  0.11616831  0.53410945  0.54680832  1
  O2-  O202  1  0.12930723  0.89069791  0.04184671  1
  O2-  O203  1  0.14971596  0.88249240  0.54177109  1
  O2-  O204  1  0.49832431  0.25894876  0.03885113  1
  O2-  O205  1  0.45549174  0.22148130  0.52883474  1
  O2-  O206  1  0.44634270  0.56750638  0.03080456  1
  O2-  O207  1  0.33381328  0.46038460  0.55262138  1
  O2-  O208  1  0.42605034  0.94609135  0.04850078  1
  O2-  O209  1  0.44059820  0.88137073  0.52650593  1
  O2-  O210  1  0.78338049  0.22339279  0.02291300  1
  O2-  O211  1  0.76841842  0.23289792  0.53412827  1
  O2-  O212  1  0.79541682  0.56790846  0.02531635  1
  O2-  O213  1  0.77062258  0.56375571  0.54981036  1
  O2-  O214  1  0.77090050  0.88758385  0.00801136  1
  O2-  O215  1  0.77440625  0.86128840  0.55673651  1
