# generated using pymatgen
data_H2O
_symmetry_space_group_name_H-M   'P 1'
_cell_length_a   13.53122522
_cell_length_b   13.51816960
_cell_length_c   14.68739560
_cell_angle_alpha   89.96852732
_cell_angle_beta   90.03757280
_cell_angle_gamma   120.03108395
_symmetry_Int_Tables_number   1
_chemical_formula_structural   H2O
_chemical_formula_sum   'H144 O72'
_cell_volume   2325.91700755
_cell_formula_units_Z   72
loop_
 _symmetry_equiv_pos_site_id
 _symmetry_equiv_pos_as_xyz
  1  'x, y, z'
loop_
 _atom_type_symbol
 _atom_type_oxidation_number
  H+  1.0
  O2-  -2.0
loop_
 _atom_site_type_symbol
 _atom_site_label
 _atom_site_symmetry_multiplicity
 _atom_site_fract_x
 _atom_site_fract_y
 _atom_site_fract_z
 _atom_site_occupancy
  H+  H0  1  0.85431797  0.81633704  0.98706489  1
  H+  H1  1  0.88093768  0.46045261  0.84190680  1
  H+  H2  1  1.05384169  0.17848151  1.00994614  1
  H+  H3  1  0.03393596  0.84767239  0.50904158  1
  H+  H4  1  1.03753806  0.18815402  0.74356382  1
  H+  H5  1  0.54948137  0.48709520  0.23954759  1
  H+  H6  1  0.31931985  0.48246199  0.50617929  1
  H+  H7  1  0.51589081  0.47221263  0.50479807  1
  H+  H8  1  0.64668209  0.83167832  0.75266891  1
  H+  H9  1  0.12839450  -0.00360805  0.23004578  1
  H+  H10  1  0.25813551  0.44806947  0.40953326  1
  H+  H11  1  0.81371499  0.29728731  0.24362925  1
  H+  H12  1  0.31408285  0.82599482  0.97947812  1
  H+  H13  1  0.51267425  0.16696417  0.25827756  1
  H+  H14  1  0.83075563  0.18787459  0.73899449  1
  H+  H15  1  0.50102809  0.63385664  0.23343761  1
  H+  H16  1  0.81354765  0.13376038  0.26397545  1
  H+  H17  1  0.73863511  0.53823736  1.08485977  1
  H+  H18  1  0.08526161  0.18640843  0.23218479  1
  H+  H19  1  0.85377884  0.69472056  0.25777804  1
  H+  H20  1  0.51032800  0.80770178  0.25518879  1
  H+  H21  1  0.85614149  1.02749797  0.75080959  1
  H+  H22  1  0.81500590  0.84509139  0.73409186  1
  H+  H23  1  0.18586166  0.54052915  0.75162339  1
  H+  H24  1  0.31420108  0.11904599  0.26622663  1
  H+  H25  1  0.11161044  0.55832731  0.04384464  1
  H+  H26  1  0.84209298  0.53311279  0.22202567  1
  H+  H27  1  1.08453031  0.81267738  0.64137733  1
  H+  H28  1  0.17181612  0.50181657  0.30297589  1
  H+  H29  1  0.72024099  0.52599181  0.22552238  1
  H+  H30  1  0.20755117  0.37055344  0.98833791  1
  H+  H31  1  0.97591144  0.48831551  0.50001831  1
  H+  H32  1  0.30024513  0.13546386  0.74798570  1
  H+  H33  1  0.62572207  0.15696566  0.26420164  1
  H+  H34  1  0.15782654  0.19462435  0.73539455  1
  H+  H35  1  0.19281457  0.02589980  0.49060987  1
  H+  H36  1  0.69257904  0.83830745  0.23694228  1
  H+  H37  1  0.78443256  0.15265462  0.51804804  1
  H+  H38  1  0.57867375  0.39397251  0.00772725  1
  H+  H39  1  0.40000835  0.52158865  0.00039493  1
  H+  H40  1  0.63068242  0.16265320  0.98285036  1
  H+  H41  1  0.48139189  0.29878714  0.51391028  1
  H+  H42  1  0.55417438  0.77293466  0.34350962  1
  H+  H43  1  0.93073896  0.14529560  0.28842011  1
  H+  H44  1  0.14589446  0.83747719  0.50825007  1
  H+  H45  1  0.20723038  0.48829981  0.97745663  1
  H+  H46  1  0.97424743  0.47153943  0.27536688  1
  H+  H47  1  0.86853074  0.00300291  0.99375790  1
  H+  H48  1  0.11750763  0.53096249  0.38537107  1
  H+  H49  1  0.77747736  0.61349216  0.74524610  1
  H+  H50  1  0.61883693  0.13706145  0.50102785  1
  H+  H51  1  0.83391795  0.49586827  0.97798861  1
  H+  H52  1  0.15668800  0.64390963  -0.03634877  1
  H+  H53  1  0.94243395  0.54356316  0.75812390  1
  H+  H54  1  0.53213739  0.82640290  -0.01796894  1
  H+  H55  1  0.22131688  0.36830427  0.26421471  1
  H+  H56  1  0.40095190  0.22057368  0.00837815  1
  H+  H57  1  0.75722145  0.20591734  0.60287287  1
  H+  H58  1  0.82964535  0.53253766  0.51575746  1
  H+  H59  1  0.55886852  0.37359554  0.23199969  1
  H+  H60  1  0.19769667  0.82491016  0.99348768  1
  H+  H61  1  0.50814666  0.69312059  0.48020117  1
  H+  H62  1  0.48135888  0.96935200  0.74756996  1
  H+  H63  1  0.25535465  0.68615643  0.31205163  1
  H+  H64  1  0.15556776  -0.00942356  0.99963483  1
  H+  H65  1  0.34382642  0.81437921  0.27363748  1
  H+  H66  1  0.83499479  0.80646333  0.48801714  1
  H+  H67  1  0.15245642  0.81190416  0.24545358  1
  H+  H68  1  0.14027020  0.47084664  0.52789489  1
  H+  H69  1  0.05999701  0.51098381  0.75811388  1
  H+  H70  1  0.40694362  0.84822806  0.42552329  1
  H+  H71  1  0.80697603  0.33156859  0.00952254  1
  H+  H72  1  0.19551781  0.85525180  0.21311272  1
  H+  H73  1  0.69576977  0.83052984  0.50032683  1
  H+  H74  1  0.14735921  0.71088642  0.75010434  1
  H+  H75  1  0.80973930  0.22208132  -0.01138676  1
  H+  H76  1  0.40839996  0.25655554  0.22356468  1
  H+  H77  1  0.45810679  0.43737305  0.73988311  1
  H+  H78  1  0.60481052  0.42348635  0.75452217  1
  H+  H79  1  0.00609934  0.87908374  0.22719349  1
  H+  H80  1  0.52016485  0.81658308  0.47652907  1
  H+  H81  1  0.83341173  0.67673519  0.49612916  1
  H+  H82  1  0.38297945  0.83889256  0.72296497  1
  H+  H83  1  0.33423570  0.49000516  0.26034798  1
  H+  H84  1  0.62791467  0.46783284  0.48906523  1
  H+  H85  1  0.49695402  -0.02123626  0.99229471  1
  H+  H86  1  0.47754382  0.17750229  0.52070477  1
  H+  H87  1  0.86833493  0.11682956  1.00100879  1
  H+  H88  1  0.51909042  0.84491091  0.75284299  1
  H+  H89  1  0.78308738  0.49910135  0.73868126  1
  H+  H90  1  0.94670857  0.77964129  0.74660791  1
  H+  H91  1  0.55723305  0.63087078  0.57194066  1
  H+  H92  1  0.49513875  0.26141688  0.64806269  1
  H+  H93  1  0.70483561  0.84133013  0.00725069  1
  H+  H94  1  -0.04070059  0.50380337  -0.03012713  1
  H+  H95  1  0.37012042  0.48396245  0.75139796  1
  H+  H96  1  0.47869610  1.00231042  0.23119944  1
  H+  H97  1  0.13018580  0.29336403  0.50675606  1
  H+  H98  1  0.51872435  0.14567119  0.75434220  1
  H+  H99  1  0.18976679  0.37445564  0.75918908  1
  H+  H100  1  0.80862708  -0.04431759  0.24102170  1
  H+  H101  1  0.83521454  0.80381674  0.26806172  1
  H+  H102  1  0.47973267  0.95806404  0.48754435  1
  H+  H103  1  0.20031344  0.18784522  0.23953856  1
  H+  H104  1  0.17930472  0.02808622  0.74530551  1
  H+  H105  1  1.02932787  0.85951989  1.00224181  1
  H+  H106  1  0.83115519  0.30452694  0.73153009  1
  H+  H107  1  0.19346287  0.15120424  -0.01854736  1
  H+  H108  1  0.54258547  0.11198119  0.41021782  1
  H+  H109  1  0.77857794  0.87155390  0.10098779  1
  H+  H110  1  0.52080128  0.09251380  0.85101615  1
  H+  H111  1  0.08875329  0.92263683  0.10375380  1
  H+  H112  1  0.77394251  0.87978204  0.64388893  1
  H+  H113  1  0.09073715  0.22496729  0.59839644  1
  H+  H114  1  0.89781589  0.09516222  0.84464771  1
  H+  H115  1  0.52587416  0.53612249  0.00757778  1
  H+  H116  1  0.88631394  0.77793950  0.84029902  1
  H+  H117  1  0.46103789  0.90262364  0.08066166  1
  H+  H118  1  0.36556204  0.93749223  0.17388084  1
  H+  H119  1  0.76954827  0.22384360  0.15281058  1
  H+  H120  1  0.53263654  0.70637997  0.98121399  1
  H+  H121  1  0.85651869  0.08406981  0.41639505  1
  H+  H122  1  0.22475311  0.10052151  0.89309920  1
  H+  H123  1  0.76986571  0.55849326  0.60298256  1
  H+  H124  1  0.14501802  0.22599593  0.09248914  1
  H+  H125  1  0.94617948  0.13428334  0.50026763  1
  H+  H126  1  0.81529928  0.95068563  0.50723744  1
  H+  H127  1  0.88136646  0.44500500  0.34655898  1
  H+  H128  1  0.11485067  0.56340359  0.15710967  1
  H+  H129  1  0.51425005  0.16090481  0.99094906  1
  H+  H130  1  0.46782004  0.24043676  0.10769993  1
  H+  H131  1  0.23836621  0.10066607  0.35911962  1
  H+  H132  1  0.22781620  0.76580670  0.41638400  1
  H+  H133  1  0.98360816  0.58890247  0.44372250  1
  H+  H134  1  0.85793413  0.70195394  0.98145392  1
  H+  H135  1  0.24281228  0.44942946  0.84941721  1
  H+  H136  1  0.46521460  0.55865526  0.14322966  1
  H+  H137  1  0.56911505  0.79306598  0.84714256  1
  H+  H138  1  0.30787924  0.14680241  0.49357919  1
  H+  H139  1  0.45862734  0.53667630  0.62956162  1
  H+  H140  1  0.87567595  0.75992891  0.39335179  1
  H+  H141  1  0.26894139  0.78461513  0.51473131  1
  H+  H142  1  0.13152122  0.62583102  0.15543583  1
  H+  H143  1  0.10266550  0.52008138  0.61093633  1
  O2-  O144  1  0.16376023  0.23032573  0.21098808  1
  O2-  O145  1  0.11742940  0.23620693  0.72012571  1
  O2-  O146  1  0.13081911  0.54397800  0.31996591  1
  O2-  O147  1  0.13337603  0.56976860  0.73344254  1
  O2-  O148  1  0.06198778  0.94484671  0.18998016  1
  O2-  O149  1  0.05012252  0.76108875  0.69567894  1
  O2-  O150  1  0.46075334  0.23163292  0.20309531  1
  O2-  O151  1  0.54154202  0.27360443  0.70581397  1
  O2-  O152  1  0.46320666  0.55375958  0.21116846  1
  O2-  O153  1  0.44765684  0.50358248  0.72904342  1
  O2-  O154  1  0.42766983  0.92713708  0.19641576  1
  O2-  O155  1  0.46523570  0.89044482  0.71958003  1
  O2-  O156  1  0.76832419  0.21704350  0.22009015  1
  O2-  O157  1  0.78650771  0.22306852  0.71695571  1
  O2-  O158  1  0.80352752  0.57492600  0.20124775  1
  O2-  O159  1  0.74048377  0.53676776  0.71615147  1
  O2-  O160  1  0.77468116  0.87600209  0.21781755  1
  O2-  O161  1  0.77579267  0.88694496  0.71152614  1
  O2-  O162  1  0.23799334  0.10181548  0.28745113  1
  O2-  O163  1  0.22323282  0.10388931  0.77281783  1
  O2-  O164  1  0.25759853  0.44590515  0.29105428  1
  O2-  O165  1  0.23885451  0.45464506  0.78177637  1
  O2-  O166  1  0.31950124  0.76347039  0.32760370  1
  O2-  O167  1  0.14961083  0.78571764  0.75308614  1
  O2-  O168  1  0.54493253  0.11868507  0.28457506  1
  O2-  O169  1  0.49155425  0.07253666  0.78758063  1
  O2-  O170  1  0.59928685  0.45488584  0.25344793  1
  O2-  O171  1  0.52789472  0.35472842  0.76345918  1
  O2-  O172  1  0.55635237  0.77440146  0.27486836  1
  O2-  O173  1  0.56651014  0.79801913  0.77834303  1
  O2-  O174  1  0.84951893  0.09007573  0.29085283  1
  O2-  O175  1  0.89972465  0.10557779  0.77806021  1
  O2-  O176  1  0.89039305  0.43714289  0.28038842  1
  O2-  O177  1  0.88736367  0.46428125  0.77350223  1
  O2-  O178  1  0.88223195  0.77053383  0.29126930  1
  O2-  O179  1  0.87392910  0.76893242  0.77347202  1
  O2-  O180  1  0.23381445  0.10143393  0.46062849  1
  O2-  O181  1  0.22408272  0.10047004  0.96105315  1
  O2-  O182  1  0.24452460  0.44679426  0.47638053  1
  O2-  O183  1  0.25248003  0.45058502  0.96546031  1
  O2-  O184  1  0.19830127  0.75770321  0.47928228  1
  O2-  O185  1  0.23212511  0.78600853  0.96186491  1
  O2-  O186  1  0.53656656  0.09893245  0.47697951  1
  O2-  O187  1  0.54950001  0.11596038  0.96521211  1
  O2-  O188  1  0.54584995  0.42684140  0.47524175  1
  O2-  O189  1  0.61634894  0.47693513  0.98732590  1
  O2-  O190  1  0.55930870  0.77125201  0.45784707  1
  O2-  O191  1  0.57399310  0.78747853  0.95870300  1
  O2-  O192  1  0.86344065  0.07869080  0.48283767  1
  O2-  O193  1  0.91192827  0.08557894  0.97279984  1
  O2-  O194  1  0.92746941  0.51115674  0.46213964  1
  O2-  O195  1  0.87603946  0.45745762  0.95574272  1
  O2-  O196  1  0.87478159  0.76110792  0.46509656  1
  O2-  O197  1  0.90077812  0.78263600  0.96208040  1
  O2-  O198  1  0.13665410  0.22538696  0.02489778  1
  O2-  O199  1  0.07525731  0.21820010  0.53215025  1
  O2-  O200  1  0.11018075  0.55891136  -0.02295387  1
  O2-  O201  1  0.07735616  0.48096288  0.55160864  1
  O2-  O202  1  0.10611692  0.90927046  0.03344728  1
  O2-  O203  1  0.10958150  0.87952901  0.53730236  1
  O2-  O204  1  0.47773921  0.25035283  0.03362982  1
  O2-  O205  1  0.44131449  0.22113838  0.54507684  1
  O2-  O206  1  0.47846967  0.57066573  0.02484542  1
  O2-  O207  1  0.47922147  0.56830546  0.56322534  1
  O2-  O208  1  0.46293913  0.89699624  0.01348139  1
  O2-  O209  1  0.44256744  0.87169871  0.48625837  1
  O2-  O210  1  0.77201758  0.24941272  0.02945995  1
  O2-  O211  1  0.74617893  0.19566036  0.53542446  1
  O2-  O212  1  0.73815895  0.53591135  0.01659116  1
  O2-  O213  1  0.78174741  0.56682606  0.53478725  1
  O2-  O214  1  0.78435965  0.87379920  0.03270699  1
  O2-  O215  1  0.77574100  0.86532504  0.52442633  1
