# generated using pymatgen
data_H2O
_symmetry_space_group_name_H-M   'P 1'
_cell_length_a   13.50670731
_cell_length_b   13.49758967
_cell_length_c   14.68075187
_cell_angle_alpha   89.95601877
_cell_angle_beta   89.99966593
_cell_angle_gamma   120.07158471
_symmetry_Int_Tables_number   1
_chemical_formula_structural   H2O
_chemical_formula_sum   'H144 O72'
_cell_volume   2316.17166283
_cell_formula_units_Z   72
loop_
 _symmetry_equiv_pos_site_id
 _symmetry_equiv_pos_as_xyz
  1  'x, y, z'
loop_
 _atom_type_symbol
 _atom_type_oxidation_number
  H+  1.0
  O2-  -2.0
loop_
 _atom_site_type_symbol
 _atom_site_label
 _atom_site_symmetry_multiplicity
 _atom_site_fract_x
 _atom_site_fract_y
 _atom_site_fract_z
 _atom_site_occupancy
  H+  H0  1  0.85029898  0.16480322  0.76395580  1
  H+  H1  1  0.83428650  0.53127917  0.24697305  1
  H+  H2  1  0.15414081  0.97813254  0.01251700  1
  H+  H3  1  0.82843462  0.62008444  0.01316367  1
  H+  H4  1  0.88355524  0.44207326  0.90653030  1
  H+  H5  1  0.14053653  0.50895768  0.00992342  1
  H+  H6  1  0.83434163  0.98315995  0.02626004  1
  H+  H7  1  0.21223751  0.48912587  0.76593744  1
  H+  H8  1  0.50476322  0.15556762  0.75940820  1
  H+  H9  1  0.48033072  0.19990766  1.00763657  1
  H+  H10  1  0.57261463  0.78783065  0.91441621  1
  H+  H11  1  0.09917604  0.89426948  0.60044263  1
  H+  H12  1  0.34314852  0.49839014  0.00386903  1
  H+  H13  1  0.36051250  0.19797632  0.75189108  1
  H+  H14  1  0.95796889  0.48470365  0.76147396  1
  H+  H15  1  0.58797132  0.52627724  0.98885049  1
  H+  H16  1  0.15354518  0.85930592  1.01620816  1
  H+  H17  1  0.96288377  0.16304778  0.51370471  1
  H+  H18  1  0.16934379  0.35947640  -0.01030302  1
  H+  H19  1  0.51344159  0.70118511  0.50269506  1
  H+  H20  1  0.65247192  0.49371603  0.27215144  1
  H+  H21  1  0.38639577  0.52474090  0.76149539  1
  H+  H22  1  0.81182808  0.85276123  0.25471764  1
  H+  H23  1  0.84473824  0.02970436  0.27415792  1
  H+  H24  1  0.21880054  0.44089897  0.90012901  1
  H+  H25  1  0.81850355  0.53049042  0.74081384  1
  H+  H26  1  0.85257901  0.83087412  0.76295157  1
  H+  H27  1  1.02445985  0.50498031  0.24589488  1
  H+  H28  1  0.83613067  0.37285631  0.76417460  1
  H+  H29  1  0.17896111  0.70095318  0.76019393  1
  H+  H30  1  0.52063359  0.03598630  0.25085353  1
  H+  H31  1  0.48055461  0.85489515  0.24277830  1
  H+  H32  1  0.50971452  0.53229542  0.76379189  1
  H+  H33  1  0.56729695  0.46361424  0.40633578  1
  H+  H34  1  0.47187753  -0.03910691  0.50465082  1
  H+  H35  1  0.68276847  0.17879454  0.51094847  1
  H+  H36  1  0.82907791  0.36946157  0.49215588  1
  H+  H37  1  0.47849325  0.84611717  0.01436283  1
  H+  H38  1  0.29865395  0.84005791  0.26617434  1
  H+  H39  1  0.50589104  0.33766096  0.51737425  1
  H+  H40  1  0.70549632  0.86746490  0.74690439  1
  H+  H41  1  0.81372859  0.98146055  0.51402117  1
  H+  H42  1  0.18581523  0.04295190  0.25700751  1
  H+  H43  1  0.16329616  0.63985161  0.51696100  1
  H+  H44  1  0.30402007  0.16808497  0.99065120  1
  H+  H45  1  0.85115846  0.70320755  0.49336671  1
  H+  H46  1  0.02925151  0.85996574  0.74029826  1
  H+  H47  1  0.49738598  0.32651236  1.00970715  1
  H+  H48  1  0.47186386  0.84274045  0.50939793  1
  H+  H49  1  0.46515054  0.57018092  0.63071740  1
  H+  H50  1  0.54349526  0.25147517  0.55086984  1
  H+  H51  1  0.06203585  0.21487071  0.75503985  1
  H+  H52  1  0.14727749  0.86017451  0.73823589  1
  H+  H53  1  0.49693068  0.02970225  0.98827486  1
  H+  H54  1  0.68783612  0.18900627  0.74633501  1
  H+  H55  1  0.85956664  0.70396691  0.26699050  1
  H+  H56  1  -0.03032468  0.80570057  -0.00682887  1
  H+  H57  1  0.47345958  0.97091299  0.74027144  1
  H+  H58  1  0.52359270  0.50368172  0.49751341  1
  H+  H59  1  0.52694558  0.38106071  0.77597983  1
  H+  H60  1  0.11169787  0.23747085  0.62330020  1
  H+  H61  1  0.14371927  0.48168096  0.23501873  1
  H+  H62  1  0.89077870  0.11823527  0.90090898  1
  H+  H63  1  0.48619774  0.19382507  0.23446935  1
  H+  H64  1  0.36881682  0.51636537  0.55698396  1
  H+  H65  1  0.14980816  0.18150707  0.23991115  1
  H+  H66  1  0.02667401  0.18151414  0.00867010  1
  H+  H67  1  0.76571636  0.23011911  0.65746150  1
  H+  H68  1  0.14737661  0.18286478  0.00813235  1
  H+  H69  1  0.52065883  0.82825045  0.76716609  1
  H+  H70  1  0.53063375  0.69814039  0.99498430  1
  H+  H71  1  0.15378795  0.96373048  0.50519894  1
  H+  H72  1  0.28536700  0.47840790  0.23974833  1
  H+  H73  1  0.44570518  0.47286108  0.01116074  1
  H+  H74  1  0.14311908  0.29871701  0.52521113  1
  H+  H75  1  0.83870653  0.49267916  0.49133464  1
  H+  H76  1  0.84927736  0.71052490  0.75659346  1
  H+  H77  1  0.30579080  0.16288125  0.25392733  1
  H+  H78  1  0.53122313  0.37833677  0.27037692  1
  H+  H79  1  0.17400044  0.52723990  0.50657674  1
  H+  H80  1  0.18809079  0.17994717  0.76153358  1
  H+  H81  1  0.29755758  0.81756856  0.76035379  1
  H+  H82  1  0.21247732  0.77351344  0.90608342  1
  H+  H83  1  0.31871479  0.50717085  0.43396554  1
  H+  H84  1  0.72575543  0.85960529  0.02777659  1
  H+  H85  1  0.70727608  0.50044820  0.01500709  1
  H+  H86  1  0.29048479  0.81805446  0.49533031  1
  H+  H87  1  0.85612884  0.04987106  0.76070506  1
  H+  H88  1  0.80246304  0.29635497  0.00291447  1
  H+  H89  1  0.17138064  0.69443329  0.99507404  1
  H+  H90  1  0.15034791  0.86502138  0.24790034  1
  H+  H91  1  0.98032148  0.83034302  0.49192400  1
  H+  H92  1  0.85645095  0.37550959  0.27173274  1
  H+  H93  1  0.62354027  0.81243739  0.25997029  1
  H+  H94  1  0.83856570  0.18464199  0.24482621  1
  H+  H95  1  0.84654842  0.47696716  1.00071115  1
  H+  H96  1  0.70244466  0.54402385  0.51257478  1
  H+  H97  1  0.69963412  0.52824540  0.74585848  1
  H+  H98  1  0.20038000  0.35945320  0.76339583  1
  H+  H99  1  0.01984964  0.50583831  0.01205000  1
  H+  H100  1  0.16893180  0.81202206  0.49793479  1
  H+  H101  1  0.63830010  0.15634349  0.25238470  1
  H+  H102  1  0.62799523  0.82129807  0.49272653  1
  H+  H103  1  0.84435885  0.15301747  -0.01228379  1
  H+  H104  1  0.35676339  0.84078765  0.01146657  1
  H+  H105  1  0.05733440  0.42176955  0.70628307  1
  H+  H106  1  0.16429133  0.34796841  0.24221894  1
  H+  H107  1  0.31349632  0.14430839  0.49001963  1
  H+  H108  1  0.43602021  0.88793705  0.65357162  1
  H+  H109  1  0.18334926  0.05495921  0.75929322  1
  H+  H110  1  0.96736015  0.14467364  0.26821986  1
  H+  H111  1  0.97714665  0.82907228  0.26750252  1
  H+  H112  1  0.44422167  0.24494310  0.66521676  1
  H+  H113  1  0.57934887  0.45817254  0.86892110  1
  H+  H114  1  0.78377602  0.90102206  0.16447579  1
  H+  H115  1  0.10648322  0.89954920  0.15700821  1
  H+  H116  1  0.54703627  0.10565068  0.38931158  1
  H+  H117  1  0.89179407  0.45499256  0.36113182  1
  H+  H118  1  0.89461551  0.76467758  0.90312204  1
  H+  H119  1  0.75558010  0.20965839  0.08725798  1
  H+  H120  1  0.61603578  0.14586277  0.98347340  1
  H+  H121  1  0.24972852  0.09957858  0.39483427  1
  H+  H122  1  0.78236410  0.58095745  0.60262409  1
  H+  H123  1  0.81533626  0.86423150  0.50812460  1
  H+  H124  1  0.45295568  0.62665173  0.23306140  1
  H+  H125  1  0.22446768  0.12431110  0.90147151  1
  H+  H126  1  0.20918783  0.43637774  0.37874180  1
  H+  H127  1  0.78007530  0.90249134  0.65570870  1
  H+  H128  1  0.09612116  0.53653172  0.14437421  1
  H+  H129  1  0.79171446  0.56409544  0.15631038  1
  H+  H130  1  0.54175787  0.77013356  0.34609497  1
  H+  H131  1  0.10180842  0.21109492  0.14846050  1
  H+  H132  1  0.21662381  0.79485624  0.35283074  1
  H+  H133  1  0.44081001  0.89408367  0.15363203  1
  H+  H134  1  0.88714578  0.28422378  0.17390764  1
  H+  H135  1  0.89822364  0.78184285  0.38915596  1
  H+  H136  1  0.44960827  0.24152314  0.14888586  1
  H+  H137  1  0.41751439  0.54405437  0.14544452  1
  H+  H138  1  0.52958372  0.71435392  0.77074290  1
  H+  H139  1  0.11011901  0.53226186  0.64473044  1
  H+  H140  1  0.89217361  0.12412464  0.41896457  1
  H+  H141  1  0.47674095  0.12218890  0.46710955  1
  H+  H142  1  0.53937827  0.10877928  0.84603373  1
  H+  H143  1  0.80487222  0.18698043  0.51661731  1
  O2-  O144  1  0.10213542  0.21484463  0.21714881  1
  O2-  O145  1  0.13956109  0.25124260  0.72912017  1
  O2-  O146  1  0.10074379  0.53066986  0.21395594  1
  O2-  O147  1  0.08814786  0.50422888  0.71121751  1
  O2-  O148  1  0.10489240  0.90210830  0.22526488  1
  O2-  O149  1  0.10878783  0.90061438  0.71373734  1
  O2-  O150  1  0.44705934  0.23658255  0.21734350  1
  O2-  O151  1  0.44374086  0.23710464  0.73232325  1
  O2-  O152  1  0.40391194  0.54671112  0.21188301  1
  O2-  O153  1  0.46813733  0.57188690  0.73936439  1
  O2-  O154  1  0.44663084  0.90190975  0.22146111  1
  O2-  O155  1  0.43522034  0.88831293  0.72161752  1
  O2-  O156  1  0.81865861  0.23860951  0.21058959  1
  O2-  O157  1  0.76934297  0.23312834  0.72535019  1
  O2-  O158  1  0.79560834  0.57304869  0.22473050  1
  O2-  O159  1  0.77825362  0.57014486  0.71664327  1
  O2-  O160  1  0.77249613  0.89381017  0.23393347  1
  O2-  O161  1  0.78585834  0.90623634  0.72328186  1
  O2-  O162  1  0.22674792  0.12366621  0.28055511  1
  O2-  O163  1  0.22597028  0.13254079  0.78584523  1
  O2-  O164  1  0.19949050  0.43098763  0.26297955  1
  O2-  O165  1  0.24895547  0.44840288  0.79225695  1
  O2-  O166  1  0.21790739  0.80486897  0.28566399  1
  O2-  O167  1  0.21660279  0.77893307  0.78409626  1
  O2-  O168  1  0.55966269  0.11763539  0.27494550  1
  O2-  O169  1  0.54343573  0.11152450  0.77781525  1
  O2-  O170  1  0.57581762  0.45343555  0.30107166  1
  O2-  O171  1  0.57364402  0.46166865  0.79708140  1
  O2-  O172  1  0.54119023  0.77245829  0.27847865  1
  O2-  O173  1  0.56760175  0.79608362  0.79132269  1
  O2-  O174  1  0.88851346  0.11234129  0.29418193  1
  O2-  O175  1  0.89377055  0.12855563  0.78696154  1
  O2-  O176  1  0.90036909  0.45635707  0.29122113  1
  O2-  O177  1  0.87981539  0.45369980  0.78722710  1
  O2-  O178  1  0.89727956  0.78317404  0.29552747  1
  O2-  O179  1  0.89418104  0.79018497  0.78103965  1
  O2-  O180  1  0.26476943  0.07501466  0.45498459  1
  O2-  O181  1  0.22277940  0.12134572  0.97008827  1
  O2-  O182  1  0.23705263  0.45543294  0.44310892  1
  O2-  O183  1  0.20838136  0.44120924  0.96892270  1
  O2-  O184  1  0.21009447  0.77466358  0.47236401  1
  O2-  O185  1  0.21522558  0.77529219  0.97391574  1
  O2-  O186  1  0.53495735  0.10016156  0.45725459  1
  O2-  O187  1  0.53464639  0.10896010  0.96326373  1
  O2-  O188  1  0.56774996  0.46741557  0.47635198  1
  O2-  O189  1  0.58370164  0.45496157  0.97039715  1
  O2-  O190  1  0.54703964  0.77636790  0.47122297  1
  O2-  O191  1  0.56890582  0.78093798  0.98204445  1
  O2-  O192  1  0.88264953  0.12148465  0.48616345  1
  O2-  O193  1  0.89117486  0.11829608  0.96961309  1
  O2-  O194  1  0.87092915  0.44735603  0.46537962  1
  O2-  O195  1  0.88449540  0.43359461  0.97415709  1
  O2-  O196  1  0.89649121  0.78536886  0.46426973  1
  O2-  O197  1  0.89509600  0.74683715  0.96839330  1
  O2-  O198  1  0.10665430  0.22196559  0.03395119  1
  O2-  O199  1  0.09188839  0.22604006  0.55501406  1
  O2-  O200  1  0.10020229  0.54760191  0.03730979  1
  O2-  O201  1  0.14332974  0.56514646  0.54542826  1
  O2-  O202  1  0.11381798  0.89946962  0.03924775  1
  O2-  O203  1  0.09504898  0.88732881  0.53164037  1
  O2-  O204  1  0.44641421  0.24480076  0.03239482  1
  O2-  O205  1  0.47530460  0.25833734  0.54450866  1
  O2-  O206  1  0.42379336  0.52997289  0.02742034  1
  O2-  O207  1  0.45178486  0.56460616  0.56161876  1
  O2-  O208  1  0.43720426  0.88602206  0.03439001  1
  O2-  O209  1  0.43199121  0.88324665  0.53273694  1
  O2-  O210  1  0.75721277  0.21249502  0.02028224  1
  O2-  O211  1  0.76043609  0.22444693  0.53684498  1
  O2-  O212  1  0.78833758  0.54145636  0.04261898  1
  O2-  O213  1  0.78463365  0.58602996  0.53381564  1
  O2-  O214  1  0.79980846  0.90820382  0.05809603  1
  O2-  O215  1  0.77125892  0.89812271  0.53273320  1
