# generated using pymatgen
data_H2O
_symmetry_space_group_name_H-M   'P 1'
_cell_length_a   13.52305576
_cell_length_b   13.52254322
_cell_length_c   14.69743415
_cell_angle_alpha   90.05093005
_cell_angle_beta   89.92383909
_cell_angle_gamma   119.99230687
_symmetry_Int_Tables_number   1
_chemical_formula_structural   H2O
_chemical_formula_sum   'H144 O72'
_cell_volume   2327.76232620
_cell_formula_units_Z   72
loop_
 _symmetry_equiv_pos_site_id
 _symmetry_equiv_pos_as_xyz
  1  'x, y, z'
loop_
 _atom_type_symbol
 _atom_type_oxidation_number
  H+  1.0
  O2-  -2.0
loop_
 _atom_site_type_symbol
 _atom_site_label
 _atom_site_symmetry_multiplicity
 _atom_site_fract_x
 _atom_site_fract_y
 _atom_site_fract_z
 _atom_site_occupancy
  H+  H0  1  0.19557618  0.03567415  0.99001655  1
  H+  H1  1  0.52085616  0.37244550  0.98631445  1
  H+  H2  1  0.48080345  0.64553887  0.74915124  1
  H+  H3  1  0.17023889  0.14726582  0.50013451  1
  H+  H4  1  0.47191638  0.51791172  0.99736675  1
  H+  H5  1  0.13511318  0.51170188  0.72707048  1
  H+  H6  1  0.81510306  0.51336005  1.02087151  1
  H+  H7  1  0.32354573  0.11094248  0.70177388  1
  H+  H8  1  0.64123739  0.82769176  0.48409553  1
  H+  H9  1  -0.02710399  0.15075643  0.49614863  1
  H+  H10  1  0.81756757  0.17697843  0.24511990  1
  H+  H11  1  0.17082280  0.01801639  0.75682678  1
  H+  H12  1  0.15180744  0.85166067  0.50172627  1
  H+  H13  1  1.03070585  0.84600724  0.25241437  1
  H+  H14  1  0.81647058  0.52600023  0.73774051  1
  H+  H15  1  0.28684943  0.47751732  0.75027776  1
  H+  H16  1  1.03048347  0.16923488  0.75506098  1
  H+  H17  1  0.54906130  0.33057941  0.73171916  1
  H+  H18  1  0.64101933  0.14278748  0.49903574  1
  H+  H19  1  0.42936228  0.54623160  0.13399101  1
  H+  H20  1  0.68543681  0.55365662  0.76769822  1
  H+  H21  1  0.51289200  0.14332628  0.25160686  1
  H+  H22  1  0.50669630  0.48428972  0.24808677  1
  H+  H23  1  0.48657346  0.18002135  0.01637331  1
  H+  H24  1  0.69560480  0.17080357  0.24126602  1
  H+  H25  1  -0.03571914  0.49032736  -0.00073766  1
  H+  H26  1  0.36196282  0.18086054  0.24417748  1
  H+  H27  1  0.87550687  0.15417919  0.76709692  1
  H+  H28  1  0.47685537  0.95339884  0.73610115  1
  H+  H29  1  0.47971415  0.30019628  0.24264850  1
  H+  H30  1  0.96363106  0.81487050  0.48995371  1
  H+  H31  1  0.48977997  0.53559209  0.51325613  1
  H+  H32  1  0.17350887  1.02870578  0.49524005  1
  H+  H33  1  0.96451372  0.49326042  0.49094312  1
  H+  H34  1  0.30371518  0.48834399  0.50247997  1
  H+  H35  1  0.35127296  0.83574835  1.02225183  1
  H+  H36  1  0.22134185  0.77252888  0.84629164  1
  H+  H37  1  0.47256354  0.10647798  0.71951888  1
  H+  H38  1  0.69307988  0.52606994  0.23944660  1
  H+  H39  1  0.95494846  0.49412503  0.73421763  1
  H+  H40  1  0.63556869  0.81901044  0.77169653  1
  H+  H41  1  0.45804103  0.21407894  0.43647927  1
  H+  H42  1  0.18298169  0.03050546  0.26561501  1
  H+  H43  1  0.51506255  0.35260016  0.70744608  1
  H+  H44  1  0.95811769  0.76313950  0.96585367  1
  H+  H45  1  0.83851863  0.15154871  -0.01009303  1
  H+  H46  1  0.45172185  0.57094654  0.65780481  1
  H+  H47  1  0.82710622  0.36154338  0.26763291  1
  H+  H48  1  0.16608943  0.19539797  1.00349219  1
  H+  H49  1  0.46979520  0.83786104  0.03510276  1
  H+  H50  1  0.50182486  0.00805124  1.02290400  1
  H+  H51  1  0.22895959  0.44427651  0.41328880  1
  H+  H52  1  0.84280129  0.02076927  0.26447861  1
  H+  H53  1  0.84503546  0.82620646  0.27461211  1
  H+  H54  1  0.17070307  0.35691165  0.75086317  1
  H+  H55  1  0.02778022  0.17413522  0.22883491  1
  H+  H56  1  0.30001509  0.80768188  0.75734270  1
  H+  H57  1  0.43954883  0.86976238  0.65040443  1
  H+  H58  1  0.26515871  0.80508584  0.33754009  1
  H+  H59  1  0.48607765  0.63169022  0.21884621  1
  H+  H60  1  0.80596706  0.51672500  0.24621178  1
  H+  H61  1  0.14975877  0.51519482  -0.00379435  1
  H+  H62  1  0.63632095  0.49979450  0.49475527  1
  H+  H63  1  0.84758454  0.37257897  0.00928858  1
  H+  H64  1  0.52693805  0.14528037  0.51778514  1
  H+  H65  1  0.48101946  0.84365987  0.50693076  1
  H+  H66  1  0.76748685  0.88506317  0.34046324  1
  H+  H67  1  0.78106679  0.20247166  0.74312789  1
  H+  H68  1  0.04327055  0.88024112  0.04076653  1
  H+  H69  1  0.31185748  0.15303798  0.98433026  1
  H+  H70  1  0.81582735  0.64215001  0.51554039  1
  H+  H71  1  0.31614325  0.50809640  0.25974951  1
  H+  H72  1  0.81715262  0.85329282  0.74843049  1
  H+  H73  1  0.54628562  0.54652657  0.77507839  1
  H+  H74  1  0.48714825  0.65171748  0.51010172  1
  H+  H75  1  0.85020634  0.70742515  0.26327346  1
  H+  H76  1  0.15106010  0.51862658  0.23457018  1
  H+  H77  1  0.51446420  0.38552710  0.48937043  1
  H+  H78  1  0.20672459  0.43731787  0.89152763  1
  H+  H79  1  0.82872745  0.18627983  0.50097899  1
  H+  H80  1  0.44383720  0.22199260  0.10077645  1
  H+  H81  1  0.50582972  0.70051727  0.99575004  1
  H+  H82  1  0.51645193  0.81795752  0.76701948  1
  H+  H83  1  0.14183911  0.63281290  0.73277777  1
  H+  H84  1  0.34504826  0.18493531  0.48762226  1
  H+  H85  1  0.88256933  0.77643884  0.40259105  1
  H+  H86  1  0.84901606  0.37171244  0.49469159  1
  H+  H87  1  0.82951157  0.38208048  0.73199504  1
  H+  H88  1  0.18166848  0.69099388  -0.01303006  1
  H+  H89  1  0.85261085  0.71141754  0.76155896  1
  H+  H90  1  0.15062320  0.52130950  0.50268935  1
  H+  H91  1  0.66415340  0.18976873  0.71856425  1
  H+  H92  1  0.30688220  0.82268794  0.48507574  1
  H+  H93  1  0.18157916  0.36302965  -0.01524612  1
  H+  H94  1  0.83375403  0.67689867  -0.00176535  1
  H+  H95  1  0.03028334  0.84550356  0.74131131  1
  H+  H96  1  0.48213915  0.96095788  0.52159556  1
  H+  H97  1  0.81578075  0.85523319  0.00611821  1
  H+  H98  1  0.81442479  -0.03114012  0.75081243  1
  H+  H99  1  0.49721114  0.02036974  0.26452606  1
  H+  H100  1  0.15480631  0.85177856  0.25139240  1
  H+  H101  1  0.18793971  0.70797899  0.47210882  1
  H+  H102  1  0.69954577  0.18438750  0.03151104  1
  H+  H103  1  0.15123882  0.17504644  0.74580699  1
  H+  H104  1  0.81664370  0.84903151  0.51686213  1
  H+  H105  1  0.14656364  0.17826171  0.23318628  1
  H+  H106  1  0.15073258  0.30005785  0.52308979  1
  H+  H107  1  0.08170611  0.58385427  0.23522506  1
  H+  H108  1  0.52319519  0.11975446  0.82037937  1
  H+  H109  1  0.40147141  0.15256164  0.61135723  1
  H+  H110  1  0.12740798  0.89500812  0.11765473  1
  H+  H111  1  0.56469644  0.78550476  0.39222795  1
  H+  H112  1  0.18352523  0.81096982  0.99312725  1
  H+  H113  1  0.35042940  0.51444935  0.99114244  1
  H+  H114  1  0.83520194  0.02845297  0.98944064  1
  H+  H115  1  0.77578318  0.89024827  0.60481418  1
  H+  H116  1  0.52905027  0.81083592  0.23723480  1
  H+  H117  1  0.76834198  0.57099359  0.65307784  1
  H+  H118  1  0.10697670  0.21719726  0.61120644  1
  H+  H119  1  0.22901459  0.10385730  0.84101246  1
  H+  H120  1  0.57613427  0.06729512  0.93700516  1
  H+  H121  1  0.69741486  0.85226746  0.01255120  1
  H+  H122  1  0.54960412  0.45774188  0.34184044  1
  H+  H123  1  0.10902449  0.88105277  0.59474745  1
  H+  H124  1  0.77382997  0.55792397  0.10875601  1
  H+  H125  1  0.55013914  0.78803494  0.91410016  1
  H+  H126  1  0.59005780  0.50542592  0.86900384  1
  H+  H127  1  0.11509056  0.55556939  0.08746512  1
  H+  H128  1  0.78696757  0.22560697  0.11284901  1
  H+  H129  1  0.81319299  0.52193658  0.52155452  1
  H+  H130  1  0.63847019  0.48968172  1.00213084  1
  H+  H131  1  0.21636217  0.11103786  0.35251125  1
  H+  H132  1  0.65175952  0.81469968  0.25951607  1
  H+  H133  1  0.85362448  0.03350045  0.49514946  1
  H+  H134  1  0.12418650  0.23161608  0.09306817  1
  H+  H135  1  0.86005761  0.44170550  0.35531334  1
  H+  H136  1  0.89456375  0.11289753  0.34294262  1
  H+  H137  1  0.78016944  0.22492442  0.58569604  1
  H+  H138  1  0.38369720  0.85894682  0.17447817  1
  H+  H139  1  0.11129837  0.56791280  0.58586690  1
  H+  H140  1  0.29514524  0.58701474  0.32290078  1
  H+  H141  1  0.88433552  0.78223614  0.85325125  1
  H+  H142  1  0.14792486  0.84192946  0.74065998  1
  H+  H143  1  0.88183954  0.10608096  0.87046377  1
  O2-  O144  1  0.10773613  0.21651477  0.20617694  1
  O2-  O145  1  0.10781433  0.21350421  0.72599817  1
  O2-  O146  1  0.10133994  0.53712843  0.19750329  1
  O2-  O147  1  0.09893759  0.55566519  0.70391463  1
  O2-  O148  1  0.11231894  0.88880314  0.22933868  1
  O2-  O149  1  0.10885664  0.88212415  0.71500354  1
  O2-  O150  1  0.44156362  0.22043320  0.21891724  1
  O2-  O151  1  0.37828523  0.09975354  0.66311663  1
  O2-  O152  1  0.43760313  0.54872705  0.20186308  1
  O2-  O153  1  0.44850339  0.56520950  0.72580578  1
  O2-  O154  1  0.38526991  0.86429766  0.24271087  1
  O2-  O155  1  0.43981466  0.87148565  0.71911830  1
  O2-  O156  1  0.77777265  0.21870462  0.22373589  1
  O2-  O157  1  0.74774924  0.23406985  0.70200305  1
  O2-  O158  1  0.77458070  0.56532666  0.22017279  1
  O2-  O159  1  0.77526921  0.57342299  0.72203487  1
  O2-  O160  1  0.77201877  0.88023374  0.27453519  1
  O2-  O161  1  0.77243478  0.88912843  0.72587921  1
  O2-  O162  1  0.22505925  0.11196379  0.28526434  1
  O2-  O163  1  0.21920930  0.10077073  0.77324203  1
  O2-  O164  1  0.25682503  0.50809129  0.30174742  1
  O2-  O165  1  0.20526887  0.43947855  0.76785063  1
  O2-  O166  1  0.26345218  0.80639465  0.26886880  1
  O2-  O167  1  0.21876805  0.77175805  0.77829746  1
  O2-  O168  1  0.55303950  0.10210408  0.26997422  1
  O2-  O169  1  0.53481406  0.10205626  0.75836647  1
  O2-  O170  1  0.54820124  0.44705241  0.27508746  1
  O2-  O171  1  0.61351558  0.55072685  0.80978644  1
  O2-  O172  1  0.55898591  0.76522756  0.26419873  1
  O2-  O173  1  0.55520180  0.77876392  0.79524900  1
  O2-  O174  1  0.88696211  0.10681871  0.27589944  1
  O2-  O175  1  0.89530096  0.10189322  0.79595727  1
  O2-  O176  1  0.85629882  0.44139837  0.28813640  1
  O2-  O177  1  0.87357797  0.46202320  0.75311234  1
  O2-  O178  1  0.89412151  0.78642372  0.28824207  1
  O2-  O179  1  0.89325605  0.79099352  0.78576841  1
  O2-  O180  1  0.21167868  0.10966203  0.47313155  1
  O2-  O181  1  0.23314900  0.11026767  0.95835135  1
  O2-  O182  1  0.22319954  0.44045148  0.48082399  1
  O2-  O183  1  0.21587751  0.44451394  0.95860789  1
  O2-  O184  1  0.23142499  0.78973501  0.45274593  1
  O2-  O185  1  0.22435459  0.77448238  0.96622697  1
  O2-  O186  1  0.55605913  0.09585160  0.49782118  1
  O2-  O187  1  0.54880196  0.08517761  0.99248577  1
  O2-  O188  1  0.55702870  0.46643797  0.46984201  1
  O2-  O189  1  0.56154915  0.45506966  0.97070759  1
  O2-  O190  1  0.56145969  0.78761605  0.45990636  1
  O2-  O191  1  0.54729644  0.78435603  0.98199919  1
  O2-  O192  1  0.89379443  0.11293980  0.47072303  1
  O2-  O193  1  0.86979235  0.10642329  0.96060690  1
  O2-  O194  1  0.88072006  0.45404335  0.47893849  1
  O2-  O195  1  0.88074676  0.45268374  0.98799474  1
  O2-  O196  1  0.88163493  0.77532501  0.47159083  1
  O2-  O197  1  0.88303242  0.75656200  0.96917211  1
  O2-  O198  1  0.13438424  0.24256004  0.02537900  1
  O2-  O199  1  0.10860378  0.21844670  0.54274965  1
  O2-  O200  1  0.11512418  0.56120571  0.01913786  1
  O2-  O201  1  0.11304166  0.56664036  0.51774269  1
  O2-  O202  1  0.12141364  0.89575170  0.04896529  1
  O2-  O203  1  0.10766509  0.88654232  0.52697984  1
  O2-  O204  1  0.44839623  0.22370025  0.03241163  1
  O2-  O205  1  0.43221703  0.22793455  0.49475412  1
  O2-  O206  1  0.43044500  0.55723183  0.01742222  1
  O2-  O207  1  0.44794816  0.57366860  0.53778072  1
  O2-  O208  1  0.42426889  0.87299678  0.05835838  1
  O2-  O209  1  0.43726537  0.87661352  0.53629446  1
  O2-  O210  1  0.78216243  0.22658909  0.04391658  1
  O2-  O211  1  0.78637303  0.22718575  0.51855079  1
  O2-  O212  1  0.77112039  0.55426680  0.03982909  1
  O2-  O213  1  0.77256549  0.56317735  0.54256586  1
  O2-  O214  1  0.77979726  0.89828663  0.02732169  1
  O2-  O215  1  0.77731708  0.89147832  0.53676918  1
