# generated using pymatgen
data_H2O
_symmetry_space_group_name_H-M   'P 1'
_cell_length_a   13.51479989
_cell_length_b   13.51851358
_cell_length_c   14.69428416
_cell_angle_alpha   90.02613592
_cell_angle_beta   90.00990419
_cell_angle_gamma   119.98108527
_symmetry_Int_Tables_number   1
_chemical_formula_structural   H2O
_chemical_formula_sum   'H144 O72'
_cell_volume   2325.41398093
_cell_formula_units_Z   72
loop_
 _symmetry_equiv_pos_site_id
 _symmetry_equiv_pos_as_xyz
  1  'x, y, z'
loop_
 _atom_type_symbol
 _atom_type_oxidation_number
  H+  1.0
  O2-  -2.0
loop_
 _atom_site_type_symbol
 _atom_site_label
 _atom_site_symmetry_multiplicity
 _atom_site_fract_x
 _atom_site_fract_y
 _atom_site_fract_z
 _atom_site_occupancy
  H+  H0  1  0.51792764  0.82211879  0.26701082  1
  H+  H1  1  1.03027501  0.18324643  0.51922660  1
  H+  H2  1  0.54055700  0.49472353  0.25549987  1
  H+  H3  1  0.12730613  0.55811479  0.60843911  1
  H+  H4  1  0.21087946  0.71262476  1.00540967  1
  H+  H5  1  0.47481140  0.61798998  0.51974121  1
  H+  H6  1  0.93298641  0.46609482  0.97289593  1
  H+  H7  1  0.43548047  0.87887678  0.67014662  1
  H+  H8  1  0.47777412  0.94340061  0.52480190  1
  H+  H9  1  0.24979263  0.10581942  0.25483299  1
  H+  H10  1  0.37026629  0.51841929  0.24375301  1
  H+  H11  1  0.14527402  0.18157675  0.52982411  1
  H+  H12  1  0.19369241  0.51456746  0.50390979  1
  H+  H13  1  0.65024249  0.81955647  -0.02000265  1
  H+  H14  1  0.85046127  1.02785869  0.24494216  1
  H+  H15  1  0.18622917  0.38105191  0.26864603  1
  H+  H16  1  0.82715005  0.83156744  0.22712385  1
  H+  H17  1  1.02331054  0.83382488  0.73258751  1
  H+  H18  1  0.31966242  0.83622510  -0.01619082  1
  H+  H19  1  0.48976991  0.63248179  0.24223168  1
  H+  H20  1  0.16947747  0.81074594  0.75932271  1
  H+  H21  1  0.83906027  -0.02646784  0.49945196  1
  H+  H22  1  0.21431171  0.77854229  0.85194551  1
  H+  H23  1  0.36835672  0.52876813  1.00753941  1
  H+  H24  1  0.83413548  0.35442146  0.47796299  1
  H+  H25  1  0.51594298  0.48253996  0.48949298  1
  H+  H26  1  0.85619754  0.82157540  0.47977446  1
  H+  H27  1  0.49807173  0.31917976  0.98824247  1
  H+  H28  1  0.47970842  0.62957745  0.73526917  1
  H+  H29  1  0.96644006  0.48781728  0.75269646  1
  H+  H30  1  0.96440104  0.15226033  0.75605667  1
  H+  H31  1  0.84275242  0.69292773  0.74861859  1
  H+  H32  1  0.66849005  0.49971505  0.25690532  1
  H+  H33  1  0.63753473  0.50094181  -0.01258993  1
  H+  H34  1  1.00409371  0.81561400  0.24479387  1
  H+  H35  1  0.51056710  0.85577845  0.98539536  1
  H+  H36  1  0.85408598  0.15515028  -0.01658034  1
  H+  H37  1  0.08604172  0.56213693  0.01712080  1
  H+  H38  1  0.48466700  0.30189941  0.49649635  1
  H+  H39  1  0.46490455  -0.04074662  0.23296628  1
  H+  H40  1  0.14680817  -0.03316498  0.50827447  1
  H+  H41  1  0.53388487  0.16824475  0.96173477  1
  H+  H42  1  0.40054150  0.24768686  0.20007319  1
  H+  H43  1  0.12839042  0.90837121  0.28216679  1
  H+  H44  1  0.55810997  0.10440966  0.58762319  1
  H+  H45  1  0.83825456  0.48619558  0.25331430  1
  H+  H46  1  0.69682441  0.51320243  0.49960775  1
  H+  H47  1  0.15792809  0.19534038  0.01054036  1
  H+  H48  1  0.82058228  0.34830794  0.97808616  1
  H+  H49  1  0.16489935  0.85435942  1.01132386  1
  H+  H50  1  0.85639915  0.15699424  0.48039208  1
  H+  H51  1  0.88010132  0.76305204  0.33935623  1
  H+  H52  1  0.16290254  0.64005466  0.51966928  1
  H+  H53  1  0.13934733  0.31066830  0.75069121  1
  H+  H54  1  0.79952653  0.89385760  0.08220246  1
  H+  H55  1  0.11826525  0.03568452  0.24566292  1
  H+  H56  1  0.14745936  0.52079270  0.74910203  1
  H+  H57  1  0.82005117  0.64086118  0.00640768  1
  H+  H58  1  0.82791357  0.47938720  0.47782436  1
  H+  H59  1  0.83231055  -0.02352519  0.99537057  1
  H+  H60  1  0.82293801  0.18306280  0.73111210  1
  H+  H61  1  0.71086737  0.83066799  0.20908365  1
  H+  H62  1  0.49215304  0.78626862  0.50447778  1
  H+  H63  1  0.97903621  0.81839786  0.98129367  1
  H+  H64  1  0.80244044  0.51515515  1.00358922  1
  H+  H65  1  1.02398101  0.19916813  0.23487054  1
  H+  H66  1  0.52753576  0.70349586  0.98695261  1
  H+  H67  1  0.36716417  0.20730648  0.73917587  1
  H+  H68  1  0.88645352  0.77062345  0.83916988  1
  H+  H69  1  0.81406033  0.51419451  0.72580149  1
  H+  H70  1  0.83840080  0.66830852  0.25341405  1
  H+  H71  1  0.47546108  0.51021801  0.74017838  1
  H+  H72  1  0.19406784  0.04100462  0.99754213  1
  H+  H73  1  0.69711154  0.51849577  0.72711931  1
  H+  H74  1  0.81925813  0.84836689  0.73052190  1
  H+  H75  1  0.17663200  0.81546828  0.49622467  1
  H+  H76  1  0.02845539  0.84729095  0.49784481  1
  H+  H77  1  0.70606464  0.18336713  0.51205056  1
  H+  H78  1  0.69747230  0.18194082  -0.00866798  1
  H+  H79  1  0.30071507  0.15361928  0.48833209  1
  H+  H80  1  0.95646705  0.47495828  0.25452631  1
  H+  H81  1  0.62682028  0.83949808  0.32210606  1
  H+  H82  1  0.52410448  0.33936739  0.23344832  1
  H+  H83  1  0.52023307  0.37768550  0.75363758  1
  H+  H84  1  0.14317459  0.20533416  0.24027106  1
  H+  H85  1  0.31780510  0.49557139  0.49876841  1
  H+  H86  1  0.28533781  0.79852826  0.26906757  1
  H+  H87  1  0.18640444  0.49669553  0.26248538  1
  H+  H88  1  0.63578493  0.15810501  0.71188564  1
  H+  H89  1  0.35510132  0.86472739  0.75208090  1
  H+  H90  1  0.35459027  0.83149312  0.51850359  1
  H+  H91  1  0.50820739  0.15801602  0.23855041  1
  H+  H92  1  0.19007819  0.17675710  0.76691641  1
  H+  H93  1  0.51645960  0.49611766  0.98477874  1
  H+  H94  1  0.43786553  0.23400264  0.58909283  1
  H+  H95  1  0.81582485  0.96507485  0.73043338  1
  H+  H96  1  0.13724715  0.61674841  0.24458626  1
  H+  H97  1  0.53227190  0.05135302  0.94400008  1
  H+  H98  1  0.20215539  0.51622353  0.00370368  1
  H+  H99  1  0.86357638  0.82363853  0.97824600  1
  H+  H100  1  0.69331229  0.18190166  0.22551647  1
  H+  H101  1  0.83876153  0.14110870  0.24509107  1
  H+  H102  1  0.14610534  0.63907885  0.74612116  1
  H+  H103  1  0.23356654  0.13658966  0.85188792  1
  H+  H104  1  0.16246108  0.78780386  0.26158180  1
  H+  H105  1  0.19118277  0.38900893  0.99386150  1
  H+  H106  1  0.97547791  0.16019980  0.98334582  1
  H+  H107  1  0.63707301  0.80248255  0.74345650  1
  H+  H108  1  0.51681926  0.73617807  0.41499720  1
  H+  H109  1  0.29616790  0.48863569  0.76407448  1
  H+  H110  1  0.78046095  0.55202497  0.16066513  1
  H+  H111  1  0.81132406  0.29998352  0.23209459  1
  H+  H112  1  0.56403638  0.45512680  0.39669265  1
  H+  H113  1  0.21161749  0.76694599  0.40998113  1
  H+  H114  1  0.82545220  0.30448937  0.72865565  1
  H+  H115  1  0.12333814  0.55709942  0.14758908  1
  H+  H116  1  0.77331030  0.22130599  0.08533671  1
  H+  H117  1  0.78029607  0.55011159  0.58679163  1
  H+  H118  1  0.86888809  0.43503615  0.37790099  1
  H+  H119  1  0.54067440  0.11140628  0.32561568  1
  H+  H120  1  0.10374438  0.22970705  0.66136901  1
  H+  H121  1  0.10428584  0.87080390  0.64592751  1
  H+  H122  1  0.87279876  0.43923096  0.83347579  1
  H+  H123  1  0.22385031  0.46095129  0.85650009  1
  H+  H124  1  0.85216756  0.69912793  0.47947487  1
  H+  H125  1  0.89441622  0.11573515  0.39217669  1
  H+  H126  1  0.20509364  0.11365058  0.41023467  1
  H+  H127  1  0.51552570  0.13897598  0.50326833  1
  H+  H128  1  0.23670886  0.47190036  0.40280416  1
  H+  H129  1  0.50873682  0.04371693  0.71883240  1
  H+  H130  1  0.48266842  0.20200545  0.71556631  1
  H+  H131  1  0.41533002  0.85761778  0.16046516  1
  H+  H132  1  0.56374576  0.76614001  0.83440651  1
  H+  H133  1  0.56462627  0.45982745  0.84226187  1
  H+  H134  1  0.11384307  0.88462729  0.09773758  1
  H+  H135  1  0.47979937  0.24537197  0.07625878  1
  H+  H136  1  0.52657423  0.95277256  0.05429877  1
  H+  H137  1  0.79498536  0.89102479  0.58570715  1
  H+  H138  1  0.31258047  0.16041440  -0.00716672  1
  H+  H139  1  0.43158505  0.53383729  0.60726449  1
  H+  H140  1  0.79832417  0.23543640  0.59062636  1
  H+  H141  1  0.88194406  0.10761173  0.84138219  1
  H+  H142  1  0.11192845  0.23733108  0.09390931  1
  H+  H143  1  0.44869809  0.56231309  0.09606160  1
  O2-  O144  1  0.10598950  0.24660593  0.21606416  1
  O2-  O145  1  0.10069599  0.22945089  0.73031327  1
  O2-  O146  1  0.10254395  0.53965028  0.21661205  1
  O2-  O147  1  0.10597668  0.55815998  0.72187396  1
  O2-  O148  1  0.09139045  0.86199016  0.22846065  1
  O2-  O149  1  0.10395935  0.86612313  0.71307665  1
  O2-  O150  1  0.47756859  0.25923180  0.20206175  1
  O2-  O151  1  0.44472837  0.24850225  0.70766710  1
  O2-  O152  1  0.44967579  0.55396455  0.21851493  1
  O2-  O153  1  0.43063085  0.54547203  0.71691075  1
  O2-  O154  1  0.42961525  0.87458381  0.22553963  1
  O2-  O155  1  0.43598713  0.90942375  0.73123703  1
  O2-  O156  1  0.77426801  0.22012699  0.20665289  1
  O2-  O157  1  0.78802475  0.22596964  0.70200066  1
  O2-  O158  1  0.78323724  0.55063082  0.22779065  1
  O2-  O159  1  0.77649843  0.55615118  0.70077744  1
  O2-  O160  1  0.79368793  0.87859556  0.20131901  1
  O2-  O161  1  0.77839568  0.88638202  0.70456940  1
  O2-  O162  1  0.17976750  0.09949878  0.27929803  1
  O2-  O163  1  0.24259951  0.14883665  0.78566126  1
  O2-  O164  1  0.23120063  0.46183989  0.28987575  1
  O2-  O165  1  0.21641459  0.45421837  0.78851798  1
  O2-  O166  1  0.20558198  0.75471915  0.29132187  1
  O2-  O167  1  0.21335048  0.77323962  0.78453730  1
  O2-  O168  1  0.53687673  0.10580641  0.25929031  1
  O2-  O169  1  0.55397119  0.12572064  0.69561399  1
  O2-  O170  1  0.57985314  0.45485593  0.27955751  1
  O2-  O171  1  0.56504684  0.45977322  0.77426803  1
  O2-  O172  1  0.56290651  0.78488391  0.28481013  1
  O2-  O173  1  0.55825051  0.75554854  0.76783233  1
  O2-  O174  1  0.88485079  0.10723806  0.26820931  1
  O2-  O175  1  0.88083726  0.10765140  0.77363320  1
  O2-  O176  1  0.87572346  0.43682000  0.27701003  1
  O2-  O177  1  0.88199710  0.44346084  0.76623539  1
  O2-  O178  1  0.88066697  0.75785828  0.27097387  1
  O2-  O179  1  0.88234317  0.77318795  0.77158378  1
  O2-  O180  1  0.21609078  0.10986445  0.47576839  1
  O2-  O181  1  0.22921462  0.12281798  0.97991996  1
  O2-  O182  1  0.23792925  0.47291154  0.47161968  1
  O2-  O183  1  0.23575012  0.46921014  0.97283635  1
  O2-  O184  1  0.21723335  0.77312431  0.47745791  1
  O2-  O185  1  0.23639041  0.79077629  0.97486087  1
  O2-  O186  1  0.55840305  0.09907390  0.51811013  1
  O2-  O187  1  0.58012785  0.13471720  0.93890019  1
  O2-  O188  1  0.56138403  0.44830780  0.46463778  1
  O2-  O189  1  0.55858424  0.45810748  0.96072394  1
  O2-  O190  1  0.52714924  0.74084463  0.48092146  1
  O2-  O191  1  0.56878354  0.78217181  0.96000127  1
  O2-  O192  1  0.89726901  0.11696729  0.45953551  1
  O2-  O193  1  0.89446331  0.11465845  0.96184002  1
  O2-  O194  1  0.86532951  0.43435830  0.44981376  1
  O2-  O195  1  0.85376297  0.42906855  0.95310055  1
  O2-  O196  1  0.89324518  0.77705659  0.45331446  1
  O2-  O197  1  0.89867708  0.77696079  0.95898602  1
  O2-  O198  1  0.11442235  0.23498933  0.02638819  1
  O2-  O199  1  0.10478356  0.22100977  0.55120099  1
  O2-  O200  1  0.15899989  0.58915585  0.04715301  1
  O2-  O201  1  0.13408958  0.55946698  0.54012344  1
  O2-  O202  1  0.12082217  0.89304748  0.03119089  1
  O2-  O203  1  0.10780242  0.88387809  0.52353355  1
  O2-  O204  1  0.46452404  0.23784062  0.01015062  1
  O2-  O205  1  0.43903864  0.22296305  0.52144622  1
  O2-  O206  1  0.45098978  0.56694658  0.02853077  1
  O2-  O207  1  0.43390568  0.53362447  0.53792132  1
  O2-  O208  1  0.47527262  0.90339392  0.00705179  1
  O2-  O209  1  0.43420848  0.86132697  0.54130221  1
  O2-  O210  1  0.77828035  0.22261943  0.01770776  1
  O2-  O211  1  0.79047455  0.23348753  0.52164285  1
  O2-  O212  1  0.77186339  0.56166210  0.03078456  1
  O2-  O213  1  0.77959386  0.54780669  0.51802707  1
  O2-  O214  1  0.79411253  0.89412498  0.01465132  1
  O2-  O215  1  0.80458389  0.89266718  0.51836356  1
