# generated using pymatgen
data_H2O
_symmetry_space_group_name_H-M   'P 1'
_cell_length_a   13.51092205
_cell_length_b   13.51335554
_cell_length_c   14.71000095
_cell_angle_alpha   90.00893496
_cell_angle_beta   90.01070526
_cell_angle_gamma   119.97322931
_symmetry_Int_Tables_number   1
_chemical_formula_structural   H2O
_chemical_formula_sum   'H144 O72'
_cell_volume   2326.52964294
_cell_formula_units_Z   72
loop_
 _symmetry_equiv_pos_site_id
 _symmetry_equiv_pos_as_xyz
  1  'x, y, z'
loop_
 _atom_type_symbol
 _atom_type_oxidation_number
  H+  1.0
  O2-  -2.0
loop_
 _atom_site_type_symbol
 _atom_site_label
 _atom_site_symmetry_multiplicity
 _atom_site_fract_x
 _atom_site_fract_y
 _atom_site_fract_z
 _atom_site_occupancy
  H+  H0  1  0.47449732  0.96654633  0.51484698  1
  H+  H1  1  0.84972031  0.18467751  0.78582182  1
  H+  H2  1  0.85365133  0.82812815  0.99339340  1
  H+  H3  1  0.17515314  0.70560977  0.75481373  1
  H+  H4  1  0.79995485  0.30633940  0.23407909  1
  H+  H5  1  0.03733588  0.18990866  0.75969102  1
  H+  H6  1  0.95914685  0.81254099  0.76204328  1
  H+  H7  1  0.29289081  0.47720298  0.99261663  1
  H+  H8  1  0.50745477  0.69931205  0.23952176  1
  H+  H9  1  0.43224951  0.23967338  -0.06491809  1
  H+  H10  1  0.84694192  0.80525635  0.48645477  1
  H+  H11  1  0.12608882  0.28313072  0.51726427  1
  H+  H12  1  0.17784154  0.36590378  0.76510036  1
  H+  H13  1  0.94704532  0.57082558  0.30834145  1
  H+  H14  1  0.22500209  0.78218226  0.84384920  1
  H+  H15  1  0.21622318  0.77259754  0.40047862  1
  H+  H16  1  0.81226365  0.17384315  0.52168828  1
  H+  H17  1  0.42950273  0.54839590  0.09758479  1
  H+  H18  1  0.63461993  0.80443798  0.46602259  1
  H+  H19  1  0.46507249  0.50693772  0.48357733  1
  H+  H20  1  0.34228366  0.17811634  0.00800442  1
  H+  H21  1  0.79708770  0.51333426  0.24319117  1
  H+  H22  1  0.49293871  0.13973672  0.98470057  1
  H+  H23  1  0.99887426  0.16572680  1.01400061  1
  H+  H24  1  0.47875775  0.29162140  0.25140343  1
  H+  H25  1  0.62469927  0.81453503  0.75902299  1
  H+  H26  1  0.01895557  0.51520000  0.51751696  1
  H+  H27  1  0.26709020  0.45875939  0.47879350  1
  H+  H28  1  0.95340240  0.13063579  0.50645671  1
  H+  H29  1  0.87950568  0.10189389  0.41647826  1
  H+  H30  1  0.34062599  0.84499619  0.73110971  1
  H+  H31  1  0.84349339  0.06748042  0.79986662  1
  H+  H32  1  0.29479582  0.48352772  0.77643423  1
  H+  H33  1  0.46985684  0.19998861  0.68835194  1
  H+  H34  1  0.16390497  0.51725833  0.24360808  1
  H+  H35  1  0.96560415  0.48511565  0.99560244  1
  H+  H36  1  0.83097514  0.47603544  0.50184204  1
  H+  H37  1  0.48374303  0.97072321  0.00500587  1
  H+  H38  1  0.48311392  0.85378329  0.23607016  1
  H+  H39  1  0.71360606  0.86597807  0.02277756  1
  H+  H40  1  0.48246572  0.63015800  0.77578183  1
  H+  H41  1  0.51472100  0.46099548  0.78902188  1
  H+  H42  1  0.16238720  1.02487400  0.00552318  1
  H+  H43  1  0.30063844  0.81845702  0.26159731  1
  H+  H44  1  0.34402404  0.84379380  0.50518002  1
  H+  H45  1  0.51549326  0.13552723  0.52874512  1
  H+  H46  1  0.14628999  0.17762626  0.01392757  1
  H+  H47  1  0.88213036  0.77438742  0.85338174  1
  H+  H48  1  0.14806382  -0.03253647  0.25175959  1
  H+  H49  1  0.14531108  0.84660623  0.51262623  1
  H+  H50  1  0.46444389  0.50429950  0.23078425  1
  H+  H51  1  0.17743451  0.02581212  0.76370888  1
  H+  H52  1  0.71187153  0.52987553  0.01774602  1
  H+  H53  1  0.80932937  0.93158212  0.71656241  1
  H+  H54  1  0.19089549  0.69203044  0.97966681  1
  H+  H55  1  0.45670647  0.20102139  0.44345334  1
  H+  H56  1  0.35763021  0.17053670  0.25925933  1
  H+  H57  1  0.83688004  0.35887089  0.50031452  1
  H+  H58  1  -0.01190647  0.19085650  0.27150829  1
  H+  H59  1  0.61772201  0.47729592  0.25032257  1
  H+  H60  1  0.15223857  0.18224474  0.75244699  1
  H+  H61  1  1.13971020  0.84941726  0.74447799  1
  H+  H62  1  0.81743698  0.31750687  0.74761625  1
  H+  H63  1  0.80858598  0.62935906  0.50707585  1
  H+  H64  1  0.51574685  0.69185409  0.00957662  1
  H+  H65  1  0.84294356  0.69602321  0.25637785  1
  H+  H66  1  0.79444300  0.30450377  1.00437765  1
  H+  H67  1  0.35038896  0.17949157  0.49983095  1
  H+  H68  1  0.69761663  0.84669422  0.23008511  1
  H+  H69  1  0.45686728  0.83902481  0.72221564  1
  H+  H70  1  0.17222182  0.02464369  0.49909103  1
  H+  H71  1  0.15053442  0.84992904  0.24799162  1
  H+  H72  1  0.85029480  0.48998026  0.75968886  1
  H+  H73  1  0.14750456  0.52154762  0.74545215  1
  H+  H74  1  0.85352768  0.70863019  -0.00545974  1
  H+  H75  1  0.03027185  0.85764878  0.01656298  1
  H+  H76  1  0.80149597  0.81498103  0.74323320  1
  H+  H77  1  0.13174697  0.50661260  0.51157610  1
  H+  H78  1  0.62501600  0.15066171  0.25311348  1
  H+  H79  1  0.81103766  0.63045526  0.74351978  1
  H+  H80  1  0.04368665  0.51741216  0.24064375  1
  H+  H81  1  0.20868376  0.43654742  0.90642006  1
  H+  H82  1  0.14831536  0.30155432  1.01171472  1
  H+  H83  1  0.18535352  0.69713330  0.25892609  1
  H+  H84  1  0.81511197  0.19916951  0.24272682  1
  H+  H85  1  0.31052000  0.80924247  0.98096425  1
  H+  H86  1  0.81585291  0.84715185  0.24055786  1
  H+  H87  1  0.18606124  0.15652233  0.26822089  1
  H+  H88  1  0.34596474  0.50674926  0.22894522  1
  H+  H89  1  0.51131765  0.69621293  0.45334011  1
  H+  H90  1  0.85997026  0.03544618  1.01186975  1
  H+  H91  1  0.17548009  0.69462017  0.49144150  1
  H+  H92  1  0.49458672  0.85821723  0.01505525  1
  H+  H93  1  0.80653233  0.94780661  0.51148394  1
  H+  H94  1  0.50416816  0.36779981  0.48374095  1
  H+  H95  1  0.52889365  0.34930512  0.78577714  1
  H+  H96  1  0.16826973  0.31945896  0.24992982  1
  H+  H97  1  0.61686016  0.15224074  0.98040910  1
  H+  H98  1  0.49362851  0.15521848  0.25597413  1
  H+  H99  1  0.88855073  0.46150252  0.36825599  1
  H+  H100  1  0.16744298  0.14130251  0.50249085  1
  H+  H101  1  0.52421182  0.37901106  1.01415035  1
  H+  H102  1  0.12290767  0.23645448  0.16322270  1
  H+  H103  1  0.09818006  0.21192202  0.61050732  1
  H+  H104  1  0.30265857  0.13399939  0.77552131  1
  H+  H105  1  0.14140267  0.50853840  0.01289129  1
  H+  H106  1  0.48052898  0.51772579  1.01127591  1
  H+  H107  1  1.02522529  0.84211345  0.50966981  1
  H+  H108  1  0.77834923  0.22236707  0.60881948  1
  H+  H109  1  0.74977394  0.21926574  0.08745013  1
  H+  H110  1  0.96922971  0.48971240  0.76191583  1
  H+  H111  1  0.96614127  0.81263283  0.26021595  1
  H+  H112  1  0.20179269  0.10160535  0.91228633  1
  H+  H113  1  0.88867149  0.45213915  0.90546700  1
  H+  H114  1  0.77340038  0.55839335  0.14951117  1
  H+  H115  1  0.88896554  0.76760122  0.39826493  1
  H+  H116  1  0.89537898  0.13455446  0.92970245  1
  H+  H117  1  0.27689037  0.51814839  0.32735272  1
  H+  H118  1  0.42573364  0.57015115  0.55412367  1
  H+  H119  1  0.75651013  0.85129261  0.58917258  1
  H+  H120  1  0.50465412  0.02481471  0.25116281  1
  H+  H121  1  0.54203682  0.82633530  0.83108870  1
  H+  H122  1  0.62298915  0.48710096  0.48801724  1
  H+  H123  1  0.95247363  0.25649484  0.33723438  1
  H+  H124  1  0.69795408  0.50780581  0.74618276  1
  H+  H125  1  0.69542746  0.20330137  0.74675376  1
  H+  H126  1  0.58533689  0.75961759  0.92527883  1
  H+  H127  1  0.09879093  0.88728331  0.65574838  1
  H+  H128  1  0.52997664  0.13308370  0.84383481  1
  H+  H129  1  0.54278635  0.44242485  0.34096379  1
  H+  H130  1  0.79348690  0.90131816  0.11125570  1
  H+  H131  1  0.56968097  0.44782400  0.92308597  1
  H+  H132  1  0.83028196  0.52923015  0.01330146  1
  H+  H133  1  0.11112624  0.55716849  0.10027294  1
  H+  H134  1  0.63190137  0.13576748  0.51375953  1
  H+  H135  1  0.10708077  0.55754998  0.65476069  1
  H+  H136  1  0.76440798  0.55335668  0.59819757  1
  H+  H137  1  0.17729390  0.41366939  0.39986898  1
  H+  H138  1  0.21413367  0.10962233  0.35877586  1
  H+  H139  1  0.10593580  0.89713947  0.10756951  1
  H+  H140  1  0.55639172  0.77992690  0.32723466  1
  H+  H141  1  0.44126388  0.89556121  0.15036656  1
  H+  H142  1  0.45797604  0.54465709  0.69659435  1
  H+  H143  1  0.41724387  0.87967865  0.60802516  1
  O2-  O144  1  0.12417355  0.23717775  0.23065411  1
  O2-  O145  1  0.11316820  0.22403006  0.73019263  1
  O2-  O146  1  0.12227709  0.55994203  0.21737903  1
  O2-  O147  1  0.10684382  0.56106417  0.72258603  1
  O2-  O148  1  0.10703188  0.88781535  0.22777228  1
  O2-  O149  1  0.09723583  0.88911276  0.72368124  1
  O2-  O150  1  0.43953818  0.20729880  0.23798233  1
  O2-  O151  1  0.46803872  0.20166217  0.75520854  1
  O2-  O152  1  0.42791943  0.54682473  0.20586563  1
  O2-  O153  1  0.44753647  0.54701340  0.76194914  1
  O2-  O154  1  0.44191386  0.89631233  0.21870612  1
  O2-  O155  1  0.41933104  0.88119241  0.70135650  1
  O2-  O156  1  0.76313982  0.22537552  0.21796418  1
  O2-  O157  1  0.77629576  0.23377234  0.72923601  1
  O2-  O158  1  0.75899075  0.55317350  0.21726186  1
  O2-  O159  1  0.77424688  0.55172857  0.71695206  1
  O2-  O160  1  0.78014627  0.88909274  0.21335908  1
  O2-  O161  1  0.75567235  0.84977051  0.71517787  1
  O2-  O162  1  0.22147491  0.11159865  0.29102992  1
  O2-  O163  1  0.22124831  0.10573823  0.78901481  1
  O2-  O164  1  0.22337859  0.46034425  0.28523407  1
  O2-  O165  1  0.21187588  0.44533902  0.78970711  1
  O2-  O166  1  0.22070691  0.77621826  0.28551994  1
  O2-  O167  1  0.21595670  0.78697890  0.77501781  1
  O2-  O168  1  0.54313204  0.10809145  0.27365905  1
  O2-  O169  1  0.54011416  0.14967339  0.77598607  1
  O2-  O170  1  0.53735337  0.43280870  0.27360145  1
  O2-  O171  1  0.56512215  0.43037672  0.80611163  1
  O2-  O172  1  0.55076623  0.78075519  0.25825003  1
  O2-  O173  1  0.54361094  0.77946169  0.78118107  1
  O2-  O174  1  0.91965185  0.18387863  0.30483292  1
  O2-  O175  1  0.89249737  0.14809462  0.81400588  1
  O2-  O176  1  0.90296281  0.48770853  0.30251110  1
  O2-  O177  1  0.88839600  0.44856509  0.78480881  1
  O2-  O178  1  0.88577906  0.77367959  0.28392774  1
  O2-  O179  1  0.87798513  0.76896504  0.78471142  1
  O2-  O180  1  0.21111152  0.10586835  0.47691433  1
  O2-  O181  1  0.20199658  0.10818623  0.97961832  1
  O2-  O182  1  0.18279901  0.41600137  0.46804640  1
  O2-  O183  1  0.21043215  0.43248897  0.97433625  1
  O2-  O184  1  0.21623696  0.77533840  0.46900166  1
  O2-  O185  1  0.23839022  0.76474703  0.94687108  1
  O2-  O186  1  0.54872237  0.09445805  0.49793690  1
  O2-  O187  1  0.53546943  0.10497742  0.95669130  1
  O2-  O188  1  0.54367530  0.44871325  0.46193278  1
  O2-  O189  1  0.56794455  0.45819266  0.99022032  1
  O2-  O190  1  0.55951193  0.77665115  0.43591020  1
  O2-  O191  1  0.56688072  0.77291233  0.98656181  1
  O2-  O192  1  0.87253981  0.09091895  0.48319975  1
  O2-  O193  1  0.90601393  0.12144747  0.99522104  1
  O2-  O194  1  0.87609723  0.44017664  0.47929497  1
  O2-  O195  1  0.88462179  0.45004794  0.97316417  1
  O2-  O196  1  0.88922545  0.76555393  0.46674932  1
  O2-  O197  1  0.89042631  0.78660698  0.96642949  1
  O2-  O198  1  0.10713057  0.22117041  0.03808331  1
  O2-  O199  1  0.09114020  0.20402006  0.54304949  1
  O2-  O200  1  0.10365479  0.55207082  0.03243793  1
  O2-  O201  1  0.10122588  0.55509817  0.53570514  1
  O2-  O202  1  0.10891958  0.90555789  0.04036688  1
  O2-  O203  1  0.10447080  0.88584514  0.53581899  1
  O2-  O204  1  0.42785526  0.22404291  0.00007085  1
  O2-  O205  1  0.43679415  0.22100103  0.50186630  1
  O2-  O206  1  0.43425960  0.55381658  0.02848272  1
  O2-  O207  1  0.41549407  0.54326981  0.49170125  1
  O2-  O208  1  0.44931130  0.89355715  0.03433301  1
  O2-  O209  1  0.42332989  0.88223896  0.53432503  1
  O2-  O210  1  0.74542503  0.22257863  0.02085889  1
  O2-  O211  1  0.77461017  0.21795682  0.54102144  1
  O2-  O212  1  0.79314719  0.57252889  0.03811376  1
  O2-  O213  1  0.76119062  0.54884826  0.53029609  1
  O2-  O214  1  0.79549808  0.90829396  0.04042431  1
  O2-  O215  1  0.76781238  0.86348665  0.52287575  1
