# generated using pymatgen
data_H2O
_symmetry_space_group_name_H-M   'P 1'
_cell_length_a   13.52604343
_cell_length_b   13.53495907
_cell_length_c   14.72104760
_cell_angle_alpha   90.01705850
_cell_angle_beta   90.00376560
_cell_angle_gamma   120.03749815
_symmetry_Int_Tables_number   1
_chemical_formula_structural   H2O
_chemical_formula_sum   'H144 O72'
_cell_volume   2333.09710886
_cell_formula_units_Z   72
loop_
 _symmetry_equiv_pos_site_id
 _symmetry_equiv_pos_as_xyz
  1  'x, y, z'
loop_
 _atom_type_symbol
 _atom_type_oxidation_number
  H+  1.0
  O2-  -2.0
loop_
 _atom_site_type_symbol
 _atom_site_label
 _atom_site_symmetry_multiplicity
 _atom_site_fract_x
 _atom_site_fract_y
 _atom_site_fract_z
 _atom_site_occupancy
  H+  H0  1  0.81742593  0.81401151  0.51761799  1
  H+  H1  1  0.55129816  0.77550697  0.34128589  1
  H+  H2  1  0.84954972  0.83340629  -0.00439358  1
  H+  H3  1  0.52458962  0.70196807  0.99192573  1
  H+  H4  1  0.44842833  0.60754589  0.51723760  1
  H+  H5  1  0.84553779  1.02324711  0.24136290  1
  H+  H6  1  0.83320737  0.35779479  0.25276100  1
  H+  H7  1  0.29035399  0.47528024  0.25712812  1
  H+  H8  1  1.04066805  0.19137230  0.99225976  1
  H+  H9  1  0.18022314  0.80786217  0.99847283  1
  H+  H10  1  0.81540567  0.77826187  0.30622741  1
  H+  H11  1  0.61808610  0.91081701  0.43924117  1
  H+  H12  1  0.35039687  0.83230579  0.53549341  1
  H+  H13  1  0.16681786  0.98505591  -0.00207405  1
  H+  H14  1  0.20145043  0.05490664  0.76839269  1
  H+  H15  1  0.85867307  0.82974408  0.76038060  1
  H+  H16  1  1.02779627  0.17624879  0.21711356  1
  H+  H17  1  0.51249911  0.13556427  0.48801744  1
  H+  H18  1  0.16247186  0.62022065  0.73622815  1
  H+  H19  1  0.04239179  0.87783361  0.74697090  1
  H+  H20  1  0.86784500  0.42692958  -0.01106622  1
  H+  H21  1  0.19559186  0.36842559  0.98461029  1
  H+  H22  1  0.04197785  0.18950593  0.74752064  1
  H+  H23  1  0.50816603  0.48398460  0.49322483  1
  H+  H24  1  0.81824050  0.50620621  0.99754670  1
  H+  H25  1  0.82181128  0.29486937  0.75284409  1
  H+  H26  1  0.15286886  0.32594592  0.47939940  1
  H+  H27  1  0.50925335  1.02666080  0.76544688  1
  H+  H28  1  0.28386235  0.80068240  0.23585534  1
  H+  H29  1  0.82240166  0.93449298  0.51553104  1
  H+  H30  1  0.85645269  0.15750334  0.75592692  1
  H+  H31  1  0.67376545  0.82965992  0.22934466  1
  H+  H32  1  0.14094676  0.49591166  0.22585090  1
  H+  H33  1  0.46060613  0.16991498  1.01059336  1
  H+  H34  1  0.79409743  0.16348248  0.23061362  1
  H+  H35  1  0.13623286  0.85559423  0.22305115  1
  H+  H36  1  0.18641246  0.17466618  0.52041685  1
  H+  H37  1  0.24103392  0.45055167  0.89588933  1
  H+  H38  1  0.46346114  0.95063808  0.01083394  1
  H+  H39  1  0.51649990  0.81514243  0.76314117  1
  H+  H40  1  1.00016352  0.25447443  0.42592343  1
  H+  H41  1  0.15985222  0.62764712  1.00556030  1
  H+  H42  1  0.15357234  0.85408372  0.52740703  1
  H+  H43  1  0.80084592  0.50352115  0.21919533  1
  H+  H44  1  0.56105652  0.77831829  0.84941572  1
  H+  H45  1  0.83122233  0.64374045  0.74492957  1
  H+  H46  1  0.70243965  0.85095803  0.74371307  1
  H+  H47  1  0.04665466  0.87111803  -0.00817723  1
  H+  H48  1  0.37906776  0.52130290  0.00820120  1
  H+  H49  1  0.19960913  0.36722215  0.76546503  1
  H+  H50  1  0.29719017  0.80289172  0.99862933  1
  H+  H51  1  0.50561007  0.36215170  0.25778231  1
  H+  H52  1  0.73117899  0.61937174  0.97927362  1
  H+  H53  1  0.34807062  0.18764423  1.01323950  1
  H+  H54  1  0.50138352  1.01269809  0.50595967  1
  H+  H55  1  0.70059187  0.86219174  -0.00500042  1
  H+  H56  1  0.16102760  0.39008666  0.38487723  1
  H+  H57  1  0.82115297  0.21351732  0.46879638  1
  H+  H58  1  0.80192749  0.49603832  0.52739762  1
  H+  H59  1  0.19038148  0.16840741  -0.01043370  1
  H+  H60  1  0.13824345  0.61386566  0.21270168  1
  H+  H61  1  0.06309487  0.14253841  0.54738978  1
  H+  H62  1  0.68198679  0.49133928  0.53033835  1
  H+  H63  1  0.66069005  0.50366876  0.77611233  1
  H+  H64  1  0.15880967  0.87596419  0.74751778  1
  H+  H65  1  0.89011617  0.74499809  1.02654481  1
  H+  H66  1  0.19778883  0.03084601  0.48526473  1
  H+  H67  1  0.46421208  0.95191422  0.24486847  1
  H+  H68  1  0.02526567  0.52810561  0.50694601  1
  H+  H69  1  0.35157198  0.17440136  0.23806857  1
  H+  H70  1  -0.02985579  0.47079959  0.75414540  1
  H+  H71  1  0.70699025  0.17449908  0.76064241  1
  H+  H72  1  0.91649325  0.12927356  0.46807510  1
  H+  H73  1  0.50030292  0.68415677  0.25773430  1
  H+  H74  1  0.50378068  0.52342496  0.75174521  1
  H+  H75  1  0.46685166  0.83390833  0.24113659  1
  H+  H76  1  0.87950332  0.74383410  0.42795565  1
  H+  H77  1  0.16461705  0.68381949  0.51685214  1
  H+  H78  1  0.32082068  0.48605865  0.76224930  1
  H+  H79  1  0.31890769  0.14910386  0.46667993  1
  H+  H80  1  0.86159221  0.03964521  0.75165928  1
  H+  H81  1  0.47476378  0.51051923  0.24196145  1
  H+  H82  1  0.54223752  0.38475566  0.78058722  1
  H+  H83  1  0.38372796  0.02384281  0.93527985  1
  H+  H84  1  0.69721856  0.18886212  0.49448074  1
  H+  H85  1  0.61137405  1.12963457  0.26478317  1
  H+  H86  1  0.84699110  0.37948689  0.47854663  1
  H+  H87  1  0.64799644  0.82611478  0.48597889  1
  H+  H88  1  0.09551170  0.70732820  0.79311229  1
  H+  H89  1  0.52072733  0.15140311  0.76403014  1
  H+  H90  1  0.81607081  0.66690427  0.27323351  1
  H+  H91  1  0.49597378  0.63745149  0.74494202  1
  H+  H92  1  0.77479202  0.54427158  0.66729527  1
  H+  H93  1  0.17823635  0.50949878  -0.00196955  1
  H+  H94  1  0.47334885  0.83889365  0.52654901  1
  H+  H95  1  0.51700938  0.81584780  0.99025114  1
  H+  H96  1  0.38072103  0.20230381  0.75104031  1
  H+  H97  1  0.62439702  0.47818619  0.25192216  1
  H+  H98  1  0.19944245  0.17191896  0.77166108  1
  H+  H99  1  0.17446364  0.35603802  0.24335286  1
  H+  H100  1  0.16572962  0.50531075  0.73622397  1
  H+  H101  1  0.86176315  0.05200730  0.97504588  1
  H+  H102  1  0.85846128  0.47996767  0.76507651  1
  H+  H103  1  -0.02984651  0.81336478  0.50632550  1
  H+  H104  1  0.50222038  0.53052750  0.01637006  1
  H+  H105  1  0.83757729  0.20694063  -0.00462055  1
  H+  H106  1  0.47739402  0.22935051  0.39658526  1
  H+  H107  1  0.35681166  0.83916568  0.75356943  1
  H+  H108  1  0.43653500  0.87620940  0.10215029  1
  H+  H109  1  0.77235603  0.81169524  0.18645019  1
  H+  H110  1  0.24250552  0.13566057  0.90226073  1
  H+  H111  1  0.49718055  0.31705669  0.47301388  1
  H+  H112  1  0.90574251  0.12615858  0.88409453  1
  H+  H113  1  0.53384047  0.08486525  0.35455593  1
  H+  H114  1  0.17696253  1.03421181  0.24884763  1
  H+  H115  1  0.11981219  0.91306496  0.60511575  1
  H+  H116  1  0.43414493  0.21674961  0.10971592  1
  H+  H117  1  0.59055616  0.47136761  0.91480866  1
  H+  H118  1  0.43961020  0.55443249  0.15338294  1
  H+  H119  1  0.11633527  0.53519818  0.09404419  1
  H+  H120  1  0.22754440  0.78653665  0.43995467  1
  H+  H121  1  0.11148957  0.90837200  0.13814102  1
  H+  H122  1  0.17877130  0.74542734  0.30427173  1
  H+  H123  1  0.77434032  0.91078120  0.08405697  1
  H+  H124  1  0.77654493  0.87614600  0.65362837  1
  H+  H125  1  0.13547108  0.22716333  0.66734357  1
  H+  H126  1  0.74706007  0.54255913  0.13842160  1
  H+  H127  1  0.14836179  0.17996243  0.22700808  1
  H+  H128  1  0.11470348  0.22587373  0.08555093  1
  H+  H129  1  0.89477586  0.12281965  0.31753917  1
  H+  H130  1  0.74547663  0.20406552  0.15107490  1
  H+  H131  1  0.21754414  0.11167390  0.33987012  1
  H+  H132  1  0.55701650  0.46103200  0.39963901  1
  H+  H133  1  0.87973240  0.30312888  0.06654975  1
  H+  H134  1  0.10614885  0.55020611  0.59555953  1
  H+  H135  1  0.50702000  0.08837400  0.89388766  1
  H+  H136  1  0.95231933  0.47105396  0.23888969  1
  H+  H137  1  0.19617473  0.75985745  0.86305092  1
  H+  H138  1  0.46841868  0.16783505  0.24050427  1
  H+  H139  1  0.46732189  0.24924649  0.66765978  1
  H+  H140  1  0.88923025  0.46517798  0.39526057  1
  H+  H141  1  0.44500470  0.54552617  0.60902166  1
  H+  H142  1  0.43412097  0.87784079  0.66512398  1
  H+  H143  1  0.90005984  0.79126011  0.84800514  1
  O2-  O144  1  0.11024929  0.22019586  0.19938522  1
  O2-  O145  1  0.12703734  0.23030433  0.73446757  1
  O2-  O146  1  0.09977317  0.53174448  0.19427946  1
  O2-  O147  1  0.12301941  0.54230649  0.71167601  1
  O2-  O148  1  0.10946114  0.90827365  0.20527001  1
  O2-  O149  1  0.12451230  0.92112723  0.72571454  1
  O2-  O150  1  0.43411100  0.21307508  0.21606031  1
  O2-  O151  1  0.46378380  0.23942428  0.73343849  1
  O2-  O152  1  0.43352496  0.55097897  0.22128153  1
  O2-  O153  1  0.45778405  0.55572796  0.72526648  1
  O2-  O154  1  0.42540491  0.87297943  0.21812766  1
  O2-  O155  1  0.43647523  0.88196900  0.73375814  1
  O2-  O156  1  0.74655591  0.19959368  0.21828120  1
  O2-  O157  1  0.78469919  0.21217572  0.73548934  1
  O2-  O158  1  0.75562849  0.54196565  0.20492704  1
  O2-  O159  1  0.78628528  0.56028746  0.73547593  1
  O2-  O160  1  0.75507484  0.87037260  0.20576269  1
  O2-  O161  1  0.78274762  0.88893122  0.72054828  1
  O2-  O162  1  0.21956902  0.11617333  0.27208488  1
  O2-  O163  1  0.24532500  0.13526908  0.79206081  1
  O2-  O164  1  0.20693862  0.43354061  0.27159420  1
  O2-  O165  1  0.24039032  0.44904366  0.78620038  1
  O2-  O166  1  0.19762673  0.75585807  0.23993020  1
  O2-  O167  1  0.17849321  0.75654276  0.79626894  1
  O2-  O168  1  0.53014116  0.09005142  0.28673069  1
  O2-  O169  1  0.54921319  0.10415470  0.79364331  1
  O2-  O170  1  0.54550717  0.44260605  0.27867163  1
  O2-  O171  1  0.57973649  0.46467883  0.80254315  1
  O2-  O172  1  0.54307285  0.76827266  0.27404621  1
  O2-  O173  1  0.56125896  0.77822853  0.78140588  1
  O2-  O174  1  0.88495521  0.10663058  0.25038643  1
  O2-  O175  1  0.90473725  0.11986615  0.77319568  1
  O2-  O176  1  0.87488144  0.44097956  0.26494846  1
  O2-  O177  1  0.89426666  0.43449440  0.78296690  1
  O2-  O178  1  0.85544533  0.73559787  0.31252297  1
  O2-  O179  1  0.90671005  0.79626250  0.78129886  1
  O2-  O180  1  0.23413128  0.10959018  0.45799135  1
  O2-  O181  1  0.23772142  0.13173942  0.97128021  1
  O2-  O182  1  0.11515417  0.35663245  0.44077421  1
  O2-  O183  1  0.23931667  0.45090470  0.96515715  1
  O2-  O184  1  0.21794283  0.77733501  0.50541053  1
  O2-  O185  1  0.21538489  0.76236060  0.97689675  1
  O2-  O186  1  0.54451140  0.08594461  0.47192636  1
  O2-  O187  1  0.46333985  0.06800675  0.95489254  1
  O2-  O188  1  0.55324893  0.45001825  0.46659731  1
  O2-  O189  1  0.58567655  0.47479619  0.98388881  1
  O2-  O190  1  0.58342219  0.82994348  0.45464565  1
  O2-  O191  1  0.56204607  0.78141496  0.96641287  1
  O2-  O192  1  0.92015205  0.17978765  0.41970905  1
  O2-  O193  1  0.90733757  0.13174382  0.95292257  1
  O2-  O194  1  0.89224908  0.46342598  0.46219462  1
  O2-  O195  1  0.88698989  0.50229355  1.01165815  1
  O2-  O196  1  0.88751356  0.76286542  0.49391537  1
  O2-  O197  1  0.89012966  0.79128939  0.97564975  1
  O2-  O198  1  0.12133390  0.23057060  0.01729024  1
  O2-  O199  1  0.14137013  0.20503775  0.55381446  1
  O2-  O200  1  0.13061578  0.54526376  0.02378999  1
  O2-  O201  1  0.10585218  0.56975893  0.53043416  1
  O2-  O202  1  0.12557082  0.90253689  0.01484252  1
  O2-  O203  1  0.11885748  0.90354846  0.53794847  1
  O2-  O204  1  0.43260239  0.22008563  0.03947215  1
  O2-  O205  1  0.46305105  0.23095154  0.46144058  1
  O2-  O206  1  0.45630312  0.56643145  0.03622898  1
  O2-  O207  1  0.43278944  0.53448006  0.54189475  1
  O2-  O208  1  0.43452075  0.87183123  0.03397136  1
  O2-  O209  1  0.43377869  0.87602038  0.55445131  1
  O2-  O210  1  0.81103400  0.25051059  0.03315789  1
  O2-  O211  1  0.77906575  0.24374841  0.50270445  1
  O2-  O212  1  0.70502391  0.54780583  0.01315770  1
  O2-  O213  1  0.74466462  0.49751430  0.56854245  1
  O2-  O214  1  0.78192699  0.90624855  0.01755968  1
  O2-  O215  1  0.77173462  0.85623082  0.53519082  1
