# generated using pymatgen
data_H2O
_symmetry_space_group_name_H-M   'P 1'
_cell_length_a   13.49413962
_cell_length_b   13.49464095
_cell_length_c   14.66659299
_cell_angle_alpha   90.08939218
_cell_angle_beta   89.93705057
_cell_angle_gamma   120.03433293
_symmetry_Int_Tables_number   1
_chemical_formula_structural   H2O
_chemical_formula_sum   'H144 O72'
_cell_volume   2312.14727755
_cell_formula_units_Z   72
loop_
 _symmetry_equiv_pos_site_id
 _symmetry_equiv_pos_as_xyz
  1  'x, y, z'
loop_
 _atom_type_symbol
 _atom_type_oxidation_number
  H+  1.0
  O2-  -2.0
loop_
 _atom_site_type_symbol
 _atom_site_label
 _atom_site_symmetry_multiplicity
 _atom_site_fract_x
 _atom_site_fract_y
 _atom_site_fract_z
 _atom_site_occupancy
  H+  H0  1  0.51967748  0.71676568  0.76241816  1
  H+  H1  1  0.53117099  0.48054854  0.46761251  1
  H+  H2  1  0.84533644  0.48259776  0.74787007  1
  H+  H3  1  0.88961762  0.11101260  0.89866724  1
  H+  H4  1  0.82829227  0.18638150  0.00997312  1
  H+  H5  1  0.18270859  0.02715465  0.49187233  1
  H+  H6  1  0.84976403  0.03675176  0.75401156  1
  H+  H7  1  0.69880162  0.50748794  0.50220990  1
  H+  H8  1  0.66606664  0.47994701  0.24504936  1
  H+  H9  1  0.44495036  0.91667452  0.02826634  1
  H+  H10  1  0.46175234  0.80962770  0.01810427  1
  H+  H11  1  0.19313066  0.36873979  0.48902323  1
  H+  H12  1  0.16217203  0.18801313  0.51258091  1
  H+  H13  1  0.36786764  0.51413500  0.49207065  1
  H+  H14  1  0.34340843  0.51372702  0.24611491  1
  H+  H15  1  0.84619101  0.15001528  0.25892970  1
  H+  H16  1  0.80439457  0.84679893  0.00886659  1
  H+  H17  1  0.14206722  0.96313135  0.25452893  1
  H+  H18  1  0.84710093  0.03191099  0.25709336  1
  H+  H19  1  0.63290262  0.50129382  0.99608133  1
  H+  H20  1  0.77120194  0.88920548  0.10035755  1
  H+  H21  1  0.44999191  0.25375280  0.09327666  1
  H+  H22  1  0.51154071  0.15057701  0.49585081  1
  H+  H23  1  0.47885151  0.30578201  0.73666379  1
  H+  H24  1  0.81961187  0.18300905  0.73687522  1
  H+  H25  1  0.96585564  0.81285563  0.49155742  1
  H+  H26  1  0.90670527  0.11670278  0.40117023  1
  H+  H27  1  0.20295090  0.75528025  0.89700760  1
  H+  H28  1  0.03103071  0.18426731  0.00771088  1
  H+  H29  1  0.36525294  0.17971876  0.50355323  1
  H+  H30  1  0.86765319  0.03817831  0.48893307  1
  H+  H31  1  0.51552973  0.69293323  0.99272326  1
  H+  H32  1  -0.03121215  0.15482563  0.75606391  1
  H+  H33  1  0.75818810  0.37171045  -0.06047856  1
  H+  H34  1  0.51546288  0.82129426  0.49192949  1
  H+  H35  1  0.82018811  0.30375565  0.73650461  1
  H+  H36  1  0.62633893  0.13022353  0.26086952  1
  H+  H37  1  -0.04194990  0.48201245  0.26683263  1
  H+  H38  1  0.47351746  0.64631531  0.24761654  1
  H+  H39  1  0.14904603  0.18326015  0.73994701  1
  H+  H40  1  0.28307651  0.47753728  0.76549321  1
  H+  H41  1  0.06962427  0.88696004  0.02768338  1
  H+  H42  1  0.56626302  0.24364433  0.97343203  1
  H+  H43  1  0.17257301  0.15076106  0.26235001  1
  H+  H44  1  0.18023054  0.03240145  0.76051087  1
  H+  H45  1  0.02760183  0.18601635  0.24162807  1
  H+  H46  1  0.63274734  0.48643345  0.75346768  1
  H+  H47  1  0.16700773  0.35739385  0.75929487  1
  H+  H48  1  0.14756425  0.63094925  1.00994233  1
  H+  H49  1  0.28219816  0.78601246  0.98811714  1
  H+  H50  1  0.47999522  0.51765590  1.01568899  1
  H+  H51  1  0.02269594  0.84879310  0.73954969  1
  H+  H52  1  0.63030492  0.81709113  0.99531644  1
  H+  H53  1  0.29150620  0.80813073  0.27399029  1
  H+  H54  1  -0.03853727  0.47098736  0.50831067  1
  H+  H55  1  0.35752093  0.51288087  1.01408193  1
  H+  H56  1  0.63320112  0.15539366  0.74912421  1
  H+  H57  1  0.51493995  0.03141444  0.50156156  1
  H+  H58  1  0.80612359  0.84189593  0.24177880  1
  H+  H59  1  0.19087651  0.48907078  0.48910643  1
  H+  H60  1  0.80267066  0.51604427  0.01721710  1
  H+  H61  1  0.84692156  0.48224552  0.50195189  1
  H+  H62  1  0.80831289  0.63074299  0.72987280  1
  H+  H63  1  0.50256432  0.80865890  0.26615478  1
  H+  H64  1  0.83460095  0.30806637  0.01467580  1
  H+  H65  1  0.15636523  0.50836228  0.01386528  1
  H+  H66  1  0.82810799  0.68340890  0.26466343  1
  H+  H67  1  0.81578967  0.84633646  0.50856228  1
  H+  H68  1  0.29940383  0.15186293  0.75617508  1
  H+  H69  1  0.43557356  0.56678749  0.83722038  1
  H+  H70  1  0.67143336  0.17776759  0.51486546  1
  H+  H71  1  0.48187823  0.18898871  0.73425403  1
  H+  H72  1  0.80792414  0.29507997  0.24641761  1
  H+  H73  1  0.49392974  1.06181428  0.04000291  1
  H+  H74  1  0.51693605  0.70251735  0.48643305  1
  H+  H75  1  0.46494489  0.04578561  0.99360921  1
  H+  H76  1  0.81739201  0.62961004  0.50840044  1
  H+  H77  1  0.95034142  0.79979759  0.26081729  1
  H+  H78  1  0.09217376  0.54349093  0.45093379  1
  H+  H79  1  0.13920265  0.84461218  0.74324279  1
  H+  H80  1  0.36404724  0.84943474  0.51598032  1
  H+  H81  1  0.66852413  0.21525837  0.97719001  1
  H+  H82  1  0.17352845  0.36277727  -0.00776479  1
  H+  H83  1  0.44262103  0.22458434  0.59332636  1
  H+  H84  1  0.81405915  0.67938902  0.99431431  1
  H+  H85  1  -0.03418994  0.48600500  0.74416782  1
  H+  H86  1  0.88421369  0.43927950  0.35843990  1
  H+  H87  1  0.17216115  0.69189088  0.74930243  1
  H+  H88  1  0.14929184  0.51523919  0.24336213  1
  H+  H89  1  0.83818313  0.81860158  0.74216725  1
  H+  H90  1  0.16425041  0.85143150  0.01220477  1
  H+  H91  1  0.84821832  0.03253573  0.98903369  1
  H+  H92  1  0.13910203  0.51206570  0.72376677  1
  H+  H93  1  0.70052564  0.85335584  0.50462747  1
  H+  H94  1  0.14803244  0.84175430  0.51525871  1
  H+  H95  1  0.18228996  0.36526786  0.26094914  1
  H+  H96  1  0.52729162  0.36224933  0.47977721  1
  H+  H97  1  0.88197185  0.77108135  0.40448014  1
  H+  H98  1  0.47682600  0.95564613  0.25280940  1
  H+  H99  1  0.37335196  0.20732070  0.00289052  1
  H+  H100  1  0.92894687  0.77894261  0.95607575  1
  H+  H101  1  0.29303481  0.15849385  0.26248586  1
  H+  H102  1  0.18713586  0.68988360  0.50436205  1
  H+  H103  1  0.80452545  0.30718796  0.51574130  1
  H+  H104  1  0.76398108  0.54968941  0.11272404  1
  H+  H105  1  0.20810009  0.05361247  0.99189541  1
  H+  H106  1  0.51430571  0.38422003  0.98904245  1
  H+  H107  1  0.10631063  0.55195491  0.63138503  1
  H+  H108  1  0.45500009  0.54827623  0.57443627  1
  H+  H109  1  0.20678791  0.44181979  0.90173683  1
  H+  H110  1  0.47897024  0.86014160  0.74763488  1
  H+  H111  1  0.56140897  0.79440857  0.84967362  1
  H+  H112  1  0.04380611  0.18792631  0.50799086  1
  H+  H113  1  0.11873355  0.55643274  0.11221223  1
  H+  H114  1  0.10953392  0.22701199  0.15387605  1
  H+  H115  1  0.11385774  0.22469688  0.64896208  1
  H+  H116  1  0.42438758  0.86303165  0.16898282  1
  H+  H117  1  0.76886521  0.54684915  0.64389591  1
  H+  H118  1  0.69967759  0.86244746  0.73443101  1
  H+  H119  1  0.21995103  0.77142129  0.41756280  1
  H+  H120  1  0.54841147  0.76990951  0.35226813  1
  H+  H121  1  0.85699732  0.76478336  0.83175625  1
  H+  H122  1  0.22892737  0.12213890  0.89800815  1
  H+  H123  1  0.17259334  0.80890486  0.27463616  1
  H+  H124  1  0.68929651  0.84408638  0.24122718  1
  H+  H125  1  0.57322202  0.15636013  0.83969423  1
  H+  H126  1  0.21924146  0.10747336  0.40346392  1
  H+  H127  1  0.48361063  0.51990263  0.76360602  1
  H+  H128  1  0.15345206  0.19134596  0.00865975  1
  H+  H129  1  0.76571767  0.22156648  0.60897982  1
  H+  H130  1  0.87515946  0.45193928  0.89338739  1
  H+  H131  1  0.44333532  0.89261835  0.60425287  1
  H+  H132  1  0.10570023  0.88657817  0.59904338  1
  H+  H133  1  0.11970876  0.88766888  0.16699656  1
  H+  H134  1  0.77715642  0.89656905  0.64309589  1
  H+  H135  1  0.43105500  0.55924005  0.15145042  1
  H+  H136  1  0.79034938  0.49497681  0.25447878  1
  H+  H137  1  0.47284431  -0.02503344  0.74782019  1
  H+  H138  1  0.55999360  0.45191292  0.84679045  1
  H+  H139  1  0.55121420  0.09555923  0.35067720  1
  H+  H140  1  0.22517151  0.44527919  0.35219692  1
  H+  H141  1  0.77741167  0.22130227  0.15489631  1
  H+  H142  1  0.28924838  0.81210186  0.76051300  1
  H+  H143  1  0.14838849  0.63452790  0.24500669  1
  O2-  O144  1  0.11032458  0.22846023  0.22181289  1
  O2-  O145  1  0.10851184  0.22346088  0.71774874  1
  O2-  O146  1  0.11055669  0.55534037  0.21658534  1
  O2-  O147  1  0.10298984  0.55521503  0.69940010  1
  O2-  O148  1  0.10432296  0.88175718  0.23324623  1
  O2-  O149  1  0.10474098  0.89029706  0.72055700  1
  O2-  O150  1  0.44180347  0.27214983  0.21603533  1
  O2-  O151  1  0.43761789  0.22583887  0.71261181  1
  O2-  O152  1  0.42695000  0.56276525  0.22069842  1
  O2-  O153  1  0.43977923  0.56243948  0.77095236  1
  O2-  O154  1  0.42966966  0.86990622  0.23615956  1
  O2-  O155  1  0.43280842  0.89436849  0.72533655  1
  O2-  O156  1  0.77217420  0.21546533  0.22281545  1
  O2-  O157  1  0.77803894  0.22254756  0.71339495  1
  O2-  O158  1  0.74756244  0.53171834  0.22985152  1
  O2-  O159  1  0.76818502  0.54797782  0.71270454  1
  O2-  O160  1  0.76905537  0.88461223  0.21741426  1
  O2-  O161  1  0.78006929  0.89839434  0.71198997  1
  O2-  O162  1  0.21331515  0.11013462  0.28383302  1
  O2-  O163  1  0.22049395  0.11322843  0.78315551  1
  O2-  O164  1  0.22375230  0.44744226  0.28259596  1
  O2-  O165  1  0.20165423  0.43778219  0.78442855  1
  O2-  O166  1  0.20943516  0.76393346  0.29406822  1
  O2-  O167  1  0.20802880  0.76723317  0.78219707  1
  O2-  O168  1  0.54686709  0.08337881  0.28409821  1
  O2-  O169  1  0.55553441  0.12398838  0.77656101  1
  O2-  O170  1  0.50000344  0.37218080  0.25168382  1
  O2-  O171  1  0.55259006  0.44803350  0.77893501  1
  O2-  O172  1  0.54298928  0.76501939  0.28337690  1
  O2-  O173  1  0.56051555  0.79832840  0.78170352  1
  O2-  O174  1  0.89120060  0.11277284  0.27800106  1
  O2-  O175  1  0.88811201  0.11637975  0.77961900  1
  O2-  O176  1  0.87887400  0.44015622  0.29072198  1
  O2-  O177  1  0.88709788  0.44395149  0.77130418  1
  O2-  O178  1  0.87037374  0.76516604  0.28361791  1
  O2-  O179  1  0.87394488  0.77341242  0.76581597  1
  O2-  O180  1  0.22485237  0.10868688  0.47132150  1
  O2-  O181  1  0.23466155  0.13073232  0.96651321  1
  O2-  O182  1  0.23343068  0.44850489  0.46351547  1
  O2-  O183  1  0.21288869  0.44523861  0.97044345  1
  O2-  O184  1  0.22424841  0.77434911  0.48530813  1
  O2-  O185  1  0.20109676  0.75352715  0.96621958  1
  O2-  O186  1  0.55785822  0.11273896  0.47884272  1
  O2-  O187  1  0.62834679  0.24328245  0.93679499  1
  O2-  O188  1  0.57581309  0.44191373  0.45743785  1
  O2-  O189  1  0.55533734  0.46631931  0.96710165  1
  O2-  O190  1  0.55686153  0.78384619  0.46515364  1
  O2-  O191  1  0.55028252  0.77318148  0.96987654  1
  O2-  O192  1  0.91435191  0.11850369  0.46839249  1
  O2-  O193  1  0.89255838  0.11327379  0.96699420  1
  O2-  O194  1  0.88190620  0.43376230  0.48275646  1
  O2-  O195  1  0.83830717  0.43225701  0.95466096  1
  O2-  O196  1  0.88348250  0.77150689  0.47244534  1
  O2-  O197  1  0.84787831  0.75431592  0.95903008  1
  O2-  O198  1  0.11138274  0.22976131  0.03162652  1
  O2-  O199  1  0.12448203  0.23128841  0.53416476  1
  O2-  O200  1  0.11841170  0.55268892  0.04108428  1
  O2-  O201  1  0.11942029  0.54974327  0.51338177  1
  O2-  O202  1  0.14816585  0.90856192  0.04283570  1
  O2-  O203  1  0.10662012  0.88391106  0.53110393  1
  O2-  O204  1  0.45395895  0.25343803  0.02568062  1
  O2-  O205  1  0.44669067  0.22030460  0.52551576  1
  O2-  O206  1  0.43630658  0.55539028  0.04011250  1
  O2-  O207  1  0.45260371  0.55720344  0.50874691  1
  O2-  O208  1  0.40815063  0.83492430  0.04381452  1
  O2-  O209  1  0.44653737  0.89271314  0.53624427  1
  O2-  O210  1  0.79109788  0.22808263  0.03680853  1
  O2-  O211  1  0.75756463  0.22449106  0.53921686  1
  O2-  O212  1  0.76673292  0.55876229  0.04469342  1
  O2-  O213  1  0.77904636  0.54858837  0.53051095  1
  O2-  O214  1  0.76876152  0.89105979  0.03187373  1
  O2-  O215  1  0.77966758  0.89132437  0.53007488  1
