# generated using pymatgen
data_H2O
_symmetry_space_group_name_H-M   'P 1'
_cell_length_a   13.52004579
_cell_length_b   13.50721537
_cell_length_c   14.70424885
_cell_angle_alpha   89.92236866
_cell_angle_beta   90.01760461
_cell_angle_gamma   120.02973941
_symmetry_Int_Tables_number   1
_chemical_formula_structural   H2O
_chemical_formula_sum   'H144 O72'
_cell_volume   2324.80643779
_cell_formula_units_Z   72
loop_
 _symmetry_equiv_pos_site_id
 _symmetry_equiv_pos_as_xyz
  1  'x, y, z'
loop_
 _atom_type_symbol
 _atom_type_oxidation_number
  H+  1.0
  O2-  -2.0
loop_
 _atom_site_type_symbol
 _atom_site_label
 _atom_site_symmetry_multiplicity
 _atom_site_fract_x
 _atom_site_fract_y
 _atom_site_fract_z
 _atom_site_occupancy
  H+  H0  1  0.50371267  0.51830543  0.23047967  1
  H+  H1  1  0.15047026  0.95711255  0.50362246  1
  H+  H2  1  0.54041834  0.71891022  0.77245398  1
  H+  H3  1  0.13516929  0.94317357  0.02521287  1
  H+  H4  1  0.69613879  0.51631824  0.74668092  1
  H+  H5  1  0.88870230  0.76963046  0.40517511  1
  H+  H6  1  0.87245436  0.17641432  0.73532434  1
  H+  H7  1  0.71638397  0.51367400  0.23060814  1
  H+  H8  1  0.19763505  0.15478316  0.25891132  1
  H+  H9  1  0.82602804  0.52791006  1.00438858  1
  H+  H10  1  0.36603939  0.50208440  0.55933200  1
  H+  H11  1  0.19560475  0.39408184  0.77372590  1
  H+  H12  1  0.15615244  0.52504383  0.22020018  1
  H+  H13  1  0.51915042  0.70187848  0.49857843  1
  H+  H14  1  0.04221712  0.85899012  0.24986552  1
  H+  H15  1  0.53064542  0.45009211  1.01564793  1
  H+  H16  1  0.37176962  0.17849612  0.23528575  1
  H+  H17  1  0.85394502  0.49489268  0.76080372  1
  H+  H18  1  0.52879955  0.03634787  0.48640972  1
  H+  H19  1  0.31737958  0.14111658  0.00565674  1
  H+  H20  1  0.49158242  0.17723754  0.23783395  1
  H+  H21  1  0.15383539  -0.00991267  0.72895538  1
  H+  H22  1  0.23073460  0.78272405  0.89904200  1
  H+  H23  1  0.11646254  0.21394138  0.15633537  1
  H+  H24  1  -0.03472983  0.80854831  0.49509246  1
  H+  H25  1  0.05257843  0.23463435  0.72018107  1
  H+  H26  1  0.16437225  0.15944024  0.48266323  1
  H+  H27  1  0.05201707  0.17404770  0.48822258  1
  H+  H28  1  0.49818517  0.52922668  0.56589649  1
  H+  H29  1  0.31677836  0.50771425  0.79030036  1
  H+  H30  1  0.53745995  0.83621650  0.76420836  1
  H+  H31  1  0.72177183  0.87208322  0.73899460  1
  H+  H32  1  0.63981658  0.48378655  0.48451355  1
  H+  H33  1  0.78871892  0.24109877  0.63989179  1
  H+  H34  1  0.56279057  0.11218514  0.34184865  1
  H+  H35  1  0.88777168  0.44638047  0.84714705  1
  H+  H36  1  0.85498253  0.71491729  0.76663598  1
  H+  H37  1  0.86004507  0.83558893  0.75711920  1
  H+  H38  1  0.19286644  0.03243856  0.25386453  1
  H+  H39  1  0.85772716  0.14571294  0.25884820  1
  H+  H40  1  0.52849560  0.35850203  0.24296972  1
  H+  H41  1  0.16016700  0.86067130  0.23850067  1
  H+  H42  1  0.16212048  0.18569966  0.02178305  1
  H+  H43  1  0.55511470  0.41936507  0.85531408  1
  H+  H44  1  0.14341941  0.63394406  0.53870175  1
  H+  H45  1  0.17586979  0.62180728  0.50355821  1
  H+  H46  1  0.88447884  0.06507993  0.73709291  1
  H+  H47  1  0.37690669  0.85558210  0.23894911  1
  H+  H48  1  0.82809745  0.29720554  0.23383176  1
  H+  H49  1  0.48354613  0.95085049  0.00950522  1
  H+  H50  1  0.86217096  0.69693804  0.26357162  1
  H+  H51  1  0.80572317  0.62625014  0.51146718  1
  H+  H52  1  0.85317953  0.81134790  0.26959650  1
  H+  H53  1  0.83188253  0.32002679  0.73015103  1
  H+  H54  1  0.96127388  0.48068913  0.98785806  1
  H+  H55  1  0.52096972  0.69921202  0.26167120  1
  H+  H56  1  0.15196954  0.29824968  0.02380485  1
  H+  H57  1  0.20546678  0.84383819  0.75955125  1
  H+  H58  1  0.50723926  -0.01504737  0.74267357  1
  H+  H59  1  0.18845910  0.36811499  0.22617991  1
  H+  H60  1  0.84597338  0.35941187  0.98722975  1
  H+  H61  1  0.65351282  0.84153216  0.99767788  1
  H+  H62  1  0.52456827  0.13208973  0.99112227  1
  H+  H63  1  0.51994919  0.14971494  0.48708620  1
  H+  H64  1  0.38546934  0.86928702  0.74394137  1
  H+  H65  1  1.01302998  0.84370002  0.99653860  1
  H+  H66  1  0.70204008  0.19104247  0.49880500  1
  H+  H67  1  0.28462800  0.49452074  1.01206467  1
  H+  H68  1  0.31234014  0.13139338  0.48292400  1
  H+  H69  1  0.70409231  0.16871368  1.00907755  1
  H+  H70  1  0.83424174  0.51306801  0.23152943  1
  H+  H71  1  0.70591626  0.84345357  0.25565981  1
  H+  H72  1  0.81921401  0.10769979  -0.01112729  1
  H+  H73  1  -0.02774075  0.48018926  0.25707534  1
  H+  H74  1  0.13972202  0.63225616  -0.00003608  1
  H+  H75  1  0.41510765  0.13704829  0.72972957  1
  H+  H76  1  1.04214089  0.17930960  0.24803529  1
  H+  H77  1  0.65840292  0.47943651  1.00006652  1
  H+  H78  1  0.97706939  0.42917469  0.51226269  1
  H+  H79  1  0.45152645  0.53295222  -0.02271600  1
  H+  H80  1  0.52488716  0.03188896  0.25320587  1
  H+  H81  1  0.82320649  0.84991543  0.50588527  1
  H+  H82  1  0.30801354  0.48586238  0.22372276  1
  H+  H83  1  0.49969038  0.85828940  0.51306572  1
  H+  H84  1  0.51939163  0.47365041  0.45088175  1
  H+  H85  1  0.20200036  0.72297361  0.76379858  1
  H+  H86  1  0.83420493  0.91682037  1.00531516  1
  H+  H87  1  0.04946321  0.54326424  0.75245661  1
  H+  H88  1  0.17017023  0.23600734  0.70790754  1
  H+  H89  1  0.20198009  0.83727060  0.48227493  1
  H+  H90  1  0.31248684  0.18011294  0.72760121  1
  H+  H91  1  0.16750003  0.54633149  0.76670515  1
  H+  H92  1  0.82552956  -0.04147419  0.25205458  1
  H+  H93  1  0.49309511  0.51935646  0.76641853  1
  H+  H94  1  0.20933824  0.34120382  0.52390335  1
  H+  H95  1  0.13402657  0.51106315  1.01123746  1
  H+  H96  1  0.85505481  0.03791611  0.49330612  1
  H+  H97  1  0.66769399  0.17105213  0.75428086  1
  H+  H98  1  0.08876486  0.42457318  0.53422801  1
  H+  H99  1  0.20721691  0.38655526  0.61849546  1
  H+  H100  1  0.50169989  0.27941127  0.01270896  1
  H+  H101  1  0.50712104  0.34620708  0.76353740  1
  H+  H102  1  0.35948626  0.84090430  1.01607578  1
  H+  H103  1  0.48516418  0.29019811  0.51047809  1
  H+  H104  1  0.32762145  0.85220315  0.48154577  1
  H+  H105  1  0.04200383  0.86778623  0.74478715  1
  H+  H106  1  0.17078159  0.80424430  0.98344705  1
  H+  H107  1  0.94495062  0.53150487  0.45036773  1
  H+  H108  1  0.78827032  0.21079040  0.09489781  1
  H+  H109  1  0.21904652  0.45157859  0.91765683  1
  H+  H110  1  0.45541649  0.20346049  0.10259456  1
  H+  H111  1  0.80189034  0.50542885  0.49977497  1
  H+  H112  1  0.17740269  0.46189838  0.38324835  1
  H+  H113  1  0.24019035  0.09626538  0.38887473  1
  H+  H114  1  0.70869220  0.18012526  0.23529459  1
  H+  H115  1  0.81831625  0.31055985  0.49864142  1
  H+  H116  1  0.45420621  0.88871400  0.15016488  1
  H+  H117  1  0.50413958  0.66107963  0.00694714  1
  H+  H118  1  0.51979850  0.81803161  0.26220269  1
  H+  H119  1  0.24050146  0.79746784  0.33738200  1
  H+  H120  1  0.10306033  0.56774288  0.14588360  1
  H+  H121  1  0.45529968  0.57178187  0.68548379  1
  H+  H122  1  0.82959236  0.73376423  0.99182075  1
  H+  H123  1  0.59424161  0.79283603  0.90166289  1
  H+  H124  1  0.46611461  0.56653829  0.14579781  1
  H+  H125  1  0.57442407  0.43515990  0.33151997  1
  H+  H126  1  0.19293439  0.70932039  0.25229260  1
  H+  H127  1  0.87983312  0.43896660  0.34141240  1
  H+  H128  1  0.86060335  0.15965251  0.49227657  1
  H+  H129  1  0.79267093  0.89967662  0.64601880  1
  H+  H130  1  0.55456822  0.77354612  0.40412102  1
  H+  H131  1  0.87705552  0.80634545  0.90163087  1
  H+  H132  1  0.22670407  0.07994226  0.92750137  1
  H+  H133  1  0.77109584  0.55789846  0.65684836  1
  H+  H134  1  0.11192355  0.88810506  0.59779275  1
  H+  H135  1  0.46496772  0.90329707  0.60193681  1
  H+  H136  1  0.79276406  0.56668697  0.09607838  1
  H+  H137  1  0.89604922  0.11248090  0.35175117  1
  H+  H138  1  0.11438077  0.42179011  0.37831749  1
  H+  H139  1  0.70561384  0.85194448  0.50655739  1
  H+  H140  1  0.57365701  0.10619857  0.90072708  1
  H+  H141  1  0.55523866  0.17913927  0.76328758  1
  H+  H142  1  0.44215659  0.21310248  0.60258953  1
  H+  H143  1  0.21713708  0.16331650  0.80441616  1
  O2-  O144  1  0.12253622  0.21858145  0.22523145  1
  O2-  O145  1  0.13775826  0.28755907  0.70890980  1
  O2-  O146  1  0.11176163  0.56636883  0.21331772  1
  O2-  O147  1  0.13309188  0.59154918  0.74428548  1
  O2-  O148  1  0.12057449  0.90426689  0.22462255  1
  O2-  O149  1  0.12024328  0.90660014  0.71775456  1
  O2-  O150  1  0.45337467  0.21863881  0.21175105  1
  O2-  O151  1  0.43070282  0.21288625  0.71104873  1
  O2-  O152  1  0.46536611  0.56222449  0.21320097  1
  O2-  O153  1  0.46080175  0.57011728  0.75311444  1
  O2-  O154  1  0.45914035  0.89380427  0.21916981  1
  O2-  O155  1  0.46636140  0.90442129  0.72100643  1
  O2-  O156  1  0.78868304  0.21575680  0.21210456  1
  O2-  O157  1  0.78969313  0.23898425  0.70808931  1
  O2-  O158  1  0.79739789  0.55813318  0.20996486  1
  O2-  O159  1  0.77590351  0.56379334  0.72441937  1
  O2-  O160  1  0.78636789  0.87604625  0.23602697  1
  O2-  O161  1  0.80079601  0.90712606  0.71366634  1
  O2-  O162  1  0.24144577  0.11525533  0.27584667  1
  O2-  O163  1  0.22278651  0.14341521  0.74186535  1
  O2-  O164  1  0.22480871  0.45230772  0.21696162  1
  O2-  O165  1  0.23507988  0.46924856  0.80866045  1
  O2-  O166  1  0.23762800  0.79198217  0.26898759  1
  O2-  O167  1  0.24887688  0.80729928  0.78182205  1
  O2-  O168  1  0.56460659  0.11416749  0.27381495  1
  O2-  O169  1  0.58727099  0.13101740  0.78166742  1
  O2-  O170  1  0.57243845  0.44019445  0.26417419  1
  O2-  O171  1  0.54947828  0.42617327  0.78868698  1
  O2-  O172  1  0.55682439  0.77655241  0.29001747  1
  O2-  O173  1  0.58427471  0.80234456  0.78576744  1
  O2-  O174  1  0.89841637  0.10720493  0.28401372  1
  O2-  O175  1  0.92541538  0.14783341  0.75027786  1
  O2-  O176  1  0.88893271  0.43450961  0.27202044  1
  O2-  O177  1  0.89452211  0.45371644  0.77939641  1
  O2-  O178  1  0.89759466  0.77377607  0.29232414  1
  O2-  O179  1  0.89749844  0.79554417  0.78745795  1
  O2-  O180  1  0.23368582  0.08746370  0.45698523  1
  O2-  O181  1  0.23409184  0.10689176  0.98972005  1
  O2-  O182  1  0.24118788  0.41719146  0.55760909  1
  O2-  O183  1  0.20818329  0.44480399  0.98598379  1
  O2-  O184  1  0.25500406  0.82100615  0.44747580  1
  O2-  O185  1  0.21870137  0.76941488  0.96595268  1
  O2-  O186  1  0.56401391  0.11536318  0.45997589  1
  O2-  O187  1  0.56843368  0.09586676  0.96791501  1
  O2-  O188  1  0.56189087  0.43309969  0.45322119  1
  O2-  O189  1  0.57496825  0.42461116  0.98075797  1
  O2-  O190  1  0.56051618  0.77986592  0.47254585  1
  O2-  O191  1  0.59781069  0.77142327  0.96587210  1
  O2-  O192  1  0.89812918  0.11733129  0.46896164  1
  O2-  O193  1  0.83086480  0.04796543  0.95694002  1
  O2-  O194  1  0.87200902  0.45994473  0.44818318  1
  O2-  O195  1  0.87980449  0.43963869  0.96506921  1
  O2-  O196  1  0.88395084  0.77012558  0.47375307  1
  O2-  O197  1  0.87228703  0.81297209  0.96930063  1
  O2-  O198  1  0.11718232  0.21867209  0.04647321  1
  O2-  O199  1  0.13544045  0.21228211  0.49736345  1
  O2-  O200  1  0.09311022  0.55363468  0.02697726  1
  O2-  O201  1  0.01926125  0.41676941  0.56135278  1
  O2-  O202  1  0.09230775  0.86178043  0.00995217  1
  O2-  O203  1  0.10610892  0.87833080  0.53045489  1
  O2-  O204  1  0.45495275  0.19884333  0.03364645  1
  O2-  O205  1  0.44660333  0.21052557  0.53290400  1
  O2-  O206  1  0.44756695  0.57792932  0.02723292  1
  O2-  O207  1  0.45218103  0.56616765  0.56642376  1
  O2-  O208  1  0.43840818  0.87627217  0.04056785  1
  O2-  O209  1  0.46499197  0.90446251  0.53400117  1
  O2-  O210  1  0.78690825  0.20943996  0.02667470  1
  O2-  O211  1  0.78192371  0.23153641  0.52318650  1
  O2-  O212  1  0.78457070  0.56661284  0.02788093  1
  O2-  O213  1  0.76060471  0.54460515  0.53146627  1
  O2-  O214  1  0.79859816  0.96174868  0.02815069  1
  O2-  O215  1  0.78607582  0.89360507  0.52868733  1
