# generated using pymatgen
data_H2O
_symmetry_space_group_name_H-M   'P 1'
_cell_length_a   13.51335477
_cell_length_b   13.51258071
_cell_length_c   14.71203824
_cell_angle_alpha   90.03697911
_cell_angle_beta   89.99326312
_cell_angle_gamma   119.96808960
_symmetry_Int_Tables_number   1
_chemical_formula_structural   H2O
_chemical_formula_sum   'H144 O72'
_cell_volume   2327.25735376
_cell_formula_units_Z   72
loop_
 _symmetry_equiv_pos_site_id
 _symmetry_equiv_pos_as_xyz
  1  'x, y, z'
loop_
 _atom_type_symbol
 _atom_type_oxidation_number
  H+  1.0
  O2-  -2.0
loop_
 _atom_site_type_symbol
 _atom_site_label
 _atom_site_symmetry_multiplicity
 _atom_site_fract_x
 _atom_site_fract_y
 _atom_site_fract_z
 _atom_site_occupancy
  H+  H0  1  0.88065661  0.38069985  0.46012637  1
  H+  H1  1  0.18728222  0.92957211  0.15852556  1
  H+  H2  1  0.48100315  0.84502474  -0.00311948  1
  H+  H3  1  0.92389008  0.46738553  0.38039213  1
  H+  H4  1  0.47835649  0.49515620  0.73876722  1
  H+  H5  1  0.86518298  0.36229451  0.24188124  1
  H+  H6  1  0.43386862  0.54415157  0.61370980  1
  H+  H7  1  0.49670321  0.48670236  0.99550634  1
  H+  H8  1  0.17243777  0.02888699  0.99471692  1
  H+  H9  1  0.09769184  0.81414916  0.54578918  1
  H+  H10  1  0.12625345  0.61587649  -0.00275028  1
  H+  H11  1  0.68447655  0.51345983  0.00322961  1
  H+  H12  1  0.18414533  0.46928052  0.25052089  1
  H+  H13  1  0.52674245  0.15058586  0.23255823  1
  H+  H14  1  0.47247365  0.21464008  0.55497935  1
  H+  H15  1  0.52813165  0.03542167  1.00017934  1
  H+  H16  1  0.51789512  0.92307288  0.55524781  1
  H+  H17  1  0.49965242  0.63688266  0.53679994  1
  H+  H18  1  0.18910064  0.81452311  0.25177579  1
  H+  H19  1  0.83969349  0.17704448  0.22340891  1
  H+  H20  1  0.86605687  0.68981044  0.74769639  1
  H+  H21  1  0.38363848  0.84486844  0.54500352  1
  H+  H22  1  0.71136053  0.85476318  0.73712394  1
  H+  H23  1  0.24940432  0.40463318  0.75223033  1
  H+  H24  1  0.30714665  0.48599955  0.48906231  1
  H+  H25  1  0.21685271  0.77401241  0.85749695  1
  H+  H26  1  0.18934985  0.36337479  -0.00845368  1
  H+  H27  1  0.30699115  0.80801411  0.40932822  1
  H+  H28  1  0.36483919  0.50356403  0.23816092  1
  H+  H29  1  0.52180546  0.12624167  0.44151963  1
  H+  H30  1  0.49994878  0.48785575  0.47590476  1
  H+  H31  1  0.49967708  0.18654235  1.01924930  1
  H+  H32  1  0.29855300  0.81358104  -0.01216651  1
  H+  H33  1  0.71031717  0.86805995  0.49982143  1
  H+  H34  1  0.15677193  0.29891620  0.51221435  1
  H+  H35  1  -0.02430131  0.13510968  0.23859165  1
  H+  H36  1  0.14219667  0.18075677  1.01254074  1
  H+  H37  1  0.05965159  0.85318701  0.07875825  1
  H+  H38  1  0.81139501  0.97075017  0.00810503  1
  H+  H39  1  0.34901460  0.19687191  0.53821356  1
  H+  H40  1  0.50239706  0.37544158  0.48764545  1
  H+  H41  1  0.85474335  0.53413863  0.73207303  1
  H+  H42  1  0.84637340  0.82246587  0.48456910  1
  H+  H43  1  0.51421244  0.31710700  0.76688506  1
  H+  H44  1  1.03511625  0.50259458  0.22428309  1
  H+  H45  1  0.87360611  0.14736934  0.45067256  1
  H+  H46  1  0.36468237  0.84423062  0.77248356  1
  H+  H47  1  0.51049901  0.78493132  0.47282002  1
  H+  H48  1  0.18443554  0.82317594  0.76724114  1
  H+  H49  1  0.89134548  0.78412188  0.39631376  1
  H+  H50  1  1.04904034  0.21545754  0.79854655  1
  H+  H51  1  0.51958792  0.79384888  0.76992411  1
  H+  H52  1  0.85408345  0.13429326  0.80099986  1
  H+  H53  1  0.49472175  0.96610593  0.22359407  1
  H+  H54  1  0.52061071  0.35899755  0.25119537  1
  H+  H55  1  0.82118768  0.62670367  0.23238325  1
  H+  H56  1  0.52945807  0.01639722  0.42234974  1
  H+  H57  1  0.22416702  0.83756851  0.46087767  1
  H+  H58  1  0.77165498  0.55486898  0.08620711  1
  H+  H59  1  0.82788403  0.97315183  0.74507885  1
  H+  H60  1  0.85441842  0.53445796  0.50248770  1
  H+  H61  1  0.15307178  0.29051670  0.23790378  1
  H+  H62  1  0.80213301  0.22360592  0.53388671  1
  H+  H63  1  0.04760735  0.52430650  0.50737605  1
  H+  H64  1  0.16948185  0.63810405  0.51196613  1
  H+  H65  1  0.70082627  0.83329344  0.22699516  1
  H+  H66  1  0.46699193  0.60421314  0.75065176  1
  H+  H67  1  0.18792617  0.47998907  0.48947022  1
  H+  H68  1  0.02434582  0.18508759  0.01946120  1
  H+  H69  1  0.83987519  0.64521594  0.50596314  1
  H+  H70  1  0.83234859  0.47451684  -0.03253909  1
  H+  H71  1  0.04366971  0.17904392  0.50263491  1
  H+  H72  1  0.48398269  0.29697656  0.01843443  1
  H+  H73  1  0.60514011  0.13087781  0.81775652  1
  H+  H74  1  0.49570060  0.14942770  0.77435172  1
  H+  H75  1  0.83260881  0.81767894  0.97133713  1
  H+  H76  1  0.86586436  0.02765984  0.47385761  1
  H+  H77  1  0.14968141  0.97649266  0.74999170  1
  H+  H78  1  0.17990220  0.15649106  0.76687517  1
  H+  H79  1  0.15550006  0.61648602  0.21166690  1
  H+  H80  1  0.72668493  0.18343559  0.20451697  1
  H+  H81  1  0.78093117  0.23618389  0.87742771  1
  H+  H82  1  0.36114356  0.51397326  0.00387054  1
  H+  H83  1  0.01351005  0.85372897  0.51450472  1
  H+  H84  1  0.18840767  0.04374308  0.49988286  1
  H+  H85  1  0.63330243  0.81615663  0.98787621  1
  H+  H86  1  0.85663762  0.47759742  0.24084737  1
  H+  H87  1  0.97137167  0.81410160  0.25230970  1
  H+  H88  1  1.00771258  0.83494426  0.98236525  1
  H+  H89  1  -0.01352731  0.82302391  0.76188355  1
  H+  H90  1  0.45033337  0.87760085  0.68952990  1
  H+  H91  1  0.90616667  0.40094527  0.75725663  1
  H+  H92  1  0.36860706  0.17501229  0.24292213  1
  H+  H93  1  0.82680792  0.69381539  0.97443102  1
  H+  H94  1  0.37524326  0.84716001  0.23191583  1
  H+  H95  1  0.18581369  0.16132396  0.49773883  1
  H+  H96  1  0.17158195  -0.01855643  0.24839595  1
  H+  H97  1  0.05323492  0.53615769  0.74934982  1
  H+  H98  1  0.76979405  0.23198502  0.76933799  1
  H+  H99  1  0.29306987  0.14234374  1.00341521  1
  H+  H100  1  0.85180163  0.81064697  0.24805745  1
  H+  H101  1  0.29087977  0.14866789  0.78107436  1
  H+  H102  1  0.43717502  0.23661443  0.68753209  1
  H+  H103  1  0.17316001  0.66444783  0.74376333  1
  H+  H104  1  0.88266237  0.77026925  0.84477032  1
  H+  H105  1  0.52070744  0.80561237  0.24148599  1
  H+  H106  1  0.72702060  0.18960895  0.44721378  1
  H+  H107  1  0.17610553  0.80946675  -0.01316839  1
  H+  H108  1  0.55343124  0.44152932  0.33723170  1
  H+  H109  1  0.51638321  0.68440748  0.24931901  1
  H+  H110  1  0.59311210  0.12519548  0.30872760  1
  H+  H111  1  0.78616448  0.90380276  0.59228389  1
  H+  H112  1  0.56129933  0.75479185  0.85273369  1
  H+  H113  1  0.22055082  0.42894063  0.89853623  1
  H+  H114  1  0.08902192  0.52913345  0.07963201  1
  H+  H115  1  0.48512096  0.50552806  0.23252311  1
  H+  H116  1  0.90835300  0.46256420  0.85489065  1
  H+  H117  1  0.57320229  0.79787392  0.37731669  1
  H+  H118  1  0.18489213  0.72392915  0.32271244  1
  H+  H119  1  0.77341418  0.17852914  0.64421097  1
  H+  H120  1  0.65467845  0.13750691  1.00676457  1
  H+  H121  1  0.81697380  0.57191540  0.63775279  1
  H+  H122  1  0.12829829  0.57327484  0.65061207  1
  H+  H123  1  0.94804051  0.46959865  0.97857936  1
  H+  H124  1  0.44299859  0.88176635  0.08678448  1
  H+  H125  1  0.89887812  0.10303611  0.88681381  1
  H+  H126  1  0.89948384  0.09208827  0.32701047  1
  H+  H127  1  0.11620371  0.21691937  0.14553045  1
  H+  H128  1  0.61240073  0.49073396  0.84035656  1
  H+  H129  1  0.83028853  0.18853520  0.07189144  1
  H+  H130  1  0.10421208  0.89353227  0.66475940  1
  H+  H131  1  0.67408088  0.50284042  0.74638163  1
  H+  H132  1  0.43765321  0.55267290  0.09690875  1
  H+  H133  1  0.70284255  0.50883620  0.23236654  1
  H+  H134  1  0.47857706  0.40073410  0.91596727  1
  H+  H135  1  0.48867617  0.00987384  0.77692606  1
  H+  H136  1  0.82001845  0.95310812  0.22449792  1
  H+  H137  1  0.18528545  0.14889848  0.25854094  1
  H+  H138  1  0.22518965  0.11627657  0.35280769  1
  H+  H139  1  0.22363077  0.43651611  0.34395254  1
  H+  H140  1  0.51361928  0.69676467  0.99234618  1
  H+  H141  1  0.44249109  0.21391982  0.15013069  1
  H+  H142  1  0.77534812  0.87634287  0.08666852  1
  H+  H143  1  0.77012378  0.23337338  0.64625002  1
  O2-  O144  1  0.11657817  0.21039967  0.21452618  1
  O2-  O145  1  0.13494522  0.25569010  0.79492688  1
  O2-  O146  1  0.11470607  0.53390712  0.19931316  1
  O2-  O147  1  0.13407682  0.58039724  0.71978871  1
  O2-  O148  1  0.14495941  0.90505146  0.21570661  1
  O2-  O149  1  0.11003115  0.89125961  0.73234568  1
  O2-  O150  1  0.44807307  0.21284759  0.21860768  1
  O2-  O151  1  0.45986414  0.23520165  0.75209936  1
  O2-  O152  1  0.44448204  0.54719598  0.21335363  1
  O2-  O153  1  0.42663111  0.52496298  0.72482019  1
  O2-  O154  1  0.45357537  0.88296652  0.20743531  1
  O2-  O155  1  0.44803161  0.88743591  0.75678024  1
  O2-  O156  1  0.81028526  0.22511503  0.19502274  1
  O2-  O157  1  0.74211953  0.18682155  0.82491202  1
  O2-  O158  1  0.78211477  0.54819887  0.20624315  1
  O2-  O159  1  0.81304943  0.57238508  0.70859078  1
  O2-  O160  1  0.78133477  0.87107726  0.20426463  1
  O2-  O161  1  0.78273743  0.90682036  0.70500121  1
  O2-  O162  1  0.22539327  0.10897341  0.28534636  1
  O2-  O163  1  0.21443290  0.10838516  0.75417775  1
  O2-  O164  1  0.22537170  0.43157443  0.27632075  1
  O2-  O165  1  0.17212145  0.37638365  0.77781508  1
  O2-  O166  1  0.22417332  0.76625549  0.26806808  1
  O2-  O167  1  0.22185671  0.77884717  0.78761330  1
  O2-  O168  1  0.57354852  0.11221118  0.24401844  1
  O2-  O169  1  0.52175196  0.09385092  0.79966955  1
  O2-  O170  1  0.56132247  0.44116921  0.26913494  1
  O2-  O171  1  0.59729794  0.46546772  0.77685114  1
  O2-  O172  1  0.56112982  0.76738114  0.26736929  1
  O2-  O173  1  0.55732141  0.74950419  0.78434730  1
  O2-  O174  1  0.89360155  0.09320588  0.25909860  1
  O2-  O175  1  0.90783980  0.10844942  0.81687076  1
  O2-  O176  1  0.90184616  0.44295590  0.26484893  1
  O2-  O177  1  0.93293116  0.47702139  0.78239758  1
  O2-  O178  1  0.89287878  0.77227847  0.27546828  1
  O2-  O179  1  0.89999876  0.77143705  0.77601792  1
  O2-  O180  1  0.23163602  0.12231813  0.47659087  1
  O2-  O181  1  0.21364837  0.11138914  0.98225884  1
  O2-  O182  1  0.22865037  0.44299870  0.46326876  1
  O2-  O183  1  0.23849085  0.43987280  0.96382437  1
  O2-  O184  1  0.26260160  0.79258627  0.46549073  1
  O2-  O185  1  0.21779232  0.77143248  0.96381831  1
  O2-  O186  1  0.57474589  0.09698200  0.43886070  1
  O2-  O187  1  0.57634391  0.11949858  0.99302630  1
  O2-  O188  1  0.53342978  0.44411811  0.44947630  1
  O2-  O189  1  0.52958500  0.43874749  0.96720874  1
  O2-  O190  1  0.58362370  0.82690208  0.44180456  1
  O2-  O191  1  0.55240160  0.77524057  0.96510267  1
  O2-  O192  1  0.91253831  0.10259816  0.44141256  1
  O2-  O193  1  0.88231369  0.10551117  0.99290259  1
  O2-  O194  1  0.92543638  0.46433520  0.44849219  1
  O2-  O195  1  0.87225114  0.43519610  0.94346845  1
  O2-  O196  1  0.89120638  0.78521201  0.46411610  1
  O2-  O197  1  0.86873938  0.77226516  0.94683048  1
  O2-  O198  1  0.10742563  0.22559453  0.03742765  1
  O2-  O199  1  0.11990993  0.21829990  0.53234725  1
  O2-  O200  1  0.07203719  0.53670312  0.01538409  1
  O2-  O201  1  0.12409154  0.56208453  0.53970415  1
  O2-  O202  1  0.08279354  0.86668605  0.01504343  1
  O2-  O203  1  0.09089224  0.88261399  0.54555185  1
  O2-  O204  1  0.44815443  0.21640688  0.03833695  1
  O2-  O205  1  0.42413667  0.24635215  0.57111328  1
  O2-  O206  1  0.44283657  0.55762352  0.02900207  1
  O2-  O207  1  0.43872415  0.55842612  0.54567036  1
  O2-  O208  1  0.43890096  0.88415974  0.01932297  1
  O2-  O209  1  0.45133030  0.85432381  0.57826865  1
  O2-  O210  1  0.81435939  0.16410426  0.00743716  1
  O2-  O211  1  0.80751217  0.23150712  0.46737904  1
  O2-  O212  1  0.76661388  0.55674048  0.01817838  1
  O2-  O213  1  0.81702424  0.57068625  0.53555536  1
  O2-  O214  1  0.77331512  0.88414701  0.01914922  1
  O2-  O215  1  0.78930294  0.89930327  0.52385876  1
