# generated using pymatgen
data_H2O
_symmetry_space_group_name_H-M   'P 1'
_cell_length_a   13.53898609
_cell_length_b   13.53689960
_cell_length_c   14.71228652
_cell_angle_alpha   90.03480856
_cell_angle_beta   90.01075915
_cell_angle_gamma   120.09468188
_symmetry_Int_Tables_number   1
_chemical_formula_structural   H2O
_chemical_formula_sum   'H144 O72'
_cell_volume   2332.92546558
_cell_formula_units_Z   72
loop_
 _symmetry_equiv_pos_site_id
 _symmetry_equiv_pos_as_xyz
  1  'x, y, z'
loop_
 _atom_type_symbol
 _atom_type_oxidation_number
  H+  1.0
  O2-  -2.0
loop_
 _atom_site_type_symbol
 _atom_site_label
 _atom_site_symmetry_multiplicity
 _atom_site_fract_x
 _atom_site_fract_y
 _atom_site_fract_z
 _atom_site_occupancy
  H+  H0  1  0.49769038  0.96374425  0.33081150  1
  H+  H1  1  0.02136443  0.14997175  0.72632912  1
  H+  H2  1  0.15156081  1.01348885  0.48593598  1
  H+  H3  1  0.98123000  0.90526502  0.44874933  1
  H+  H4  1  0.48570666  0.50531670  0.25718849  1
  H+  H5  1  0.85728473  0.81006595  0.98009364  1
  H+  H6  1  0.03729302  0.52275596  0.24936998  1
  H+  H7  1  0.19543157  0.02016044  0.74832772  1
  H+  H8  1  0.82454623  0.52020283  0.50538555  1
  H+  H9  1  0.03090023  0.84557739  0.73661369  1
  H+  H10  1  0.19347672  0.23856231  0.05233305  1
  H+  H11  1  0.52055324  0.48694989  0.75910160  1
  H+  H12  1  0.51394252  0.99814935  0.72266377  1
  H+  H13  1  0.84974373  0.01738967  0.25767483  1
  H+  H14  1  0.84320436  0.69261556  0.25650993  1
  H+  H15  1  0.95844518  0.47289906  0.47942496  1
  H+  H16  1  0.70268902  0.52934159  0.24689132  1
  H+  H17  1  0.85474417  0.82054062  0.74870071  1
  H+  H18  1  0.18571982  0.49062569  0.49134655  1
  H+  H19  1  0.51833582  0.37005918  0.98670196  1
  H+  H20  1  0.88336757  0.45470088  0.91535386  1
  H+  H21  1  0.51221913  0.69235952  0.25872545  1
  H+  H22  1  0.12549151  0.32394647  0.50537971  1
  H+  H23  1  0.52429760  0.52536657  0.01743927  1
  H+  H24  1  0.73985774  0.18144717  0.08972165  1
  H+  H25  1  0.77533312  0.55477988  0.15360829  1
  H+  H26  1  0.81400214  0.62472565  0.00956109  1
  H+  H27  1  0.83184844  0.64190907  0.50514888  1
  H+  H28  1  0.80758042  0.50236202  1.01694091  1
  H+  H29  1  0.36678549  0.18358720  0.99400492  1
  H+  H30  1  0.53040396  0.16303109  0.74779229  1
  H+  H31  1  0.81786821  0.17585246  1.00839596  1
  H+  H32  1  0.50910260  0.05040217  0.98140217  1
  H+  H33  1  0.49756540  0.20037549  0.49100671  1
  H+  H34  1  0.85178971  0.14922418  0.74036914  1
  H+  H35  1  0.48452467  0.50933055  0.52471424  1
  H+  H36  1  0.49042157  0.19741226  -0.00474073  1
  H+  H37  1  0.70145333  0.84671661  0.72526795  1
  H+  H38  1  0.39559880  0.88736197  0.70111560  1
  H+  H39  1  0.28506351  0.12987313  0.24976162  1
  H+  H40  1  0.27936871  0.78914473  0.79677726  1
  H+  H41  1  0.01677815  0.83156902  -0.00797995  1
  H+  H42  1  0.63811324  0.15493793  0.97854406  1
  H+  H43  1  0.56563249  0.13406070  0.14429516  1
  H+  H44  1  0.71313442  0.18294394  0.73476544  1
  H+  H45  1  0.17012620  0.11063760  0.96034307  1
  H+  H46  1  0.50692273  0.83770428  0.48244377  1
  H+  H47  1  0.38351719  0.18804361  0.73316072  1
  H+  H48  1  0.19190400  0.13577638  0.75406695  1
  H+  H49  1  0.14421180  0.94634533  -0.00878332  1
  H+  H50  1  0.18893295  0.48288968  0.26567050  1
  H+  H51  1  0.55528993  0.81093645  0.98450822  1
  H+  H52  1  0.19600242  0.35754272  0.76594531  1
  H+  H53  1  0.54507940  0.69101443  0.98003115  1
  H+  H54  1  0.52430729  0.36982255  0.49358599  1
  H+  H55  1  0.17762812  0.74008638  0.86242113  1
  H+  H56  1  0.18607365  0.38150294  1.00184432  1
  H+  H57  1  0.48185299  0.21078338  0.23564816  1
  H+  H58  1  0.30451263  0.47674530  0.26562220  1
  H+  H59  1  0.31093892  0.47872272  0.76647503  1
  H+  H60  1  0.79372152  -0.11017930  1.08985781  1
  H+  H61  1  0.49858900  0.31037511  0.73700786  1
  H+  H62  1  0.72753398  0.85307290  0.99492656  1
  H+  H63  1  0.36869402  0.83849760  0.50245611  1
  H+  H64  1  0.81150316  0.29706443  0.50923702  1
  H+  H65  1  0.70294508  0.52373113  0.73641889  1
  H+  H66  1  0.80700575  0.17754207  0.49904696  1
  H+  H67  1  0.26607942  0.79799037  0.99814009  1
  H+  H68  1  0.45003778  0.54218954  0.16595387  1
  H+  H69  1  0.99133102  0.17635368  0.99132328  1
  H+  H70  1  0.57019272  0.45902863  0.36758058  1
  H+  H71  1  0.33060227  0.86267602  0.27145483  1
  H+  H72  1  0.47019803  0.90841553  0.57646665  1
  H+  H73  1  0.52766041  0.82739958  0.74162580  1
  H+  H74  1  0.09775077  0.14451649  0.64623573  1
  H+  H75  1  -0.02596426  0.49846333  0.77151353  1
  H+  H76  1  0.85185665  0.70048161  0.74940783  1
  H+  H77  1  0.48047767  0.62920795  0.73999165  1
  H+  H78  1  0.55489803  0.78332818  0.38957661  1
  H+  H79  1  0.51983176  0.81717039  0.25972056  1
  H+  H80  1  0.19041151  0.79889289  0.50002892  1
  H+  H81  1  0.84064352  1.02436415  0.48143275  1
  H+  H82  1  0.44892356  0.86994542  0.00860948  1
  H+  H83  1  0.64368272  0.48354290  0.99093049  1
  H+  H84  1  0.14263970  0.83413374  0.74503376  1
  H+  H85  1  0.43848381  0.54139345  0.65661756  1
  H+  H86  1  0.14325591  0.61967169  0.51040943  1
  H+  H87  1  0.14535711  0.79020092  0.99565208  1
  H+  H88  1  0.57928300  0.38523032  0.28874115  1
  H+  H89  1  0.95262187  0.15591341  0.48311176  1
  H+  H90  1  0.13700559  0.84500179  0.21916250  1
  H+  H91  1  0.58844341  0.62743466  0.08526974  1
  H+  H92  1  0.36593886  0.50808200  0.52381294  1
  H+  H93  1  0.15123465  0.64034000  0.24803446  1
  H+  H94  1  0.14864181  0.61248176  0.73677317  1
  H+  H95  1  0.16128164  1.02191364  0.24252568  1
  H+  H96  1  0.64193821  0.49248268  0.49758133  1
  H+  H97  1  0.04485215  0.82344455  0.51231355  1
  H+  H98  1  0.14688421  0.29771640  0.26407540  1
  H+  H99  1  0.80901900  0.84920658  0.49621728  1
  H+  H100  1  -0.02618493  0.14399030  0.26564188  1
  H+  H101  1  0.81716054  0.84441079  0.23667052  1
  H+  H102  1  0.82806256  0.35626653  -0.00776142  1
  H+  H103  1  0.63463195  0.16031141  0.46937915  1
  H+  H104  1  0.63387156  0.82454988  0.48296955  1
  H+  H105  1  0.70104788  0.84887333  0.23371983  1
  H+  H106  1  0.95874873  0.81277242  0.24774766  1
  H+  H107  1  0.16097017  0.50364448  1.00541798  1
  H+  H108  1  0.15075583  0.06959967  0.39334913  1
  H+  H109  1  0.11825186  0.86469353  0.60387142  1
  H+  H110  1  0.88826662  0.76683277  0.88824696  1
  H+  H111  1  0.78883002  0.44006060  0.26205585  1
  H+  H112  1  0.15458758  0.49825670  0.73635607  1
  H+  H113  1  0.23125297  0.45063938  0.40628235  1
  H+  H114  1  0.56383923  0.78241261  0.82985685  1
  H+  H115  1  0.64467432  0.19889332  0.22818230  1
  H+  H116  1  0.13682036  0.62327135  0.01609066  1
  H+  H117  1  0.90004829  0.79719658  0.38927248  1
  H+  H118  1  0.06681106  0.25991472  0.59714673  1
  H+  H119  1  0.24650408  0.88972491  0.32200865  1
  H+  H120  1  0.22935300  0.76263203  0.40892507  1
  H+  H121  1  0.76813718  0.88248441  0.58785079  1
  H+  H122  1  0.85552239  0.41922537  0.40276292  1
  H+  H123  1  0.81940397  0.96633229  0.72456474  1
  H+  H124  1  0.88374549  0.09688271  0.35955675  1
  H+  H125  1  0.46502685  0.23278428  0.58683876  1
  H+  H126  1  0.89856421  0.11565174  0.82955180  1
  H+  H127  1  0.78354513  0.21636135  0.64317823  1
  H+  H128  1  0.14691784  0.17720335  0.25187544  1
  H+  H129  1  0.56261713  0.11768417  0.83726830  1
  H+  H130  1  0.78389046  0.56259984  0.64789984  1
  H+  H131  1  0.09875581  0.53362445  0.59456840  1
  H+  H132  1  0.87144329  0.52372232  0.77207021  1
  H+  H133  1  0.56617787  0.45043580  0.84548582  1
  H+  H134  1  0.21402218  0.44722601  0.90391606  1
  H+  H135  1  0.09109608  0.87762093  0.13122414  1
  H+  H136  1  0.11711296  0.24546281  0.12821613  1
  H+  H137  1  0.23251667  0.08840592  0.88004770  1
  H+  H138  1  0.42801942  0.19730374  0.13735352  1
  H+  H139  1  0.42306844  0.90848195  0.09993603  1
  H+  H140  1  0.53627175  1.00582899  0.23254626  1
  H+  H141  1  0.60680570  0.20302778  0.37920219  1
  H+  H142  1  0.88366948  0.05213343  0.98757977  1
  H+  H143  1  0.11360712  0.54456311  0.10718710  1
  O2-  O144  1  0.10365551  0.21873498  0.23710404  1
  O2-  O145  1  0.10331702  0.18064236  0.70507388  1
  O2-  O146  1  0.11547740  0.56137908  0.22595989  1
  O2-  O147  1  0.11389759  0.53549414  0.70955025  1
  O2-  O148  1  0.09225135  0.88034802  0.19975882  1
  O2-  O149  1  0.11324476  0.88093688  0.71657069  1
  O2-  O150  1  0.41423648  0.16202186  0.19894846  1
  O2-  O151  1  0.46423834  0.23041616  0.71303815  1
  O2-  O152  1  0.44375981  0.54346629  0.23309824  1
  O2-  O153  1  0.43991165  0.54603392  0.72706120  1
  O2-  O154  1  0.48211247  0.93391094  0.26822167  1
  O2-  O155  1  0.47725868  0.91834957  0.69294887  1
  O2-  O156  1  0.65470007  0.29153565  0.28636673  1
  O2-  O157  1  0.79137504  0.21375303  0.71056581  1
  O2-  O158  1  0.78170860  0.56005973  0.22182924  1
  O2-  O159  1  0.78408538  0.56813186  0.71544271  1
  O2-  O160  1  0.78217267  0.89041229  0.21304655  1
  O2-  O161  1  0.78148695  0.88585715  0.70136443  1
  O2-  O162  1  0.20461585  0.09871181  0.27124785  1
  O2-  O163  1  0.23780615  0.10012288  0.77318190  1
  O2-  O164  1  0.22359249  0.43845685  0.28821682  1
  O2-  O165  1  0.22851509  0.43555583  0.78941260  1
  O2-  O166  1  0.24808542  0.82786847  0.28864483  1
  O2-  O167  1  0.19631606  0.75142987  0.79580124  1
  O2-  O168  1  0.62200077  0.12845507  0.18208331  1
  O2-  O169  1  0.56595627  0.11703274  0.76966249  1
  O2-  O170  1  0.57272884  0.45441400  0.29801752  1
  O2-  O171  1  0.56475218  0.44880846  0.77776037  1
  O2-  O172  1  0.55872692  0.77446243  0.27734484  1
  O2-  O173  1  0.56154011  0.78108984  0.76250790  1
  O2-  O174  1  0.89005180  0.09746220  0.28545071  1
  O2-  O175  1  0.89307545  0.10632455  0.76289526  1
  O2-  O176  1  0.78190076  0.37078309  0.29188002  1
  O2-  O177  1  0.92371187  0.51163847  0.81156195  1
  O2-  O178  1  0.88099907  0.77571055  0.27557940  1
  O2-  O179  1  0.89529476  0.78176886  0.77348758  1
  O2-  O180  1  0.10727096  0.03923769  0.45034066  1
  O2-  O181  1  0.22477413  0.08494618  0.94955243  1
  O2-  O182  1  0.22840428  0.45066236  0.47379972  1
  O2-  O183  1  0.21453991  0.45719189  0.97184508  1
  O2-  O184  1  0.23244462  0.75924534  0.47570046  1
  O2-  O185  1  0.18660865  0.74719108  0.97761494  1
  O2-  O186  1  0.57013893  0.14354362  0.42800499  1
  O2-  O187  1  0.55774254  0.12711826  0.95577422  1
  O2-  O188  1  0.56251222  0.45415874  0.47424096  1
  O2-  O189  1  0.56343313  0.45095266  0.96534437  1
  O2-  O190  1  0.55337613  0.79129326  0.45769282  1
  O2-  O191  1  0.58059096  0.76766060  0.94840826  1
  O2-  O192  1  0.87631064  0.10160503  0.45226628  1
  O2-  O193  1  0.91446164  0.13093357  0.96444855  1
  O2-  O194  1  0.87449599  0.43611043  0.46831050  1
  O2-  O195  1  0.86559290  0.43906466  0.98168744  1
  O2-  O196  1  0.91761551  0.82376477  0.45417121  1
  O2-  O197  1  0.89047862  0.76381879  0.95662963  1
  O2-  O198  1  0.13167606  0.25506185  0.06005570  1
  O2-  O199  1  0.06046970  0.25145688  0.53128288  1
  O2-  O200  1  0.11227703  0.54329384  0.03953191  1
  O2-  O201  1  0.09671552  0.53726812  0.52638479  1
  O2-  O202  1  0.09696121  0.86971909  0.01975414  1
  O2-  O203  1  0.12337681  0.85760188  0.53625747  1
  O2-  O204  1  0.44405993  0.22989845  0.02081734  1
  O2-  O205  1  0.46098654  0.24055812  0.52036413  1
  O2-  O206  1  0.51532906  0.58589324  0.05349802  1
  O2-  O207  1  0.44221522  0.54417636  0.55289288  1
  O2-  O208  1  0.40947292  0.90697910  0.03447921  1
  O2-  O209  1  0.45401255  0.88750945  0.51066788  1
  O2-  O210  1  0.76483225  0.20341030  0.02605730  1
  O2-  O211  1  0.76910821  0.21537035  0.52849191  1
  O2-  O212  1  0.76931338  0.54850797  0.03849963  1
  O2-  O213  1  0.78899294  0.56468965  0.52992652  1
  O2-  O214  1  0.80456307  0.89480528  0.02263029  1
  O2-  O215  1  0.76380462  0.88394139  0.51929532  1
