# generated using pymatgen
data_H2O
_symmetry_space_group_name_H-M   'P 1'
_cell_length_a   13.49295912
_cell_length_b   13.50030571
_cell_length_c   14.70702458
_cell_angle_alpha   89.95866433
_cell_angle_beta   90.00477245
_cell_angle_gamma   119.96760680
_symmetry_Int_Tables_number   1
_chemical_formula_structural   H2O
_chemical_formula_sum   'H144 O72'
_cell_volume   2320.85383734
_cell_formula_units_Z   72
loop_
 _symmetry_equiv_pos_site_id
 _symmetry_equiv_pos_as_xyz
  1  'x, y, z'
loop_
 _atom_type_symbol
 _atom_type_oxidation_number
  H+  1.0
  O2-  -2.0
loop_
 _atom_site_type_symbol
 _atom_site_label
 _atom_site_symmetry_multiplicity
 _atom_site_fract_x
 _atom_site_fract_y
 _atom_site_fract_z
 _atom_site_occupancy
  H+  H0  1  0.17843121  0.81012972  0.25361575  1
  H+  H1  1  0.02941307  0.52560657  0.50975862  1
  H+  H2  1  0.15209393  0.29768686  0.00654606  1
  H+  H3  1  0.52509279  0.37694839  0.26140939  1
  H+  H4  1  0.14421330  0.95993490  0.00957132  1
  H+  H5  1  0.97795229  0.15110186  0.98982243  1
  H+  H6  1  0.29398789  0.14146079  0.98728581  1
  H+  H7  1  0.52162241  0.36397878  -0.00651176  1
  H+  H8  1  0.35925721  0.84901945  1.00197104  1
  H+  H9  1  0.16747686  0.30792197  0.24438615  1
  H+  H10  1  0.18528436  0.69472604  0.25118223  1
  H+  H11  1  0.96361741  0.81219996  0.98778431  1
  H+  H12  1  0.79685072  0.29459897  0.49903674  1
  H+  H13  1  0.14366257  0.84131765  0.00901635  1
  H+  H14  1  0.88334949  0.43537341  0.58888720  1
  H+  H15  1  0.48203553  0.14270188  0.48217063  1
  H+  H16  1  0.36211242  0.51728163  0.50762032  1
  H+  H17  1  0.84076687  0.80604927  -0.02538815  1
  H+  H18  1  0.04926752  0.53403000  0.72976630  1
  H+  H19  1  0.81762027  -0.02478116  0.24827948  1
  H+  H20  1  0.33399029  0.17784445  0.45489977  1
  H+  H21  1  0.68606275  0.83433570  -0.02063231  1
  H+  H22  1  0.50258968  0.52825669  0.22355740  1
  H+  H23  1  1.04321453  0.19518964  0.24980785  1
  H+  H24  1  0.49861767  0.64825162  0.21821224  1
  H+  H25  1  0.50580602  0.02214789  0.98249461  1
  H+  H26  1  0.82039890  0.96609285  0.51961364  1
  H+  H27  1  0.33688192  0.17990733  0.25197534  1
  H+  H28  1  0.47685980  0.17180475  1.00100843  1
  H+  H29  1  0.62543696  0.14189717  0.96974772  1
  H+  H30  1  0.35898627  0.84728446  0.51089269  1
  H+  H31  1  0.86146678  0.16357496  0.29142751  1
  H+  H32  1  0.50434409  0.37125458  0.48071274  1
  H+  H33  1  0.76884801  0.56068400  0.59905522  1
  H+  H34  1  0.97727116  0.48685155  0.97702536  1
  H+  H35  1  0.48063838  0.50566477  0.73860814  1
  H+  H36  1  0.47816327  -0.02621063  0.74112557  1
  H+  H37  1  0.82674171  0.63940630  0.74049035  1
  H+  H38  1  0.85142124  0.81997073  0.49061142  1
  H+  H39  1  0.64661311  0.49252170  0.76958942  1
  H+  H40  1  0.40147881  0.61528554  0.77254979  1
  H+  H41  1  0.15872862  0.97215852  0.73306641  1
  H+  H42  1  0.14323703  0.95770130  0.24429342  1
  H+  H43  1  0.64329627  0.48222462  -0.00351477  1
  H+  H44  1  0.18018537  0.69326471  0.98354843  1
  H+  H45  1  0.16659762  0.02884677  0.43270217  1
  H+  H46  1  0.35726168  0.84162641  0.23110107  1
  H+  H47  1  0.48202970  0.63851812  0.51358540  1
  H+  H48  1  0.16696633  0.36187052  0.51702111  1
  H+  H49  1  0.79372446  0.55624380  0.09170222  1
  H+  H50  1  -0.03419284  0.15489714  0.51461081  1
  H+  H51  1  0.27291815  0.52154758  0.84812072  1
  H+  H52  1  0.51902051  0.09225214  0.35192382  1
  H+  H53  1  0.70569494  0.18263413  0.76104514  1
  H+  H54  1  0.33510536  0.50006548  0.23396832  1
  H+  H55  1  0.62904355  0.81025512  0.50936054  1
  H+  H56  1  0.18608582  0.81841464  0.74612559  1
  H+  H57  1  0.88101303  0.40309624  0.31299871  1
  H+  H58  1  0.47352985  -0.03496801  0.51310762  1
  H+  H59  1  0.18155063  0.71112303  0.48232376  1
  H+  H60  1  0.70032899  0.82289353  0.75020329  1
  H+  H61  1  0.85972532  0.15506755  -0.02675024  1
  H+  H62  1  0.63256209  0.81554821  0.24215032  1
  H+  H63  1  0.50948510  0.80620296  0.23529226  1
  H+  H64  1  0.78424983  0.25310837  0.23396327  1
  H+  H65  1  0.17560863  0.14171354  0.99018692  1
  H+  H66  1  0.53531043  0.17068680  0.75914171  1
  H+  H67  1  0.43929051  0.53778212  0.64635404  1
  H+  H68  1  0.50595401  0.81248291  -0.01736180  1
  H+  H69  1  0.04895366  0.52098751  0.23754023  1
  H+  H70  1  0.68937456  0.17932580  0.30212635  1
  H+  H71  1  0.82266294  0.30677460  -0.04233679  1
  H+  H72  1  0.11893424  0.90086570  0.64048743  1
  H+  H73  1  0.14208630  0.19345089  0.54217476  1
  H+  H74  1  0.15659179  0.86847536  0.49063196  1
  H+  H75  1  0.15212498  0.51128232  -0.00065662  1
  H+  H76  1  0.82510026  0.83481454  0.75120066  1
  H+  H77  1  0.82264182  0.63229844  0.00125206  1
  H+  H78  1  0.85199257  0.70252658  0.48892871  1
  H+  H79  1  0.30446177  0.47598454  0.97832632  1
  H+  H80  1  0.21868630  0.10284402  0.84959579  1
  H+  H81  1  0.97839936  0.82040554  0.75565848  1
  H+  H82  1  0.16838966  0.52147219  0.22370530  1
  H+  H83  1  0.03555876  0.86286469  0.49432757  1
  H+  H84  1  0.77986817  0.22815293  0.04161518  1
  H+  H85  1  0.17474978  0.67398376  0.73338308  1
  H+  H86  1  0.60509547  0.14933230  0.47383637  1
  H+  H87  1  0.49957187  0.32251509  0.76368422  1
  H+  H88  1  0.14589333  0.52166296  0.50381890  1
  H+  H89  1  0.80564481  -0.05189109  0.99790667  1
  H+  H90  1  0.69027692  0.51881214  0.50882682  1
  H+  H91  1  0.16828344  0.31582459  0.77398170  1
  H+  H92  1  -0.03657958  0.81496322  0.25633106  1
  H+  H93  1  0.50499649  0.69346285  0.98291567  1
  H+  H94  1  0.16699142  0.14154352  0.28474314  1
  H+  H95  1  0.83523228  0.48311529  0.51554233  1
  H+  H96  1  0.87698959  0.37470750  0.75892993  1
  H+  H97  1  0.43835099  0.89195483  0.65447814  1
  H+  H98  1  0.30615966  0.15419356  0.76671777  1
  H+  H99  1  0.83648762  0.12538766  0.77891999  1
  H+  H100  1  0.83241638  -0.00282905  0.77431620  1
  H+  H101  1  0.51183305  0.81293229  0.51054888  1
  H+  H102  1  0.82664273  0.52134972  0.73565401  1
  H+  H103  1  0.48444389  0.51332064  -0.00184464  1
  H+  H104  1  0.50770807  0.14102368  0.25624524  1
  H+  H105  1  0.84561825  0.14487454  0.48863325  1
  H+  H106  1  0.56865914  0.45552296  0.86112142  1
  H+  H107  1  0.51020155  0.49219361  0.48680180  1
  H+  H108  1  0.12507199  0.57976859  0.63492454  1
  H+  H109  1  0.81430535  0.85693487  0.24122582  1
  H+  H110  1  0.18314669  0.40462433  0.41688883  1
  H+  H111  1  0.44384323  0.55257705  0.08539163  1
  H+  H112  1  0.88408307  0.77548861  0.34438647  1
  H+  H113  1  0.82861428  0.64019841  0.23608756  1
  H+  H114  1  0.42933647  0.69548293  0.85880118  1
  H+  H115  1  0.85880357  0.48951211  0.97551055  1
  H+  H116  1  0.56681967  0.46050289  0.34606393  1
  H+  H117  1  0.11442147  0.22319111  0.09899713  1
  H+  H118  1  0.80199767  0.21158968  0.68513892  1
  H+  H119  1  0.16539570  0.19808034  0.75676430  1
  H+  H120  1  0.43870312  0.88929011  0.09088615  1
  H+  H121  1  0.86658322  0.26332142  0.13670999  1
  H+  H122  1  0.27826261  0.50637815  0.32414965  1
  H+  H123  1  0.36734231  0.27921409  0.18556149  1
  H+  H124  1  0.88955885  0.08915602  0.87002144  1
  H+  H125  1  0.31003251  0.82245138  0.75205725  1
  H+  H126  1  0.21836090  0.77366115  0.89619886  1
  H+  H127  1  0.85817895  0.31520612  0.13538971  1
  H+  H128  1  0.91525703  0.46486828  0.83729420  1
  H+  H129  1  0.43316683  0.20814234  0.08967041  1
  H+  H130  1  0.10773137  0.88549718  0.15084434  1
  H+  H131  1  0.91232055  0.11464440  0.36148303  1
  H+  H132  1  0.36267996  0.18938787  0.55722786  1
  H+  H133  1  0.78451126  0.88405400  0.60638690  1
  H+  H134  1  0.22655789  0.78576067  0.39245549  1
  H+  H135  1  0.88093303  0.50898300  0.26729247  1
  H+  H136  1  0.55639442  0.11269347  0.84524708  1
  H+  H137  1  0.90053600  0.77633141  0.84832512  1
  H+  H138  1  0.46782816  0.25600880  0.67168996  1
  H+  H139  1  0.11462238  0.23999846  0.63360331  1
  H+  H140  1  0.11341915  0.55155693  0.08836180  1
  H+  H141  1  0.72686866  0.19183730  0.56535639  1
  H+  H142  1  0.47596444  0.95850146  0.23431881  1
  H+  H143  1  0.71672859  0.51923548  0.23291164  1
  O2-  O144  1  0.12397021  0.22611573  0.22698914  1
  O2-  O145  1  0.13083660  0.24499108  0.73791230  1
  O2-  O146  1  0.12429059  0.55847022  0.20378431  1
  O2-  O147  1  0.12877747  0.58284022  0.70405676  1
  O2-  O148  1  0.10613013  0.87972480  0.21901430  1
  O2-  O149  1  0.11857304  0.89251146  0.70764631  1
  O2-  O150  1  0.40038314  0.23553478  0.21177648  1
  O2-  O151  1  0.45900197  0.24130017  0.73683960  1
  O2-  O152  1  0.45814875  0.56155343  0.19659252  1
  O2-  O153  1  0.42537619  0.52543095  0.71267120  1
  O2-  O154  1  0.43654605  0.88217912  0.20504120  1
  O2-  O155  1  0.43290462  0.89304285  0.72223693  1
  O2-  O156  1  0.77402868  0.23000543  0.29793321  1
  O2-  O157  1  0.79232102  0.21493959  0.75057842  1
  O2-  O158  1  0.79687598  0.56043552  0.21086677  1
  O2-  O159  1  0.78240980  0.55879092  0.71736386  1
  O2-  O160  1  0.77351341  0.89760015  0.22297630  1
  O2-  O161  1  0.77953654  0.87376552  0.73197614  1
  O2-  O162  1  0.20534240  0.09759618  0.30725817  1
  O2-  O163  1  0.22349829  0.10823927  0.78144703  1
  O2-  O164  1  0.25643007  0.46507831  0.26646617  1
  O2-  O165  1  0.21385737  0.43712111  0.86337188  1
  O2-  O166  1  0.22293435  0.77418074  0.27648137  1
  O2-  O167  1  0.22284715  0.77445775  0.76912827  1
  O2-  O168  1  0.53881717  0.09732656  0.28516382  1
  O2-  O169  1  0.57278920  0.12613941  0.77802188  1
  O2-  O170  1  0.57128601  0.45817842  0.27817227  1
  O2-  O171  1  0.56653766  0.45132663  0.79279873  1
  O2-  O172  1  0.54855002  0.76369781  0.25345902  1
  O2-  O173  1  0.36664643  0.64526522  0.81736866  1
  O2-  O174  1  0.91009200  0.12755155  0.29503934  1
  O2-  O175  1  0.87456094  0.07999834  0.79725861  1
  O2-  O176  1  0.93084435  0.48392001  0.29773182  1
  O2-  O177  1  0.91532733  0.45843055  0.76844033  1
  O2-  O178  1  0.88213932  0.77340291  0.27664104  1
  O2-  O179  1  0.89818197  0.77770794  0.77900760  1
  O2-  O180  1  0.20254278  0.10951024  0.40701129  1
  O2-  O181  1  0.21281044  0.09920100  0.96598762  1
  O2-  O182  1  0.20160392  0.43395205  0.47891533  1
  O2-  O183  1  0.21897746  0.43398586  0.96324965  1
  O2-  O184  1  0.22451355  0.79147950  0.46047963  1
  O2-  O185  1  0.21716179  0.77500352  0.96349449  1
  O2-  O186  1  0.52159833  0.10071883  0.46254993  1
  O2-  O187  1  0.54215729  0.10291185  0.95692703  1
  O2-  O188  1  0.55295978  0.45247853  0.46418331  1
  O2-  O189  1  0.56232871  0.44538329  0.97399927  1
  O2-  O190  1  0.54750101  0.76730251  0.49194085  1
  O2-  O191  1  0.53970446  0.76981207  0.95305318  1
  O2-  O192  1  0.89251665  0.10788117  0.48124603  1
  O2-  O193  1  0.89840646  0.10926562  0.96278722  1
  O2-  O194  1  0.87690805  0.43793562  0.52285556  1
  O2-  O195  1  0.89938127  0.45132154  0.94759910  1
  O2-  O196  1  0.89315838  0.78214604  0.46523019  1
  O2-  O197  1  0.88745074  0.76793215  0.95765504  1
  O2-  O198  1  0.11015338  0.21774902  0.03152961  1
  O2-  O199  1  0.10276500  0.23305905  0.56385263  1
  O2-  O200  1  0.11121386  0.55156941  0.02001148  1
  O2-  O201  1  0.11234435  0.56913681  0.52487413  1
  O2-  O202  1  0.10333995  0.88037110  0.03433618  1
  O2-  O203  1  0.11894112  0.91334088  0.50871519  1
  O2-  O204  1  0.43708140  0.21362211  0.02280083  1
  O2-  O205  1  0.40088657  0.21030856  0.49824536  1
  O2-  O206  1  0.43695757  0.54745243  0.01700615  1
  O2-  O207  1  0.44229337  0.55210546  0.52755886  1
  O2-  O208  1  0.44072620  0.89154645  0.02244266  1
  O2-  O209  1  0.43725080  0.88643390  0.53827268  1
  O2-  O210  1  0.77985562  0.22301350  -0.02478914  1
  O2-  O211  1  0.75038973  0.20867261  0.50204215  1
  O2-  O212  1  0.78705218  0.55126561  0.02365657  1
  O2-  O213  1  0.77129635  0.55732127  0.53120057  1
  O2-  O214  1  0.76812401  0.86466619  -0.00529182  1
  O2-  O215  1  0.78208188  0.88448641  0.53921248  1
