# generated using pymatgen
data_H2O
_symmetry_space_group_name_H-M   'P 1'
_cell_length_a   13.50900526
_cell_length_b   13.51830656
_cell_length_c   14.68104284
_cell_angle_alpha   90.01682548
_cell_angle_beta   90.05130229
_cell_angle_gamma   120.00413754
_symmetry_Int_Tables_number   1
_chemical_formula_structural   H2O
_chemical_formula_sum   'H144 O72'
_cell_volume   2321.74627588
_cell_formula_units_Z   72
loop_
 _symmetry_equiv_pos_site_id
 _symmetry_equiv_pos_as_xyz
  1  'x, y, z'
loop_
 _atom_type_symbol
 _atom_type_oxidation_number
  H+  1.0
  O2-  -2.0
loop_
 _atom_site_type_symbol
 _atom_site_label
 _atom_site_symmetry_multiplicity
 _atom_site_fract_x
 _atom_site_fract_y
 _atom_site_fract_z
 _atom_site_occupancy
  H+  H0  1  0.46780368  0.49542255  1.00053868  1
  H+  H1  1  0.89420483  0.12379623  0.26038158  1
  H+  H2  1  0.35638026  0.51561287  0.51205804  1
  H+  H3  1  0.17565064  0.55440437  0.21421897  1
  H+  H4  1  0.18033970  0.69977408  -0.01283769  1
  H+  H5  1  0.30209335  0.15691133  0.75648172  1
  H+  H6  1  0.68739709  0.83582486  0.50303601  1
  H+  H7  1  0.19487543  0.16331115  0.49478000  1
  H+  H8  1  0.33825076  0.49846893  1.00270248  1
  H+  H9  1  0.10938943  0.22763288  0.65617566  1
  H+  H10  1  0.15887907  0.18950806  0.99674231  1
  H+  H11  1  0.18280788  0.36335279  0.98847489  1
  H+  H12  1  0.16979330  0.98034296  0.24548445  1
  H+  H13  1  0.59788391  0.46956634  0.47739519  1
  H+  H14  1  0.14507666  0.84760077  0.76057623  1
  H+  H15  1  0.74241987  0.47479128  0.55659905  1
  H+  H16  1  0.47583696  0.84544997  0.51090952  1
  H+  H17  1  0.30129739  0.81685120  0.99409428  1
  H+  H18  1  0.07335704  0.15917082  0.22651594  1
  H+  H19  1  0.13356816  0.41659532  0.28173895  1
  H+  H20  1  0.20209037  1.04773184  0.49718648  1
  H+  H21  1  0.29649195  0.81825214  0.48708948  1
  H+  H22  1  0.82662517  0.92633581  0.25256154  1
  H+  H23  1  0.76563684  0.03334650  0.27716159  1
  H+  H24  1  0.85195030  0.67676644  0.25747240  1
  H+  H25  1  0.47472652  0.29949205  0.01436703  1
  H+  H26  1  0.83338180  0.47495890  0.73620505  1
  H+  H27  1  0.80775185  0.63779117  0.76476380  1
  H+  H28  1  0.47495707  0.49190447  0.73495553  1
  H+  H29  1  0.85665259  0.83541128  0.47845073  1
  H+  H30  1  0.96486547  0.81538634  0.76981997  1
  H+  H31  1  0.81270139  0.18791721  0.01153902  1
  H+  H32  1  0.18678696  0.48744876  0.49408252  1
  H+  H33  1  0.82318030  0.86725183  0.00754119  1
  H+  H34  1  1.04515052  0.50984111  0.50448842  1
  H+  H35  1  0.78545946  0.19470238  0.24298378  1
  H+  H36  1  0.62628247  0.78857573  0.25462484  1
  H+  H37  1  0.16391372  0.87016739  0.50911525  1
  H+  H38  1  0.48082435  0.83576209  0.74470281  1
  H+  H39  1  0.33556958  0.17004617  0.27621873  1
  H+  H40  1  0.17831111  0.70231621  0.48542541  1
  H+  H41  1  0.81788768  0.28732413  0.51027920  1
  H+  H42  1  0.42895241  0.87293056  0.64815360  1
  H+  H43  1  0.55054931  0.79262056  0.84937763  1
  H+  H44  1  0.51422701  0.70130987  0.98969072  1
  H+  H45  1  0.19739869  0.18174190  0.24146112  1
  H+  H46  1  0.18723441  0.34004986  0.26232642  1
  H+  H47  1  0.11926773  0.55915389  0.59598342  1
  H+  H48  1  0.22855768  0.77161600  0.85161707  1
  H+  H49  1  0.85479152  0.48539470  0.25936792  1
  H+  H50  1  0.87504829  0.22540785  0.77132438  1
  H+  H51  1  0.51466427  1.01644836  0.26609317  1
  H+  H52  1  0.84077509  0.01936752  0.50523045  1
  H+  H53  1  0.48441628  0.29615765  0.50617817  1
  H+  H54  1  1.03020795  0.17875013  0.51769861  1
  H+  H55  1  0.63282791  0.81943880  0.99252365  1
  H+  H56  1  0.16368960  0.86215583  0.00702659  1
  H+  H57  1  0.81309895  0.80898222  0.23211332  1
  H+  H58  1  0.63482757  0.14766514  0.49494151  1
  H+  H59  1  0.80368997  0.16901742  0.53667743  1
  H+  H60  1  0.47100111  0.51170617  0.50220309  1
  H+  H61  1  0.62505975  0.82376667  0.75740226  1
  H+  H62  1  0.68231922  0.48305435  0.24644628  1
  H+  H63  1  0.35147570  0.49894953  0.73439343  1
  H+  H64  1  0.87504550  0.46601753  0.47187147  1
  H+  H65  1  -0.02330325  0.49227831  0.24566552  1
  H+  H66  1  0.48078892  0.85142599  1.01317333  1
  H+  H67  1  0.83634621  0.35653185  0.98711486  1
  H+  H68  1  0.77333695  0.59750999  0.52657025  1
  H+  H69  1  0.47729842  0.96435941  0.51591970  1
  H+  H70  1  0.51466764  0.80149284  0.25055118  1
  H+  H71  1  0.18380208  0.15812242  0.76140583  1
  H+  H72  1  0.37048525  0.18000309  0.51226375  1
  H+  H73  1  0.86946404  0.43476853  -0.10117699  1
  H+  H74  1  0.06184392  0.89493440  0.51663776  1
  H+  H75  1  0.05055132  0.85992606  0.23742347  1
  H+  H76  1  0.50425646  0.35297735  0.75737658  1
  H+  H77  1  0.36237848  0.18345698  1.02450410  1
  H+  H78  1  0.14697412  0.30001928  0.51463652  1
  H+  H79  1  0.19364967  0.04541704  0.98711728  1
  H+  H80  1  0.62389079  0.14797791  0.99323204  1
  H+  H81  1  0.91529679  0.75845606  0.48472192  1
  H+  H82  1  0.84780646  0.04405161  0.99224096  1
  H+  H83  1  0.18105323  0.68981429  0.76133015  1
  H+  H84  1  0.34191443  0.82406683  0.74422241  1
  H+  H85  1  1.00061980  0.86460844  0.99026010  1
  H+  H86  1  0.42630112  0.53608798  0.09790934  1
  H+  H87  1  0.76431664  0.86768899  0.59416091  1
  H+  H88  1  0.19768051  0.83182387  0.25500608  1
  H+  H89  1  0.18097339  0.48384859  -0.01254694  1
  H+  H90  1  0.96827914  0.16028171  0.99352389  1
  H+  H91  1  0.60362548  0.46301093  0.98723284  1
  H+  H92  1  0.62359986  0.15549533  0.26344891  1
  H+  H93  1  0.18301168  0.36450095  0.75530012  1
  H+  H94  1  0.15834557  0.65907858  0.22944368  1
  H+  H95  1  0.50681613  0.14894417  1.00269002  1
  H+  H96  1  0.48035376  0.18090041  0.74578437  1
  H+  H97  1  0.76572617  0.58675409  0.01733634  1
  H+  H98  1  0.47133585  0.61403287  0.23060066  1
  H+  H99  1  0.79794900  0.31581767  0.23503961  1
  H+  H100  1  0.47715082  0.96865986  0.01477736  1
  H+  H101  1  0.50436829  0.69542158  0.48912951  1
  H+  H102  1  0.62000751  0.47849916  0.77018388  1
  H+  H103  1  0.03171810  0.20557225  0.74573335  1
  H+  H104  1  0.34872952  0.50015742  0.23081858  1
  H+  H105  1  0.37452540  0.85134384  0.24304176  1
  H+  H106  1  0.89385356  0.74825304  1.00663880  1
  H+  H107  1  0.49881762  0.02817265  0.76626221  1
  H+  H108  1  0.78990166  0.28698656  0.66959822  1
  H+  H109  1  0.55410167  0.10094911  0.36656860  1
  H+  H110  1  0.22324889  0.43740478  0.40855610  1
  H+  H111  1  0.76480198  0.22921090  0.09571856  1
  H+  H112  1  0.91023353  0.42614967  0.38537538  1
  H+  H113  1  0.54153131  0.76792698  0.39746741  1
  H+  H114  1  0.43646919  0.53959676  0.63803513  1
  H+  H115  1  0.48284440  0.43092768  0.23599472  1
  H+  H116  1  0.15012941  0.51263992  0.73767576  1
  H+  H117  1  0.23407634  0.12544500  0.89836253  1
  H+  H118  1  1.02972578  0.50975269  0.72616746  1
  H+  H119  1  0.78646462  0.48204539  0.00748861  1
  H+  H120  1  0.02553659  0.51263078  -0.00320414  1
  H+  H121  1  0.13272013  0.90902225  0.09735260  1
  H+  H122  1  0.52730947  0.43294667  0.89463320  1
  H+  H123  1  0.22514494  0.78213343  0.34497818  1
  H+  H124  1  0.45236607  0.89399648  0.15330392  1
  H+  H125  1  0.81313975  0.95877235  0.72851627  1
  H+  H126  1  0.77397185  0.88824904  0.09802525  1
  H+  H127  1  0.44973480  0.22286953  0.65221836  1
  H+  H128  1  0.89843642  0.77362021  0.33601430  1
  H+  H129  1  0.86955236  0.10554967  0.42363952  1
  H+  H130  1  0.22988505  0.44877809  0.84263854  1
  H+  H131  1  0.74720208  0.56034292  0.67873785  1
  H+  H132  1  0.14466070  -0.03423394  0.76304156  1
  H+  H133  1  0.89100201  0.15400086  0.84971276  1
  H+  H134  1  0.81188364  0.84100467  0.74047231  1
  H+  H135  1  0.53647104  0.10518497  0.85464894  1
  H+  H136  1  0.52303056  0.41864447  0.38655061  1
  H+  H137  1  0.24638071  0.12282650  0.36017750  1
  H+  H138  1  0.13142982  0.22884578  0.08978821  1
  H+  H139  1  0.75507747  0.52093125  0.15690278  1
  H+  H140  1  0.46898480  0.27425068  0.16605774  1
  H+  H141  1  0.51655600  0.15043799  0.48970426  1
  H+  H142  1  0.88405688  0.78669938  0.85452055  1
  H+  H143  1  0.10546137  0.55966581  0.08483229  1
  O2-  O144  1  0.15205205  0.21650959  0.21243781  1
  O2-  O145  1  0.11243256  0.23440402  0.72420157  1
  O2-  O146  1  0.11939531  0.57829990  0.20323381  1
  O2-  O147  1  0.11359247  0.55612655  0.71448150  1
  O2-  O148  1  0.13084363  0.90325527  0.21613314  1
  O2-  O149  1  0.09590074  0.88192622  0.75641042  1
  O2-  O150  1  0.46941060  0.27639872  0.23477511  1
  O2-  O151  1  0.44513577  0.22627545  0.71995262  1
  O2-  O152  1  0.42634872  0.53469628  0.20417708  1
  O2-  O153  1  0.43354985  0.53284889  0.70855633  1
  O2-  O154  1  0.45635290  0.89240801  0.22219185  1
  O2-  O155  1  0.42724279  0.86885119  0.71775282  1
  O2-  O156  1  0.74723922  0.23414198  0.21596836  1
  O2-  O157  1  0.81050062  0.31740348  0.73284426  1
  O2-  O158  1  0.76239892  0.52885886  0.22435717  1
  O2-  O159  1  0.76041986  0.55519868  0.74419065  1
  O2-  O160  1  0.77522699  0.85646766  0.21955902  1
  O2-  O161  1  0.76914438  0.87743790  0.71279712  1
  O2-  O162  1  0.25311787  0.12014005  0.29125579  1
  O2-  O163  1  0.22432690  0.11875457  0.78458533  1
  O2-  O164  1  0.20668347  0.41834475  0.28533166  1
  O2-  O165  1  0.22982689  0.44860668  0.77499059  1
  O2-  O166  1  0.23212677  0.78517825  0.27652563  1
  O2-  O167  1  0.22962841  0.77074322  0.78294057  1
  O2-  O168  1  0.54934190  0.09719804  0.29435882  1
  O2-  O169  1  0.53568110  0.10761686  0.78700745  1
  O2-  O170  1  0.52835808  0.39828835  0.26255455  1
  O2-  O171  1  0.53526728  0.43444596  0.78240669  1
  O2-  O172  1  0.54486035  0.75211937  0.27351611  1
  O2-  O173  1  0.54617576  0.79289364  0.78153197  1
  O2-  O174  1  0.82836639  0.10651358  0.29865447  1
  O2-  O175  1  0.89823284  0.16778245  0.78315674  1
  O2-  O176  1  0.89978826  0.44657868  0.27403244  1
  O2-  O177  1  0.88199216  0.44167659  0.71729432  1
  O2-  O178  1  0.89509838  0.76068245  0.26878122  1
  O2-  O179  1  0.87970398  0.77584119  0.78758202  1
  O2-  O180  1  0.23979379  0.12852715  0.47096841  1
  O2-  O181  1  0.23199571  0.12696480  0.96711943  1
  O2-  O182  1  0.22447434  0.44193837  0.47596459  1
  O2-  O183  1  0.22623181  0.44659990  0.96789854  1
  O2-  O184  1  0.21790968  0.78181992  0.46097438  1
  O2-  O185  1  0.22283811  0.78090290  0.96653577  1
  O2-  O186  1  0.55584425  0.10760178  0.46701488  1
  O2-  O187  1  0.54125780  0.10476578  0.97672008  1
  O2-  O188  1  0.51906588  0.42785269  0.45340849  1
  O2-  O189  1  0.52443970  0.43519531  0.96367997  1
  O2-  O190  1  0.54443770  0.77528406  0.46506130  1
  O2-  O191  1  0.55208789  0.78128878  0.96938580  1
  O2-  O192  1  0.88022125  0.10264220  0.48966886  1
  O2-  O193  1  0.88734061  0.12562069  0.97341863  1
  O2-  O194  1  0.90958634  0.42064876  0.45394461  1
  O2-  O195  1  0.87367352  0.43910834  0.96535412  1
  O2-  O196  1  0.91454538  0.81885319  0.44908159  1
  O2-  O197  1  0.91601575  0.81955886  0.97489719  1
  O2-  O198  1  0.12031656  0.23117641  0.02329268  1
  O2-  O199  1  0.11148481  0.22019882  0.53801034  1
  O2-  O200  1  0.10677612  0.55207749  0.01729435  1
  O2-  O201  1  0.12396955  0.56039647  0.52776348  1
  O2-  O202  1  0.12993611  0.90895692  0.02929518  1
  O2-  O203  1  0.14051486  0.92235045  0.53671180  1
  O2-  O204  1  0.44247311  0.22679313  0.04880493  1
  O2-  O205  1  0.45323863  0.21817046  0.53204298  1
  O2-  O206  1  0.42568217  0.53742117  0.02733671  1
  O2-  O207  1  0.43876578  0.55529533  0.53352747  1
  O2-  O208  1  0.43883753  0.88808416  0.03922942  1
  O2-  O209  1  0.43541587  0.88374700  0.53784738  1
  O2-  O210  1  0.76920837  0.22778740  0.02814197  1
  O2-  O211  1  0.76761735  0.21711884  0.54545603  1
  O2-  O212  1  0.73506866  0.50787668  0.03686130  1
  O2-  O213  1  0.71480481  0.52920899  0.55735476  1
  O2-  O214  1  0.77298188  0.89618882  0.03092418  1
  O2-  O215  1  0.76790304  0.87338256  0.52610069  1
