# generated using pymatgen
data_H2O
_symmetry_space_group_name_H-M   'P 1'
_cell_length_a   13.51119639
_cell_length_b   13.50261075
_cell_length_c   14.69142091
_cell_angle_alpha   90.01460416
_cell_angle_beta   90.00462769
_cell_angle_gamma   119.96920600
_symmetry_Int_Tables_number   1
_chemical_formula_structural   H2O
_chemical_formula_sum   'H144 O72'
_cell_volume   2321.88464485
_cell_formula_units_Z   72
loop_
 _symmetry_equiv_pos_site_id
 _symmetry_equiv_pos_as_xyz
  1  'x, y, z'
loop_
 _atom_type_symbol
 _atom_type_oxidation_number
  H+  1.0
  O2-  -2.0
loop_
 _atom_site_type_symbol
 _atom_site_label
 _atom_site_symmetry_multiplicity
 _atom_site_fract_x
 _atom_site_fract_y
 _atom_site_fract_z
 _atom_site_occupancy
  H+  H0  1  0.72110582  0.52814339  0.75046908  1
  H+  H1  1  1.00579359  0.47236453  1.01805205  1
  H+  H2  1  0.89659169  0.51622414  0.49370624  1
  H+  H3  1  0.14598945  0.85546721  0.74496301  1
  H+  H4  1  0.87125349  1.03289589  0.76925150  1
  H+  H5  1  0.17550353  0.03210511  0.26605590  1
  H+  H6  1  0.81758475  0.52718857  0.00202182  1
  H+  H7  1  0.51701786  0.15857885  0.49026345  1
  H+  H8  1  0.81765375  0.65727163  0.23651485  1
  H+  H9  1  0.77984471  0.57301824  0.08882360  1
  H+  H10  1  0.52129309  0.81942507  -0.03089711  1
  H+  H11  1  0.49747174  0.52832547  0.50263122  1
  H+  H12  1  0.19319026  0.01425985  0.98864460  1
  H+  H13  1  0.67150519  0.14999644  0.23327687  1
  H+  H14  1  0.69905036  0.84629590  0.51474423  1
  H+  H15  1  0.96144475  0.81314951  0.48969379  1
  H+  H16  1  0.51241365  0.85731117  0.74297333  1
  H+  H17  1  0.83854346  0.64891438  0.75319965  1
  H+  H18  1  0.79765620  0.28159959  0.73976548  1
  H+  H19  1  0.14445043  0.97030416  0.51003333  1
  H+  H20  1  0.63931064  0.15325216  0.75646965  1
  H+  H21  1  -0.01159533  0.15293314  0.76670741  1
  H+  H22  1  0.21901120  0.10122271  0.85140744  1
  H+  H23  1  0.55605242  0.12418180  0.35500813  1
  H+  H24  1  0.53644165  0.37421696  0.75666285  1
  H+  H25  1  0.18383464  0.82067267  0.49781953  1
  H+  H26  1  0.10500030  0.59955953  0.70337571  1
  H+  H27  1  0.36275315  0.19575825  0.50139071  1
  H+  H28  1  0.84977055  0.49864120  0.25568199  1
  H+  H29  1  0.17678955  0.16378046  0.49545870  1
  H+  H30  1  0.16378936  0.84054701  1.02284910  1
  H+  H31  1  0.33715529  0.16213197  0.74252300  1
  H+  H32  1  0.25452634  0.80428603  0.16113496  1
  H+  H33  1  0.15559661  0.30533808  0.24349664  1
  H+  H34  1  0.85497974  0.71124907  0.98789490  1
  H+  H35  1  0.48501783  0.96515041  0.29623720  1
  H+  H36  1  0.51684833  0.15244375  0.76537009  1
  H+  H37  1  0.97722085  0.14933851  0.50292356  1
  H+  H38  1  0.71012906  0.85281956  0.74413714  1
  H+  H39  1  0.20932353  0.35212092  0.47257218  1
  H+  H40  1  0.81841226  0.62062982  0.51638027  1
  H+  H41  1  0.20026692  0.70996709  -0.00142696  1
  H+  H42  1  0.52965253  0.82610569  0.49601207  1
  H+  H43  1  0.20127420  0.38394848  0.98862192  1
  H+  H44  1  0.19412295  0.45762255  0.47931628  1
  H+  H45  1  0.97316359  0.15478684  0.26363086  1
  H+  H46  1  0.69380244  0.54922182  0.22011839  1
  H+  H47  1  0.50354935  0.82760421  0.27639806  1
  H+  H48  1  0.39936499  0.12054957  0.67523705  1
  H+  H49  1  0.17401343  0.53703290  0.73226467  1
  H+  H50  1  0.04406723  0.84538051  0.01814571  1
  H+  H51  1  0.90394070  0.11095728  0.90309478  1
  H+  H52  1  0.69280143  0.18519007  0.99724220  1
  H+  H53  1  0.37891195  0.52275074  0.24193651  1
  H+  H54  1  0.49844888  0.52249072  0.24210402  1
  H+  H55  1  0.76100885  0.20223074  0.65021848  1
  H+  H56  1  0.50572889  -0.02649212  0.74516542  1
  H+  H57  1  0.63632196  0.48927818  0.98541096  1
  H+  H58  1  0.15140684  0.35919757  0.75666646  1
  H+  H59  1  0.19305719  0.48730454  0.25947983  1
  H+  H60  1  0.15460219  0.63610969  0.22965679  1
  H+  H61  1  0.06021717  0.39847892  0.05508361  1
  H+  H62  1  1.02906938  0.85587826  0.73720308  1
  H+  H63  1  0.52804237  0.70616635  -0.00383461  1
  H+  H64  1  0.70074812  0.17522637  0.51318552  1
  H+  H65  1  0.84228055  0.81140104  0.49429417  1
  H+  H66  1  0.23935442  0.44250501  0.34235217  1
  H+  H67  1  0.37712747  0.85816818  0.51818337  1
  H+  H68  1  0.35788666  0.84420483  -0.03783375  1
  H+  H69  1  0.45846064  0.89830263  0.60533721  1
  H+  H70  1  0.82700793  0.98010865  0.01641645  1
  H+  H71  1  0.08492855  0.29698047  0.54336285  1
  H+  H72  1  0.36773014  0.84668161  0.28418024  1
  H+  H73  1  0.85353005  0.82575219  0.76026375  1
  H+  H74  1  0.95259575  0.45048510  0.75707648  1
  H+  H75  1  0.84824152  0.82623432  0.26853306  1
  H+  H76  1  0.43951486  0.88060454  -0.12645759  1
  H+  H77  1  0.50614357  0.53050402  0.73629777  1
  H+  H78  1  0.48884813  0.18513326  0.00937699  1
  H+  H79  1  0.63588237  0.82976779  0.24512724  1
  H+  H80  1  0.15749417  0.18948987  0.73510558  1
  H+  H81  1  0.37953265  0.52676182  0.00997040  1
  H+  H82  1  0.51679479  0.03882734  0.49339624  1
  H+  H83  1  0.14965796  0.18354230  0.24291915  1
  H+  H84  1  0.81737410  0.97409137  0.24895283  1
  H+  H85  1  0.76929696  0.22099638  0.08615496  1
  H+  H86  1  0.85581649  0.48737650  0.76022084  1
  H+  H87  1  0.50596509  0.15076200  0.26364751  1
  H+  H88  1  0.51528068  0.03106525  0.96942656  1
  H+  H89  1  0.22381997  0.74369891  0.77469090  1
  H+  H90  1  0.81392796  0.16585087  0.52054805  1
  H+  H91  1  0.96248946  0.49118924  0.25784919  1
  H+  H92  1  0.20422843  0.49758439  -0.01573331  1
  H+  H93  1  0.83480594  0.36804754  0.98725494  1
  H+  H94  1  0.04205488  0.47949244  0.50514505  1
  H+  H95  1  0.48452955  0.30129324  1.00905149  1
  H+  H96  1  0.84965215  0.15253472  -0.01723401  1
  H+  H97  1  0.52243983  0.38646578  0.47474426  1
  H+  H98  1  0.17457451  1.03027725  0.75681644  1
  H+  H99  1  0.53448191  0.69990799  0.75784300  1
  H+  H100  1  0.82207934  0.96314242  0.51538471  1
  H+  H101  1  0.46859387  0.30079808  0.24161807  1
  H+  H102  1  0.02211917  0.21084620  0.01706012  1
  H+  H103  1  0.80542122  0.55895094  0.61010793  1
  H+  H104  1  0.86361194  0.83314791  0.99616648  1
  H+  H105  1  0.61040451  0.42870491  0.27846509  1
  H+  H106  1  0.30628441  0.13612333  -0.01612048  1
  H+  H107  1  0.29445772  0.15001032  0.26303381  1
  H+  H108  1  0.84961502  0.14511883  0.26303252  1
  H+  H109  1  0.46936511  0.90067692  0.09587468  1
  H+  H110  1  0.57649962  0.77679005  0.84988499  1
  H+  H111  1  0.56476238  0.44629373  0.84854669  1
  H+  H112  1  0.89484475  0.10601971  0.41361195  1
  H+  H113  1  0.52529057  0.70603783  0.49658803  1
  H+  H114  1  0.21346028  0.12160412  0.40657825  1
  H+  H115  1  0.18627927  0.82522783  0.23738941  1
  H+  H116  1  0.10804705  0.88763339  0.15832092  1
  H+  H117  1  0.44463661  0.24282984  0.58633419  1
  H+  H118  1  0.21088980  0.78985268  0.87289697  1
  H+  H119  1  0.78079682  0.89817357  0.15679581  1
  H+  H120  1  0.92063493  0.47891964  0.39701892  1
  H+  H121  1  0.53711711  0.45232233  0.38223211  1
  H+  H122  1  0.10009380  0.53247770  0.15832732  1
  H+  H123  1  0.10654158  0.88928924  0.59687157  1
  H+  H124  1  0.89920888  0.79434422  0.85191751  1
  H+  H125  1  0.44719088  0.90102955  0.14270195  1
  H+  H126  1  0.51331464  0.69897111  0.24412245  1
  H+  H127  1  1.02906542  0.84960055  0.24914699  1
  H+  H128  1  0.18866364  0.71638032  0.45335931  1
  H+  H129  1  0.88388983  0.77928842  0.35653926  1
  H+  H130  1  0.78672419  0.89075110  0.65323122  1
  H+  H131  1  0.88567845  0.44773259  0.90045597  1
  H+  H132  1  0.37795740  0.52103578  0.50760756  1
  H+  H133  1  0.10040062  0.25042970  0.10757797  1
  H+  H134  1  0.46364111  0.56945323  0.64997234  1
  H+  H135  1  0.43251671  0.21531808  0.15557939  1
  H+  H136  1  0.11170773  0.22329800  0.64262077  1
  H+  H137  1  0.70897808  0.86020401  0.01625975  1
  H+  H138  1  0.13425355  0.52073627  0.58729748  1
  H+  H139  1  0.56172810  0.12387616  0.89469609  1
  H+  H140  1  0.20321639  0.44276027  0.84237425  1
  H+  H141  1  0.45662801  0.56143967  0.10124634  1
  H+  H142  1  0.70356926  0.07657022  0.17162643  1
  H+  H143  1  0.51802010  0.48769430  0.98731801  1
  O2-  O144  1  0.10850191  0.22417786  0.22208290  1
  O2-  O145  1  0.11618079  0.22824618  0.71289904  1
  O2-  O146  1  0.11250469  0.55141180  0.22470082  1
  O2-  O147  1  0.17767320  0.60254102  0.69467518  1
  O2-  O148  1  0.11000962  0.89058075  0.22736276  1
  O2-  O149  1  0.10917670  0.89514087  0.71294716  1
  O2-  O150  1  0.43024609  0.21504045  0.22339039  1
  O2-  O151  1  0.41500562  0.18865600  0.70964354  1
  O2-  O152  1  0.46084494  0.56825903  0.22184318  1
  O2-  O153  1  0.46900614  0.57429118  0.71790829  1
  O2-  O154  1  0.44758656  0.88073922  0.30725532  1
  O2-  O155  1  0.46459247  0.89189649  0.72636956  1
  O2-  O156  1  0.73689179  0.15321527  0.19720001  1
  O2-  O157  1  0.75245730  0.20192297  0.71928187  1
  O2-  O158  1  0.77527104  0.58066558  0.20502975  1
  O2-  O159  1  0.80310073  0.56715572  0.73227343  1
  O2-  O160  1  0.77108469  0.89351793  0.22511540  1
  O2-  O161  1  0.79136802  0.89324399  0.72158909  1
  O2-  O162  1  0.21396058  0.11327791  0.28716529  1
  O2-  O163  1  0.21821846  0.10987918  0.78227109  1
  O2-  O164  1  0.23644524  0.44713406  0.27338024  1
  O2-  O165  1  0.15892259  0.42963256  0.78581318  1
  O2-  O166  1  0.23597092  0.78976954  0.22605584  1
  O2-  O167  1  0.20032647  0.79307634  0.80527246  1
  O2-  O168  1  0.54935857  0.11321080  0.28680907  1
  O2-  O169  1  0.55762521  0.11357226  0.78712306  1
  O2-  O170  1  0.54060901  0.43153704  0.26815840  1
  O2-  O171  1  0.57686565  0.45206558  0.78056772  1
  O2-  O172  1  0.54885483  0.78643827  0.24637106  1
  O2-  O173  1  0.57713473  0.78174296  0.78235419  1
  O2-  O174  1  0.89279050  0.10965530  0.28761741  1
  O2-  O175  1  0.91541235  0.10721269  0.80099203  1
  O2-  O176  1  0.88219583  0.45262787  0.27915981  1
  O2-  O177  1  0.87949819  0.43152457  0.78427639  1
  O2-  O178  1  0.88830644  0.78466574  0.28733413  1
  O2-  O179  1  0.89613793  0.78679405  0.78403465  1
  O2-  O180  1  0.21769112  0.12361202  0.47461247  1
  O2-  O181  1  0.22854135  0.09006283  0.95789911  1
  O2-  O182  1  0.24752219  0.43313964  0.45035120  1
  O2-  O183  1  0.24900676  0.46252833  0.96244132  1
  O2-  O184  1  0.23489185  0.78917840  0.48394555  1
  O2-  O185  1  0.23446296  0.79153114  0.98720300  1
  O2-  O186  1  0.55711171  0.11841178  0.46756363  1
  O2-  O187  1  0.55786246  0.11629655  0.96388985  1
  O2-  O188  1  0.55034181  0.46357226  0.44981136  1
  O2-  O189  1  0.55556380  0.44513014  0.96301348  1
  O2-  O190  1  0.57077444  0.78677750  0.47488017  1
  O2-  O191  1  0.57271548  0.78550501  0.97140493  1
  O2-  O192  1  0.89271393  0.10063014  0.48071079  1
  O2-  O193  1  0.89424749  0.11334441  0.97289096  1
  O2-  O194  1  0.95565444  0.50942028  0.45743917  1
  O2-  O195  1  0.88180746  0.45035290  0.96830707  1
  O2-  O196  1  0.88139645  0.77151685  0.46663206  1
  O2-  O197  1  0.90233471  0.79334612  0.96969512  1
  O2-  O198  1  0.08961666  0.27695499  0.04697019  1
  O2-  O199  1  0.09980097  0.23306141  0.53640237  1
  O2-  O200  1  0.07405111  0.47784278  0.05006849  1
  O2-  O201  1  0.10111044  0.46557248  0.53662358  1
  O2-  O202  1  0.12038750  0.88128924  0.04749702  1
  O2-  O203  1  0.10601688  0.88864853  0.52852005  1
  O2-  O204  1  0.44573240  0.22190252  0.03337718  1
  O2-  O205  1  0.44527393  0.23392352  0.51985056  1
  O2-  O206  1  0.46015578  0.56492038  0.03331830  1
  O2-  O207  1  0.45651144  0.56579865  0.53312637  1
  O2-  O208  1  0.44366101  0.88297910  -0.05968262  1
  O2-  O209  1  0.45860602  0.90364486  0.53738101  1
  O2-  O210  1  0.77461452  0.23023030  0.01904220  1
  O2-  O211  1  0.77543110  0.20705074  0.54418446  1
  O2-  O212  1  0.77720579  0.56921501  0.02066707  1
  O2-  O213  1  0.80252954  0.54726912  0.54354365  1
  O2-  O214  1  0.78818132  0.90013694  0.04222932  1
  O2-  O215  1  0.78088930  0.88207919  0.53809510  1
