# generated using pymatgen
data_H2O
_symmetry_space_group_name_H-M   'P 1'
_cell_length_a   13.52933149
_cell_length_b   13.53884142
_cell_length_c   14.72581974
_cell_angle_alpha   90.00815573
_cell_angle_beta   89.92804291
_cell_angle_gamma   119.94666050
_symmetry_Int_Tables_number   1
_chemical_formula_structural   H2O
_chemical_formula_sum   'H144 O72'
_cell_volume   2337.22603805
_cell_formula_units_Z   72
loop_
 _symmetry_equiv_pos_site_id
 _symmetry_equiv_pos_as_xyz
  1  'x, y, z'
loop_
 _atom_type_symbol
 _atom_type_oxidation_number
  H+  1.0
  O2-  -2.0
loop_
 _atom_site_type_symbol
 _atom_site_label
 _atom_site_symmetry_multiplicity
 _atom_site_fract_x
 _atom_site_fract_y
 _atom_site_fract_z
 _atom_site_occupancy
  H+  H0  1  0.55794877  0.42535426  0.89408443  1
  H+  H1  1  0.82489301  0.81169003  0.27713904  1
  H+  H2  1  0.95468134  0.15693488  0.49442243  1
  H+  H3  1  0.51268510  0.69907767  0.24682182  1
  H+  H4  1  0.07265808  0.54377978  0.24568510  1
  H+  H5  1  0.80037540  0.17769088  0.72772496  1
  H+  H6  1  0.51100191  1.03376554  0.76177581  1
  H+  H7  1  0.80746794  0.96702514  0.26469082  1
  H+  H8  1  1.01484140  0.82508245  0.23502817  1
  H+  H9  1  0.51211219  0.71571519  0.51871268  1
  H+  H10  1  0.53502489  0.69997789  1.00649984  1
  H+  H11  1  0.17503323  0.67068781  0.24474384  1
  H+  H12  1  0.79758604  0.30079946  0.50859386  1
  H+  H13  1  0.52494226  0.50574901  0.49307841  1
  H+  H14  1  0.85802918  0.48117757  0.99830940  1
  H+  H15  1  0.18478579  0.74907321  0.50547887  1
  H+  H16  1  0.15251011  0.18454190  0.25029604  1
  H+  H17  1  0.52229754  0.35874368  0.99050258  1
  H+  H18  1  0.31810670  0.49044463  0.27172202  1
  H+  H19  1  0.63457475  0.14787575  -0.01002576  1
  H+  H20  1  0.85540842  0.75832479  0.85293560  1
  H+  H21  1  0.29376756  0.48029588  0.99245447  1
  H+  H22  1  0.72482760  0.86126618  0.04471762  1
  H+  H23  1  0.79521522  0.71297431  0.34792538  1
  H+  H24  1  0.16144050  0.30830161  0.25182168  1
  H+  H25  1  0.48672682  0.86848732  0.52191807  1
  H+  H26  1  0.43841796  0.90349529  0.64784339  1
  H+  H27  1  0.13619126  0.17757794  0.73129589  1
  H+  H28  1  0.80577241  0.96714692  0.74286455  1
  H+  H29  1  0.78020355  0.62789101  0.73961410  1
  H+  H30  1  0.44710547  0.12964696  0.25133782  1
  H+  H31  1  0.59274536  0.10898347  0.25895944  1
  H+  H32  1  0.80210050  0.84576588  0.74619180  1
  H+  H33  1  0.75815719  0.55273770  0.64263061  1
  H+  H34  1  0.17613850  0.89874643  0.53047263  1
  H+  H35  1  0.47846007  0.99134146  0.25716647  1
  H+  H36  1  0.30130390  0.82539359  0.25786813  1
  H+  H37  1  0.81691919  0.62815627  0.00611458  1
  H+  H38  1  0.14142952  0.47855120  0.50430217  1
  H+  H39  1  0.55465200  0.11040039  0.90167595  1
  H+  H40  1  0.20723389  0.43411884  0.85531004  1
  H+  H41  1  0.80711125  0.46494342  0.25506068  1
  H+  H42  1  0.37244620  0.17269997  0.71464062  1
  H+  H43  1  0.62633019  0.82222994  0.24623550  1
  H+  H44  1  0.81968914  0.18472556  1.01357894  1
  H+  H45  1  0.47282807  0.61870395  0.74367734  1
  H+  H46  1  0.49859646  0.46234412  0.75472328  1
  H+  H47  1  0.80385962  0.62845564  0.23459067  1
  H+  H48  1  0.15453670  0.18594177  0.50725309  1
  H+  H49  1  0.99236613  0.15658122  1.01140449  1
  H+  H50  1  0.97042329  0.46385620  0.77129258  1
  H+  H51  1  0.47462273  -0.01474917  0.52078870  1
  H+  H52  1  0.46553197  0.82612516  0.22611470  1
  H+  H53  1  0.19516090  0.78436780  0.66758265  1
  H+  H54  1  0.17518666  0.47350338  0.76141578  1
  H+  H55  1  0.84119051  1.03681473  0.50068804  1
  H+  H56  1  0.18306687  0.69924751  1.00057959  1
  H+  H57  1  0.28324920  0.12640940  0.26211839  1
  H+  H58  1  0.93707978  0.79403139  0.77049127  1
  H+  H59  1  0.62843363  0.81676554  0.74612675  1
  H+  H60  1  0.64335262  0.50770151  0.49138056  1
  H+  H61  1  0.11239064  0.88831503  0.09763434  1
  H+  H62  1  0.74895787  0.20168630  0.15172451  1
  H+  H63  1  0.63263060  0.83030760  0.51134664  1
  H+  H64  1  0.62442674  0.48294087  0.25972410  1
  H+  H65  1  0.15666290  1.01859264  0.26856947  1
  H+  H66  1  0.36307883  0.51861586  0.51486905  1
  H+  H67  1  0.37798778  0.19313282  0.03165333  1
  H+  H68  1  0.49201629  0.51359829  0.25400427  1
  H+  H69  1  0.75870009  0.26442105  0.24513161  1
  H+  H70  1  0.61071057  0.17268316  0.50737975  1
  H+  H71  1  0.31479126  0.82428503  -0.00516511  1
  H+  H72  1  0.00241015  0.84983308  0.51830088  1
  H+  H73  1  0.48499421  0.97014283  0.00233364  1
  H+  H74  1  0.32059630  0.16245871  0.47796446  1
  H+  H75  1  0.14119537  0.29779245  0.74372330  1
  H+  H76  1  0.49176755  0.17920378  0.73863025  1
  H+  H77  1  0.14920434  0.30617844  1.03175060  1
  H+  H78  1  0.04083270  0.53023962  0.01810840  1
  H+  H79  1  0.63139727  0.15157934  0.75950836  1
  H+  H80  1  0.21082624  0.50775317  0.26801625  1
  H+  H81  1  0.93356896  0.80427652  0.42516297  1
  H+  H82  1  0.84340527  0.65016778  0.52386326  1
  H+  H83  1  0.82451181  0.52248314  0.51567005  1
  H+  H84  1  0.80657275  0.12427413  0.26897716  1
  H+  H85  1  0.50739459  0.34577819  0.74430529  1
  H+  H86  1  0.16379616  -0.02036672  1.01675910  1
  H+  H87  1  0.13943199  0.84087651  0.24113337  1
  H+  H88  1  0.83516063  0.86178726  0.51463614  1
  H+  H89  1  0.44566533  0.56051030  -0.08662114  1
  H+  H90  1  0.65523056  0.49466135  0.73395475  1
  H+  H91  1  0.18078591  0.48935555  -0.00074222  1
  H+  H92  1  0.18369101  0.35397299  0.49210054  1
  H+  H93  1  0.79207977  0.18012987  0.51326866  1
  H+  H94  1  0.14660547  0.61900850  0.72538460  1
  H+  H95  1  0.85595655  0.81609880  1.00133485  1
  H+  H96  1  0.48597456  0.85075618  1.01134053  1
  H+  H97  1  -0.03089018  0.81065303  -0.01180137  1
  H+  H98  1  0.47635782  0.85172115  0.72793887  1
  H+  H99  1  0.35196619  0.49977303  0.75246695  1
  H+  H100  1  0.82473009  0.30461056  0.01506644  1
  H+  H101  1  0.89820717  0.42592758  0.24233088  1
  H+  H102  1  0.95901130  0.15496481  0.75138111  1
  H+  H103  1  0.49495645  0.50900266  -0.01852060  1
  H+  H104  1  0.13194381  0.58754501  0.48866580  1
  H+  H105  1  0.09498372  0.87853846  0.85630233  1
  H+  H106  1  0.13520040  0.83337911  0.77367834  1
  H+  H107  1  0.76914348  0.55160148  0.14313228  1
  H+  H108  1  0.78478791  0.89346284  0.59998421  1
  H+  H109  1  0.49068043  0.18459008  0.01651578  1
  H+  H110  1  0.48000731  0.20204470  0.58853652  1
  H+  H111  1  0.79718730  0.89583067  0.17357661  1
  H+  H112  1  0.70049246  0.50797208  0.00159654  1
  H+  H113  1  0.43342432  0.20206203  0.17037009  1
  H+  H114  1  0.11613766  0.23131832  0.12842548  1
  H+  H115  1  0.22746958  0.44115622  0.40590581  1
  H+  H116  1  0.22594751  0.11709844  0.39918750  1
  H+  H117  1  0.84708707  0.35484145  0.77421720  1
  H+  H118  1  0.55783789  0.45933770  0.35524114  1
  H+  H119  1  0.22859893  0.79839522  0.35224564  1
  H+  H120  1  0.16654923  1.00778154  0.52834689  1
  H+  H121  1  0.87405792  0.13009283  0.83483774  1
  H+  H122  1  0.10709197  0.22044172  0.59457926  1
  H+  H123  1  0.29880084  0.82042192  0.73251882  1
  H+  H124  1  0.94501035  0.07882479  0.92542714  1
  H+  H125  1  0.13031500  0.58150942  0.10292492  1
  H+  H126  1  0.43994273  0.54196434  0.16406182  1
  H+  H127  1  0.31609482  0.84565696  0.49500525  1
  H+  H128  1  0.18518242  0.16987876  0.02607637  1
  H+  H129  1  0.53466100  0.78452386  0.82361453  1
  H+  H130  1  0.85582965  0.10208160  0.36054367  1
  H+  H131  1  0.86448799  0.43069643  0.39905100  1
  H+  H132  1  0.84508043  0.97579265  0.03088112  1
  H+  H133  1  0.41800596  0.87081756  0.14273896  1
  H+  H134  1  0.17552419  1.01948936  0.73635106  1
  H+  H135  1  -0.04604624  0.46177981  0.48160799  1
  H+  H136  1  0.61518389  0.80147557  0.94402910  1
  H+  H137  1  0.23223265  0.10773513  0.81124485  1
  H+  H138  1  0.43471056  0.54788639  0.60573004  1
  H+  H139  1  0.19139565  0.83060507  1.00054137  1
  H+  H140  1  0.25344536  0.17398882  0.93946208  1
  H+  H141  1  0.10229800  0.52944815  0.64423940  1
  H+  H142  1  0.90366396  0.43898408  0.91447627  1
  H+  H143  1  0.75730553  0.22561316  0.64715269  1
  O2-  O144  1  0.12071178  0.23132545  0.22453646  1
  O2-  O145  1  0.09542349  0.21929433  0.71701994  1
  O2-  O146  1  0.14604706  0.59118683  0.21638994  1
  O2-  O147  1  0.10889985  0.53642870  0.71161063  1
  O2-  O148  1  0.09251342  0.87068739  0.21121570  1
  O2-  O149  1  0.08925281  0.87035154  0.79031301  1
  O2-  O150  1  0.40316368  0.16822202  0.22987002  1
  O2-  O151  1  0.45588541  0.21841216  0.70452988  1
  O2-  O152  1  0.44661547  0.55366252  0.22941435  1
  O2-  O153  1  0.43380336  0.53528043  0.73252314  1
  O2-  O154  1  0.41335380  0.85901612  0.20897320  1
  O2-  O155  1  0.43682200  0.89574873  0.71679194  1
  O2-  O156  1  0.73432740  0.18899690  0.21799042  1
  O2-  O157  1  0.75988326  0.22038258  0.71544667  1
  O2-  O158  1  0.76674812  0.54908653  0.21124281  1
  O2-  O159  1  0.74156448  0.54895954  0.71173936  1
  O2-  O160  1  0.77735030  0.88551579  0.23897962  1
  O2-  O161  1  0.76407239  0.88670653  0.72091002  1
  O2-  O162  1  0.20267066  0.09814087  0.28915639  1
  O2-  O163  1  0.22183666  0.10307455  0.74562300  1
  O2-  O164  1  0.23630941  0.45655541  0.29300760  1
  O2-  O165  1  0.21367506  0.43276225  0.78787422  1
  O2-  O166  1  0.22083774  0.79139032  0.28492017  1
  O2-  O167  1  0.21189136  0.77558144  0.73057318  1
  O2-  O168  1  0.51447601  0.06882141  0.28399683  1
  O2-  O169  1  0.55166246  0.11312367  0.78630465  1
  O2-  O170  1  0.54849643  0.45462148  0.28721608  1
  O2-  O171  1  0.54557216  0.42590495  0.77100153  1
  O2-  O172  1  0.54231052  0.78204820  0.25445787  1
  O2-  O173  1  0.54333516  0.77140505  0.75988770  1
  O2-  O174  1  0.84984700  0.08917096  0.29403603  1
  O2-  O175  1  0.87625260  0.11192643  0.77086729  1
  O2-  O176  1  0.83521751  0.41404023  0.28146362  1
  O2-  O177  1  0.89754119  0.42826743  0.80499506  1
  O2-  O178  1  0.85186083  0.75712658  0.30148522  1
  O2-  O179  1  0.85415125  0.75750445  0.78493825  1
  O2-  O180  1  0.23826734  0.13105844  0.46698761  1
  O2-  O181  1  0.23002050  0.13459834  0.99761483  1
  O2-  O182  1  0.22287219  0.43714736  0.47419529  1
  O2-  O183  1  0.21189600  0.44078786  0.97652123  1
  O2-  O184  1  0.23548739  0.81587936  0.46974157  1
  O2-  O185  1  0.22800264  0.78419697  0.97845567  1
  O2-  O186  1  0.52612934  0.12518270  0.49793478  1
  O2-  O187  1  0.55328099  0.10592212  0.96991929  1
  O2-  O188  1  0.56551028  0.46828592  0.46689439  1
  O2-  O189  1  0.56099893  0.43697336  0.96093158  1
  O2-  O190  1  0.54939409  0.79913141  0.50895004  1
  O2-  O191  1  0.57769368  0.78547836  1.00317451  1
  O2-  O192  1  0.87189929  0.11776410  0.48098510  1
  O2-  O193  1  0.91834369  0.10605257  0.97604789  1
  O2-  O194  1  0.87305551  0.43675595  0.46638926  1
  O2-  O195  1  0.90506753  0.44525817  0.98357687  1
  O2-  O196  1  0.92349448  0.79862261  0.49141871  1
  O2-  O197  1  0.88803100  0.77238931  0.96968488  1
  O2-  O198  1  0.11330377  0.22700123  0.05571544  1
  O2-  O199  1  0.10844198  0.22134114  0.52719263  1
  O2-  O200  1  0.12466898  0.57774939  0.03463172  1
  O2-  O201  1  0.09410369  0.51649586  0.52278095  1
  O2-  O202  1  0.12447136  0.89625667  0.02951530  1
  O2-  O203  1  0.13227109  0.93111952  0.55846472  1
  O2-  O204  1  0.46167705  0.23409363  0.04098408  1
  O2-  O205  1  0.47893994  0.19867476  0.52075792  1
  O2-  O206  1  0.45524983  0.55605261  -0.02116709  1
  O2-  O207  1  0.44187078  0.56341230  0.53984982  1
  O2-  O208  1  0.43854049  0.88688655  0.02104030  1
  O2-  O209  1  0.43699882  0.90326737  0.53935208  1
  O2-  O210  1  0.77651417  0.22178301  0.03218461  1
  O2-  O211  1  0.75260451  0.22209974  0.53418742  1
  O2-  O212  1  0.77890351  0.54796020  0.02827595  1
  O2-  O213  1  0.79259121  0.56903178  0.54199267  1
  O2-  O214  1  0.80794043  0.89560967  0.05422144  1
  O2-  O215  1  0.78890076  0.89712476  0.53272450  1
