# generated using pymatgen
data_H2O
_symmetry_space_group_name_H-M   'P 1'
_cell_length_a   13.53080298
_cell_length_b   13.49440642
_cell_length_c   14.69252509
_cell_angle_alpha   90.10945303
_cell_angle_beta   89.93816972
_cell_angle_gamma   120.03738250
_symmetry_Int_Tables_number   1
_chemical_formula_structural   H2O
_chemical_formula_sum   'H144 O72'
_cell_volume   2322.41546282
_cell_formula_units_Z   72
loop_
 _symmetry_equiv_pos_site_id
 _symmetry_equiv_pos_as_xyz
  1  'x, y, z'
loop_
 _atom_type_symbol
 _atom_type_oxidation_number
  H+  1.0
  O2-  -2.0
loop_
 _atom_site_type_symbol
 _atom_site_label
 _atom_site_symmetry_multiplicity
 _atom_site_fract_x
 _atom_site_fract_y
 _atom_site_fract_z
 _atom_site_occupancy
  H+  H0  1  0.13774080  0.13802493  0.75059429  1
  H+  H1  1  0.36999697  0.49113952  0.23580620  1
  H+  H2  1  0.89454878  0.11379818  0.33278868  1
  H+  H3  1  0.51497549  0.48709232  0.48839297  1
  H+  H4  1  0.83225250  0.35861337  0.26402377  1
  H+  H5  1  0.01260285  0.51607370  0.48182842  1
  H+  H6  1  0.86531012  0.17682589  0.48494710  1
  H+  H7  1  0.49871974  0.04091659  0.25877501  1
  H+  H8  1  0.50951835  0.37156290  0.75871136  1
  H+  H9  1  1.00129870  0.17888694  0.96556669  1
  H+  H10  1  0.38190719  0.73618204  0.69695480  1
  H+  H11  1  0.81540050  0.52789669  0.51773388  1
  H+  H12  1  0.48128610  0.30575178  0.24542141  1
  H+  H13  1  1.03087618  0.85356859  1.01417233  1
  H+  H14  1  0.45718932  0.61715793  0.50626021  1
  H+  H15  1  0.84713832  -0.01928931  0.97644455  1
  H+  H16  1  0.81752964  0.64770331  0.52395275  1
  H+  H17  1  0.85393360  0.82328006  0.97567885  1
  H+  H18  1  0.44596982  0.23250220  0.64935643  1
  H+  H19  1  0.47562334  0.83974323  0.01025975  1
  H+  H20  1  0.16680995  0.68860125  0.26143371  1
  H+  H21  1  0.96471590  0.80170817  0.76306061  1
  H+  H22  1  0.82639314  0.94556203  0.23649472  1
  H+  H23  1  0.18010269  0.18978348  0.77675690  1
  H+  H24  1  0.87534268  0.16182373  -0.03479621  1
  H+  H25  1  0.85138714  0.88009342  0.52005035  1
  H+  H26  1  0.51701223  0.49540707  0.76196147  1
  H+  H27  1  0.12823807  0.53894369  0.71292314  1
  H+  H28  1  0.63020351  0.14698414  0.75980023  1
  H+  H29  1  0.48419099  0.50442458  1.00886698  1
  H+  H30  1  0.68497116  0.50256770  0.23920070  1
  H+  H31  1  0.19555055  0.46220882  0.81842609  1
  H+  H32  1  0.75380367  0.91224146  0.51474292  1
  H+  H33  1  0.28798604  0.81257731  0.25270087  1
  H+  H34  1  0.00661258  0.20685144  0.71460363  1
  H+  H35  1  0.26597787  0.83760062  0.86369251  1
  H+  H36  1  0.81480823  0.51102444  1.01231064  1
  H+  H37  1  0.46149571  0.86633725  0.23418133  1
  H+  H38  1  0.15556220  0.86498471  0.24388813  1
  H+  H39  1  0.69583670  0.51211726  0.00716341  1
  H+  H40  1  0.95697947  0.14464854  0.23760450  1
  H+  H41  1  0.79783931  0.16452127  0.73534689  1
  H+  H42  1  0.59231524  0.78152563  0.50794887  1
  H+  H43  1  0.56784860  0.79995308  0.25316456  1
  H+  H44  1  0.81001078  0.50167722  0.23680348  1
  H+  H45  1  0.96957291  0.82562396  0.50817818  1
  H+  H46  1  0.43891836  0.22682355  0.15558412  1
  H+  H47  1  0.14566242  0.58594600  0.03111377  1
  H+  H48  1  0.30100078  0.56066561  0.33367069  1
  H+  H49  1  0.16851668  0.48540039  0.44885628  1
  H+  H50  1  0.51206378  0.02755691  0.99238609  1
  H+  H51  1  0.21699644  0.77600165  0.37114136  1
  H+  H52  1  0.14677289  0.95448769  0.74727506  1
  H+  H53  1  0.98336051  0.81682049  0.28908798  1
  H+  H54  1  0.86348436  0.80509525  0.28104866  1
  H+  H55  1  0.18292935  1.04398387  0.00117305  1
  H+  H56  1  0.50577677  0.03799319  0.76263466  1
  H+  H57  1  0.76667317  0.54178181  0.13971428  1
  H+  H58  1  0.84090827  0.67334852  0.76593629  1
  H+  H59  1  0.68909082  0.18446535  0.24754637  1
  H+  H60  1  0.52140668  0.70201063  0.99215959  1
  H+  H61  1  0.46152417  0.83991463  0.49467455  1
  H+  H62  1  0.89298228  0.09821176  0.82517000  1
  H+  H63  1  0.16858001  1.03720800  0.48804451  1
  H+  H64  1  0.13559230  0.51387737  0.26781552  1
  H+  H65  1  0.15557181  0.86673132  0.50695454  1
  H+  H66  1  0.16950792  0.69353243  0.47012493  1
  H+  H67  1  0.94332436  0.45348156  0.77358556  1
  H+  H68  1  0.36526284  0.83564807  0.73784830  1
  H+  H69  1  0.70188013  0.17019158  0.00272520  1
  H+  H70  1  0.35338229  0.83311504  0.00545395  1
  H+  H71  1  0.16471898  0.81102260  0.00520271  1
  H+  H72  1  0.17509548  0.34217085  0.79430698  1
  H+  H73  1  0.49135703  0.31162776  0.51406506  1
  H+  H74  1  0.72365810  0.82213006  0.25552389  1
  H+  H75  1  0.17686162  0.16109274  0.25315526  1
  H+  H76  1  0.49299500  0.20035978  0.73868586  1
  H+  H77  1  0.84371646  0.35458998  -0.00247266  1
  H+  H78  1  0.84724220  0.69787035  0.98929814  1
  H+  H79  1  0.84352085  0.37264193  0.49427904  1
  H+  H80  1  1.01797421  0.48248004  1.02415663  1
  H+  H81  1  0.51950322  0.36402746  -0.00986799  1
  H+  H82  1  0.13902227  0.30012160  0.22736796  1
  H+  H83  1  0.11906123  0.23763812  0.13060427  1
  H+  H84  1  0.89420676  0.78477913  0.41787080  1
  H+  H85  1  0.52314783  0.66793904  0.26401631  1
  H+  H86  1  0.32646795  0.12595268  0.76903978  1
  H+  H87  1  0.44601332  0.53909933  0.14520281  1
  H+  H88  1  0.54906208  0.83712956  0.76115994  1
  H+  H89  1  0.36991703  0.18675066  0.01463792  1
  H+  H90  1  0.67820814  0.86904566  0.77312607  1
  H+  H91  1  0.13950848  0.83913066  0.73530646  1
  H+  H92  1  0.52112141  0.66046757  0.73679451  1
  H+  H93  1  0.70142721  0.19021157  0.50677652  1
  H+  H94  1  0.29739817  0.16431535  0.26314463  1
  H+  H95  1  0.52588145  0.48293572  0.26040578  1
  H+  H96  1  0.04053269  0.20753688  0.49724578  1
  H+  H97  1  0.51372105  0.03662543  0.49142326  1
  H+  H98  1  0.80055591  0.28503040  0.74813000  1
  H+  H99  1  0.95091625  0.47958989  0.26690671  1
  H+  H100  1  0.63907191  0.49841051  0.49457458  1
  H+  H101  1  0.77206358  0.55391647  0.66003771  1
  H+  H102  1  0.72506264  0.86983629  -0.00470466  1
  H+  H103  1  0.88378857  0.06873561  0.49045738  1
  H+  H104  1  0.50415200  0.16026074  0.26482900  1
  H+  H105  1  0.14783250  0.41281276  0.02247435  1
  H+  H106  1  0.16654078  0.16488964  0.48720586  1
  H+  H107  1  0.29779064  0.81495111  0.47750257  1
  H+  H108  1  0.83056354  0.96982667  0.66787086  1
  H+  H109  1  0.56938628  0.45191469  0.35325692  1
  H+  H110  1  0.56761480  0.78825986  0.90793366  1
  H+  H111  1  0.77600401  0.22789564  0.59703581  1
  H+  H112  1  0.11866800  0.90243936  0.59994599  1
  H+  H113  1  0.86898388  0.44635443  0.40244275  1
  H+  H114  1  0.29144287  0.94809788  0.80696317  1
  H+  H115  1  0.45418219  0.57100217  0.65683687  1
  H+  H116  1  0.42063795  0.88822443  0.13922131  1
  H+  H117  1  0.13660239  0.70835682  0.93809877  1
  H+  H118  1  0.07151702  0.40227886  0.71857888  1
  H+  H119  1  0.20110355  0.38567285  0.92201155  1
  H+  H120  1  0.35904358  0.48614088  0.02014234  1
  H+  H121  1  0.10867991  0.55316098  0.55723126  1
  H+  H122  1  0.19416995  0.16807781  0.98805964  1
  H+  H123  1  0.80605145  0.18081578  0.24451495  1
  H+  H124  1  0.55197896  0.11588601  0.40363040  1
  H+  H125  1  0.49010173  0.19387996  0.51596460  1
  H+  H126  1  0.88881168  0.76183039  0.86587889  1
  H+  H127  1  0.09668028  0.53265853  0.16967789  1
  H+  H128  1  0.34807837  0.49645061  0.50289771  1
  H+  H129  1  0.20413244  0.11810567  0.38958576  1
  H+  H130  1  0.25354878  0.08626543  0.86258738  1
  H+  H131  1  0.55317547  0.11031303  0.90617414  1
  H+  H132  1  0.10246522  0.27068075  0.63856036  1
  H+  H133  1  0.10620676  0.89458619  0.10597721  1
  H+  H134  1  0.88202789  0.43680994  0.91213605  1
  H+  H135  1  0.16394964  0.31641355  0.48462587  1
  H+  H136  1  0.48696291  0.18370280  1.01662353  1
  H+  H137  1  0.78172651  0.20618260  0.08929458  1
  H+  H138  1  0.55533799  0.44436138  0.90029930  1
  H+  H139  1  0.54781005  0.75900267  0.40484369  1
  H+  H140  1  0.83201989  0.46855452  0.76853879  1
  H+  H141  1  0.41628637  0.86462531  0.58561693  1
  H+  H142  1  0.15244908  0.98226188  0.24484369  1
  H+  H143  1  0.68874304  0.51297457  0.74807406  1
  O2-  O144  1  0.10917924  0.22451422  0.20013304  1
  O2-  O145  1  0.07545675  0.28105403  0.69869912  1
  O2-  O146  1  0.09704493  0.55021468  0.23613529  1
  O2-  O147  1  0.08010481  0.47255010  0.75038940  1
  O2-  O148  1  0.11310950  0.90180046  0.22180479  1
  O2-  O149  1  0.09702400  0.87789518  0.71734543  1
  O2-  O150  1  0.43344463  0.22511133  0.22391389  1
  O2-  O151  1  0.44473166  0.23247087  0.71900423  1
  O2-  O152  1  0.44865221  0.53931624  0.21486666  1
  O2-  O153  1  0.46407280  0.58004813  0.72340196  1
  O2-  O154  1  0.41321968  0.89348280  0.20810515  1
  O2-  O155  1  0.41586411  0.81954126  0.69741507  1
  O2-  O156  1  0.76944166  0.22586416  0.22503990  1
  O2-  O157  1  0.76017710  0.20870543  0.71702171  1
  O2-  O158  1  0.76587762  0.53878634  0.21010777  1
  O2-  O159  1  0.77180351  0.55076223  0.72857556  1
  O2-  O160  1  0.79846347  0.86341183  0.22594231  1
  O2-  O161  1  0.82538472  0.97093981  0.73563755  1
  O2-  O162  1  0.21573060  0.12390880  0.28500856  1
  O2-  O163  1  0.26660393  0.05772083  0.80365499  1
  O2-  O164  1  0.23579340  0.48164541  0.32984622  1
  O2-  O165  1  0.22038653  0.40750933  0.83646397  1
  O2-  O166  1  0.21085800  0.77073540  0.28422465  1
  O2-  O167  1  0.28368304  0.86985443  0.80170939  1
  O2-  O168  1  0.54333449  0.11776428  0.28606209  1
  O2-  O169  1  0.55136906  0.11520816  0.78716248  1
  O2-  O170  1  0.56881257  0.44599771  0.28415611  1
  O2-  O171  1  0.55398345  0.45116889  0.78440259  1
  O2-  O172  1  0.56871701  0.74444332  0.29498985  1
  O2-  O173  1  0.59846875  0.81185180  0.78988852  1
  O2-  O174  1  0.88033909  0.10462655  0.26638962  1
  O2-  O175  1  0.87592084  0.09431152  0.75743296  1
  O2-  O176  1  0.86893632  0.44153058  0.28507430  1
  O2-  O177  1  0.86343093  0.42172619  0.79496270  1
  O2-  O178  1  0.90585847  0.77333920  0.31521598  1
  O2-  O179  1  0.88648090  0.75637567  0.79139515  1
  O2-  O180  1  0.19977633  0.11619712  0.46019080  1
  O2-  O181  1  0.23096734  0.12111563  0.97411803  1
  O2-  O182  1  0.21802753  0.45308553  0.42914960  1
  O2-  O183  1  0.19512374  0.37873104  0.99985010  1
  O2-  O184  1  0.21598628  0.77716433  0.44969431  1
  O2-  O185  1  0.19641322  0.76253628  0.97882044  1
  O2-  O186  1  0.55944796  0.11692560  0.47144576  1
  O2-  O187  1  0.55624183  0.10923223  0.97408389  1
  O2-  O188  1  0.56255552  0.45547297  0.46455406  1
  O2-  O189  1  0.55945253  0.44557531  0.96883129  1
  O2-  O190  1  0.52532698  0.76009849  0.47012246  1
  O2-  O191  1  0.55736398  0.78370562  0.97544097  1
  O2-  O192  1  0.91282936  0.14486723  0.46067074  1
  O2-  O193  1  0.92253462  0.13215331  0.93797626  1
  O2-  O194  1  0.88197008  0.45338615  0.46983965  1
  O2-  O195  1  0.88668322  0.43801673  0.98031165  1
  O2-  O196  1  0.88891620  0.78933840  0.48820169  1
  O2-  O197  1  0.89164423  0.77396333  0.95923113  1
  O2-  O198  1  0.13007685  0.25320853  0.02197991  1
  O2-  O199  1  0.12319812  0.24350443  0.51897502  1
  O2-  O200  1  0.09542827  0.50736370  0.05262457  1
  O2-  O201  1  0.10051483  0.55866785  0.49173285  1
  O2-  O202  1  0.11048310  0.89175963  0.03775414  1
  O2-  O203  1  0.11983795  0.90910830  0.53191703  1
  O2-  O204  1  0.45008738  0.22755497  0.03852133  1
  O2-  O205  1  0.45093904  0.23361737  0.54029754  1
  O2-  O206  1  0.43955385  0.53914849  0.03584059  1
  O2-  O207  1  0.42524290  0.53807020  0.52966015  1
  O2-  O208  1  0.43130490  0.87808748  0.03030923  1
  O2-  O209  1  0.41809928  0.87659502  0.51822689  1
  O2-  O210  1  0.78379764  0.21149739  0.02216509  1
  O2-  O211  1  0.78211636  0.23448083  0.52932544  1
  O2-  O212  1  0.77531047  0.55290083  0.03389898  1
  O2-  O213  1  0.77493339  0.56570647  0.54432419  1
  O2-  O214  1  0.80801967  0.90032986  -0.00209574  1
  O2-  O215  1  0.82798746  0.93743973  0.54228285  1
