# generated using pymatgen
data_H2O
_symmetry_space_group_name_H-M   'P 1'
_cell_length_a   13.51690863
_cell_length_b   13.51598060
_cell_length_c   14.68483280
_cell_angle_alpha   90.05126847
_cell_angle_beta   89.96656636
_cell_angle_gamma   120.02381152
_symmetry_Int_Tables_number   1
_chemical_formula_structural   H2O
_chemical_formula_sum   'H144 O72'
_cell_volume   2322.84452211
_cell_formula_units_Z   72
loop_
 _symmetry_equiv_pos_site_id
 _symmetry_equiv_pos_as_xyz
  1  'x, y, z'
loop_
 _atom_type_symbol
 _atom_type_oxidation_number
  H+  1.0
  O2-  -2.0
loop_
 _atom_site_type_symbol
 _atom_site_label
 _atom_site_symmetry_multiplicity
 _atom_site_fract_x
 _atom_site_fract_y
 _atom_site_fract_z
 _atom_site_occupancy
  H+  H0  1  0.18243345  1.01890263  0.48495272  1
  H+  H1  1  0.34649258  0.50260411  0.74783878  1
  H+  H2  1  0.35610173  0.17756055  0.00366901  1
  H+  H3  1  0.48943519  0.30627996  0.74286092  1
  H+  H4  1  0.49336070  0.63355614  0.01217656  1
  H+  H5  1  0.20214411  1.00221846  0.24064094  1
  H+  H6  1  0.64568422  0.73813317  0.93692492  1
  H+  H7  1  0.85493165  0.17541265  1.01657492  1
  H+  H8  1  0.18894274  0.84405123  0.72254367  1
  H+  H9  1  0.86849134  1.05167281  0.74781934  1
  H+  H10  1  0.70954555  0.47770750  0.25981316  1
  H+  H11  1  0.37387722  0.18674156  0.74902568  1
  H+  H12  1  0.17746812  0.29600609  0.25288934  1
  H+  H13  1  0.81141486  0.84052546  0.49357989  1
  H+  H14  1  0.15432136  0.83501175  0.49670050  1
  H+  H15  1  0.49365156  0.64333410  0.47023485  1
  H+  H16  1  0.12541974  0.14569737  0.52153971  1
  H+  H17  1  0.86432819  0.00323533  0.97724007  1
  H+  H18  1  1.01964220  0.16418029  0.75295087  1
  H+  H19  1  0.20175189  0.52153450  -0.00595059  1
  H+  H20  1  0.20498865  0.16121061  0.25752336  1
  H+  H21  1  0.53217873  0.67119929  0.27347755  1
  H+  H22  1  0.60240163  0.79520498  0.74951958  1
  H+  H23  1  0.36086703  0.82595341  0.48779772  1
  H+  H24  1  0.35930963  0.52377050  0.49402133  1
  H+  H25  1  0.38089819  0.84522299  0.26635519  1
  H+  H26  1  0.97732785  0.50036823  0.74850598  1
  H+  H27  1  0.62883507  0.48983123  0.76550731  1
  H+  H28  1  0.86056104  0.12469544  0.16966655  1
  H+  H29  1  0.14837046  0.66954035  0.99946000  1
  H+  H30  1  0.75702739  0.51266614  0.44794870  1
  H+  H31  1  0.38464323  0.19250718  0.23491414  1
  H+  H32  1  0.06139401  0.17156065  0.26393177  1
  H+  H33  1  0.95888459  0.82954287  0.99699253  1
  H+  H34  1  0.12928529  0.80723475  -0.04104717  1
  H+  H35  1  0.15581694  0.65486612  0.72640221  1
  H+  H36  1  0.81482091  0.27896593  0.52198036  1
  H+  H37  1  0.80208853  0.37055710  0.27988404  1
  H+  H38  1  0.19787018  0.82729171  0.25909657  1
  H+  H39  1  0.16519868  0.69645483  0.25666085  1
  H+  H40  1  0.80887215  0.95915433  0.50884556  1
  H+  H41  1  0.97880064  0.47145222  0.97718943  1
  H+  H42  1  0.61268521  0.47832408  0.51641334  1
  H+  H43  1  0.91017440  0.73838936  0.24176844  1
  H+  H44  1  0.86339707  0.46830096  0.51782784  1
  H+  H45  1  0.55925726  0.76958288  0.89496746  1
  H+  H46  1  0.90846669  0.18512446  0.17747933  1
  H+  H47  1  0.52716592  0.15381766  0.75292752  1
  H+  H48  1  0.83522871  0.12708037  0.50809047  1
  H+  H49  1  0.43227836  0.22254117  0.60531109  1
  H+  H50  1  0.62599354  0.16205450  0.50065504  1
  H+  H51  1  0.50205707  0.47320315  0.99394634  1
  H+  H52  1  0.79633273  0.21878959  0.20850182  1
  H+  H53  1  0.80116925  0.82806313  0.25323099  1
  H+  H54  1  0.49077412  0.36239737  0.50984507  1
  H+  H55  1  0.18377303  0.15705714  1.00035406  1
  H+  H56  1  0.73208525  0.55813144  0.10671813  1
  H+  H57  1  0.47478766  0.19429489  0.51227944  1
  H+  H58  1  0.83014022  0.29980634  0.74343525  1
  H+  H59  1  0.68999475  0.85689920  0.03848142  1
  H+  H60  1  0.00622226  0.86056064  0.73358478  1
  H+  H61  1  0.48828527  0.51973553  0.50196326  1
  H+  H62  1  0.60935210  0.51512500  0.24937418  1
  H+  H63  1  0.82281673  0.79393960  0.75981192  1
  H+  H64  1  0.29040640  0.49405126  0.26002136  1
  H+  H65  1  0.50496453  0.15563051  0.97930673  1
  H+  H66  1  0.81892817  0.63928549  0.75025498  1
  H+  H67  1  0.19912830  1.03713183  0.77189833  1
  H+  H68  1  0.70381138  0.85683253  0.27987418  1
  H+  H69  1  0.46818714  0.51305878  0.75367367  1
  H+  H70  1  0.05989603  0.49874633  0.22784721  1
  H+  H71  1  0.47758105  0.29603012  1.00244669  1
  H+  H72  1  0.06948380  0.57643228  0.14612360  1
  H+  H73  1  0.18540899  0.14781047  0.76887615  1
  H+  H74  1  0.51351663  0.15452516  0.25455476  1
  H+  H75  1  0.84311459  0.83124059  0.00724989  1
  H+  H76  1  0.31170922  0.50762578  -0.00980243  1
  H+  H77  1  0.52504968  0.04066382  0.27436252  1
  H+  H78  1  0.20090537  0.49025853  0.48928559  1
  H+  H79  1  0.48098874  -0.02472003  1.03768453  1
  H+  H80  1  0.49390160  0.83464954  0.47765372  1
  H+  H81  1  0.19241956  0.69075463  0.48320393  1
  H+  H82  1  0.50248619  0.85510362  0.28769335  1
  H+  H83  1  0.49345095  -0.02460475  0.71312290  1
  H+  H84  1  0.80200299  0.14225903  -0.01166108  1
  H+  H85  1  0.90275355  0.49709771  0.27803018  1
  H+  H86  1  0.47806302  0.85064356  0.72172651  1
  H+  H87  1  0.15325173  0.27777124  0.74159699  1
  H+  H88  1  0.67227881  0.19758647  0.23943882  1
  H+  H89  1  1.03521619  0.14587723  1.00810094  1
  H+  H90  1  0.30586941  0.84202494  0.72502531  1
  H+  H91  1  0.48164885  0.68894712  0.76510680  1
  H+  H92  1  0.46000606  0.56902178  0.10670792  1
  H+  H93  1  0.96523502  0.80732932  0.47509863  1
  H+  H94  1  1.04288478  0.51201741  0.50659611  1
  H+  H95  1  0.62395519  0.48225716  0.99326606  1
  H+  H96  1  0.89045286  0.00863027  0.28671395  1
  H+  H97  1  0.66094063  0.22647682  -0.00078412  1
  H+  H98  1  0.80468239  0.34557859  0.00014028  1
  H+  H99  1  0.66498880  0.70516672  0.66538007  1
  H+  H100  1  0.81702269  0.63227311  0.49478909  1
  H+  H101  1  0.64454492  0.82091575  0.45428531  1
  H+  H102  1  0.07932773  0.89954473  0.24494195  1
  H+  H103  1  0.77196628  0.20468273  0.61196523  1
  H+  H104  1  0.77954206  0.64916082  0.26200976  1
  H+  H105  1  0.15156044  0.98296288  0.00593429  1
  H+  H106  1  0.08413291  0.36387432  0.80931655  1
  H+  H107  1  0.79363442  0.64009737  0.02180072  1
  H+  H108  1  0.29165347  0.14435680  0.49791750  1
  H+  H109  1  0.22553538  0.11857682  0.90831209  1
  H+  H110  1  0.73566110  0.28379300  0.09995321  1
  H+  H111  1  0.10112932  0.87079472  0.58034027  1
  H+  H112  1  0.06563003  0.97280433  0.67540094  1
  H+  H113  1  0.25053067  0.44651644  0.40574551  1
  H+  H114  1  0.45035656  0.21425171  0.14041832  1
  H+  H115  1  0.09288537  0.18283162  0.61642032  1
  H+  H116  1  0.17673335  0.77090679  0.87279989  1
  H+  H117  1  0.91642937  0.07790160  0.88447359  1
  H+  H118  1  0.76819217  0.89587407  0.12862237  1
  H+  H119  1  0.19762482  0.45036024  0.85909739  1
  H+  H120  1  0.12385913  0.56477427  0.59264808  1
  H+  H121  1  0.73581477  0.82624922  0.62090386  1
  H+  H122  1  0.90955128  0.42988464  0.88364519  1
  H+  H123  1  0.14389578  0.52960433  0.74110508  1
  H+  H124  1  0.92288550  0.08413088  0.37617202  1
  H+  H125  1  0.85407557  0.48871704  0.76092429  1
  H+  H126  1  0.87840431  0.78737214  0.85638835  1
  H+  H127  1  0.64486473  0.15056809  0.75725496  1
  H+  H128  1  0.45596751  0.87921262  0.57725786  1
  H+  H129  1  0.95426833  0.12233473  0.51667855  1
  H+  H130  1  0.77664868  0.56131115  0.66116739  1
  H+  H131  1  0.10541705  0.20161131  0.10253950  1
  H+  H132  1  0.87893308  0.43041156  0.42143115  1
  H+  H133  1  0.45650981  0.90926050  0.12943872  1
  H+  H134  1  0.22999527  0.77030964  0.39257821  1
  H+  H135  1  0.55717623  0.13772599  0.40777903  1
  H+  H136  1  0.23965459  0.11953133  0.34916091  1
  H+  H137  1  0.23707366  0.67389893  0.07152454  1
  H+  H138  1  0.83738564  0.18346711  0.74819295  1
  H+  H139  1  0.54778435  0.44351591  0.85311217  1
  H+  H140  1  0.87505146  0.75952451  0.39192070  1
  H+  H141  1  0.56266384  0.12182863  0.89518020  1
  H+  H142  1  0.37533487  0.45528000  0.29342145  1
  H+  H143  1  0.12541107  0.90151947  0.09130885  1
  O2-  O144  1  0.13258984  0.21867504  0.22612877  1
  O2-  O145  1  0.11098584  0.19524308  0.73024061  1
  O2-  O146  1  0.04302654  0.55857313  0.21102000  1
  O2-  O147  1  0.11335287  0.57300891  0.70738167  1
  O2-  O148  1  0.15354505  0.91839638  0.22002031  1
  O2-  O149  1  0.07684217  0.91047209  0.69652597  1
  O2-  O150  1  0.46140935  0.22035899  0.20760915  1
  O2-  O151  1  0.45238103  0.22509197  0.72195770  1
  O2-  O152  1  0.51454693  0.61027250  0.22543020  1
  O2-  O153  1  0.42716679  0.55388549  0.73473787  1
  O2-  O154  1  0.46398367  0.89491964  0.25846226  1
  O2-  O155  1  0.44999147  0.89599987  0.68701687  1
  O2-  O156  1  0.74973550  0.25563475  0.20780359  1
  O2-  O157  1  0.78839116  0.21786932  0.72640622  1
  O2-  O158  1  0.69162526  0.53191329  0.23039440  1
  O2-  O159  1  0.77658295  0.55825324  0.72769439  1
  O2-  O160  1  0.77613882  0.88491997  0.24329714  1
  O2-  O161  1  0.71302670  0.78533728  0.68226731  1
  O2-  O162  1  0.25000920  0.12458824  0.28166089  1
  O2-  O163  1  0.23682781  0.11699158  0.79217029  1
  O2-  O164  1  0.28928514  0.43466362  0.29836927  1
  O2-  O165  1  0.16202550  0.42456609  0.79572973  1
  O2-  O166  1  0.22139288  0.77206954  0.28168887  1
  O2-  O167  1  0.22496452  0.80232787  0.74678539  1
  O2-  O168  1  0.56135874  0.12455982  0.28626326  1
  O2-  O169  1  0.56174121  0.10750931  0.77418913  1
  O2-  O170  1  0.50144409  0.51097949  0.27504228  1
  O2-  O171  1  0.54753877  0.44706234  0.78443016  1
  O2-  O172  1  0.57154506  0.79246363  0.33004856  1
  O2-  O173  1  0.52860966  0.77343978  0.77980542  1
  O2-  O174  1  0.95507623  0.07316999  0.31897114  1
  O2-  O175  1  0.91075980  0.12598760  0.77754654  1
  O2-  O176  1  0.83425054  0.44502251  0.31358816  1
  O2-  O177  1  0.89954021  0.45152436  0.77553219  1
  O2-  O178  1  0.84678774  0.73008611  0.27890470  1
  O2-  O179  1  0.88045978  0.77856935  0.78841150  1
  O2-  O180  1  0.21467817  0.10029490  0.46812286  1
  O2-  O181  1  0.22612405  0.11590207  0.97608484  1
  O2-  O182  1  0.25014153  0.45741694  0.47337252  1
  O2-  O183  1  0.23816716  0.48598282  0.95954854  1
  O2-  O184  1  0.23696624  0.77284343  0.46143268  1
  O2-  O185  1  0.12802418  0.74125630  0.92715318  1
  O2-  O186  1  0.54985735  0.13962623  0.47489284  1
  O2-  O187  1  0.56377179  0.13185175  0.96278288  1
  O2-  O188  1  0.53480784  0.44593394  0.49238575  1
  O2-  O189  1  0.54375648  0.43662406  0.96717450  1
  O2-  O190  1  0.56251117  0.78089938  0.43133092  1
  O2-  O191  1  0.58634877  0.75540704  0.95446647  1
  O2-  O192  1  0.87409617  0.08435351  0.48806701  1
  O2-  O193  1  0.93419186  0.04858996  0.94139687  1
  O2-  O194  1  0.89864996  0.42869031  0.48699328  1
  O2-  O195  1  0.91442822  0.40652037  0.94806002  1
  O2-  O196  1  0.88209941  0.76739707  0.45980130  1
  O2-  O197  1  0.87734679  0.78936219  0.97666754  1
  O2-  O198  1  0.11027777  0.20427059  0.03544624  1
  O2-  O199  1  0.07798476  0.17465994  0.54949311  1
  O2-  O200  1  0.15915967  0.62267947  0.04999350  1
  O2-  O201  1  0.12511470  0.55989987  0.52441146  1
  O2-  O202  1  0.10713790  0.89994154  0.02607038  1
  O2-  O203  1  0.10654503  0.86964705  0.51324911  1
  O2-  O204  1  0.44002226  0.21406493  0.02144025  1
  O2-  O205  1  0.42655501  0.22630216  0.53766168  1
  O2-  O206  1  0.44601483  0.55674935  0.04043839  1
  O2-  O207  1  0.45268985  0.57372089  0.50954249  1
  O2-  O208  1  0.42802223  0.90230764  0.06667483  1
  O2-  O209  1  0.44663543  0.86650401  0.50821508  1
  O2-  O210  1  0.72674609  0.30118362  0.03436365  1
  O2-  O211  1  0.76618678  0.19947099  0.54356719  1
  O2-  O212  1  0.74846264  0.55916208  0.04102208  1
  O2-  O213  1  0.77611848  0.54746675  0.50859841  1
  O2-  O214  1  0.76935536  0.89611896  0.06042739  1
  O2-  O215  1  0.76242720  0.87074117  0.51709962  1
