# generated using pymatgen
data_H2O
_symmetry_space_group_name_H-M   'P 1'
_cell_length_a   13.52588373
_cell_length_b   13.51310842
_cell_length_c   14.68902724
_cell_angle_alpha   89.94813614
_cell_angle_beta   89.99731319
_cell_angle_gamma   120.02477587
_symmetry_Int_Tables_number   1
_chemical_formula_structural   H2O
_chemical_formula_sum   'H144 O72'
_cell_volume   2324.53371573
_cell_formula_units_Z   72
loop_
 _symmetry_equiv_pos_site_id
 _symmetry_equiv_pos_as_xyz
  1  'x, y, z'
loop_
 _atom_type_symbol
 _atom_type_oxidation_number
  H+  1.0
  O2-  -2.0
loop_
 _atom_site_type_symbol
 _atom_site_label
 _atom_site_symmetry_multiplicity
 _atom_site_fract_x
 _atom_site_fract_y
 _atom_site_fract_z
 _atom_site_occupancy
  H+  H0  1  0.19428281  0.94263341  0.10929008  1
  H+  H1  1  0.60537458  0.82343530  0.96115394  1
  H+  H2  1  0.84045718  0.14032328  0.48347304  1
  H+  H3  1  0.66124318  0.82156874  0.74719852  1
  H+  H4  1  0.03308986  0.84110250  0.73915608  1
  H+  H5  1  0.13764924  0.32438773  0.50638212  1
  H+  H6  1  0.15214872  0.85859527  0.50341759  1
  H+  H7  1  0.52071779  0.35489159  0.48041785  1
  H+  H8  1  -0.01609531  0.80230826  0.06655154  1
  H+  H9  1  0.82292045  0.30601779  0.72229362  1
  H+  H10  1  0.14852637  0.51237744  0.23949640  1
  H+  H11  1  0.49350297  0.52499396  0.24027937  1
  H+  H12  1  0.46115158  0.65378580  0.49841930  1
  H+  H13  1  0.15446026  0.20172863  0.74030979  1
  H+  H14  1  0.83599677  0.16196937  0.99456082  1
  H+  H15  1  0.02759047  0.18031219  0.23867100  1
  H+  H16  1  0.49408986  0.84325331  0.24585488  1
  H+  H17  1  0.36556170  0.52124812  0.73806205  1
  H+  H18  1  0.43410576  0.16042871  0.47646953  1
  H+  H19  1  0.87585831  0.11442572  0.33407364  1
  H+  H20  1  0.49961216  0.31618203  0.96891182  1
  H+  H21  1  0.48797067  0.31764738  0.72652044  1
  H+  H22  1  0.63215092  0.15406522  0.26151625  1
  H+  H23  1  0.30717034  0.80819485  0.25663204  1
  H+  H24  1  -0.04611138  0.47756157  -0.01122679  1
  H+  H25  1  0.52072353  0.14573396  0.97055748  1
  H+  H26  1  0.79585830  0.61844564  1.00407877  1
  H+  H27  1  0.80000867  0.83719596  0.52004630  1
  H+  H28  1  0.81035828  0.80073607  0.28013309  1
  H+  H29  1  0.18165961  0.70068436  0.74526667  1
  H+  H30  1  0.12642929  0.62416293  0.01064550  1
  H+  H31  1  0.31317424  0.17004460  0.94963950  1
  H+  H32  1  0.09274179  0.55118268  0.10337394  1
  H+  H33  1  0.68942401  0.17784183  0.01101228  1
  H+  H34  1  1.00652985  0.79209182  1.02305225  1
  H+  H35  1  0.67694045  0.85783314  0.25222587  1
  H+  H36  1  0.16332249  -0.02474050  0.24995980  1
  H+  H37  1  0.48065776  0.95868349  0.23944291  1
  H+  H38  1  0.52665343  0.49879464  0.74762329  1
  H+  H39  1  0.16283860  0.16068187  0.50972718  1
  H+  H40  1  0.51933620  0.68823538  0.74539593  1
  H+  H41  1  0.36081388  0.86172815  0.73828343  1
  H+  H42  1  0.70704206  0.51911244  0.73365196  1
  H+  H43  1  0.30395104  0.82257836  0.48925419  1
  H+  H44  1  0.27131974  0.70369920  0.94267540  1
  H+  H45  1  0.22147277  0.76288264  0.88183124  1
  H+  H46  1  0.48917647  0.81694967  0.98173753  1
  H+  H47  1  0.34065166  0.18907540  0.50664407  1
  H+  H48  1  0.72171835  0.51020082  0.50725601  1
  H+  H49  1  0.18614126  0.70901391  0.50493135  1
  H+  H50  1  0.81449211  0.30318830  0.24268359  1
  H+  H51  1  0.93390241  0.10100334  0.46420901  1
  H+  H52  1  0.54969472  0.48169326  0.49851768  1
  H+  H53  1  0.95928519  0.19847262  0.95935894  1
  H+  H54  1  0.96742249  0.13519438  0.76027771  1
  H+  H55  1  0.84558824  0.30561098  0.50457080  1
  H+  H56  1  0.51579344  1.02647365  -0.00595382  1
  H+  H57  1  0.36205157  0.85201694  0.01663628  1
  H+  H58  1  0.17288997  0.81519595  0.75425518  1
  H+  H59  1  0.17210535  0.17596950  0.00420007  1
  H+  H60  1  0.84782049  0.80712031  0.75147631  1
  H+  H61  1  0.47773478  0.84243682  0.49994927  1
  H+  H62  1  0.81076288  0.50490462  0.00191300  1
  H+  H63  1  0.76202085  0.87876424  0.64864334  1
  H+  H64  1  0.22585441  0.77209086  0.34468854  1
  H+  H65  1  0.49212170  -0.03377521  0.50559182  1
  H+  H66  1  0.83583615  0.35920945  -0.01623112  1
  H+  H67  1  0.18490894  0.36398922  0.25632607  1
  H+  H68  1  0.84006730  0.79777882  0.98190765  1
  H+  H69  1  0.61445655  0.80307039  0.48255910  1
  H+  H70  1  0.97158554  0.48699039  0.74761884  1
  H+  H71  1  0.18386411  0.35499994  0.99433107  1
  H+  H72  1  0.20034647  0.11954260  0.41979594  1
  H+  H73  1  0.87333628  0.49045984  0.49972274  1
  H+  H74  1  0.17613609  0.15253906  0.27671108  1
  H+  H75  1  0.82526715  0.51519237  0.73656307  1
  H+  H76  1  0.81410156  0.95732819  0.74312288  1
  H+  H77  1  0.01840785  0.22885588  0.54381419  1
  H+  H78  1  0.25024433  0.50222729  0.49034434  1
  H+  H79  1  0.97423528  0.48613124  0.26229246  1
  H+  H80  1  0.81204918  0.18380843  0.23509133  1
  H+  H81  1  0.85294557  0.69153474  0.75035894  1
  H+  H82  1  0.36462396  0.51003594  0.00820321  1
  H+  H83  1  0.44299911  0.88212265  0.10644912  1
  H+  H84  1  0.41032346  0.51825521  0.49206433  1
  H+  H85  1  0.21848919  0.05090937  0.98294025  1
  H+  H86  1  0.84998078  0.99457502  0.01710096  1
  H+  H87  1  0.48501213  0.18040588  0.26918589  1
  H+  H88  1  0.30440300  0.48364878  0.25595446  1
  H+  H89  1  0.74866516  0.86995420  0.02986873  1
  H+  H90  1  0.47646957  0.63162029  1.00165417  1
  H+  H91  1  0.85242342  0.70196899  0.50660573  1
  H+  H92  1  0.52809632  0.37266003  0.26509690  1
  H+  H93  1  0.44994457  0.55886238  0.15200159  1
  H+  H94  1  0.63783038  0.48486259  0.98508498  1
  H+  H95  1  0.70168940  0.50523551  0.23489360  1
  H+  H96  1  0.56432453  0.15549084  0.52164069  1
  H+  H97  1  0.29578075  0.15746355  0.29470854  1
  H+  H98  1  0.17262115  0.46708324  0.99775077  1
  H+  H99  1  0.53194092  0.03749488  0.75186923  1
  H+  H100  1  0.58715471  0.11129195  0.84013949  1
  H+  H101  1  0.70901801  0.18272289  0.72430890  1
  H+  H102  1  0.20233873  0.88746876  0.01590955  1
  H+  H103  1  0.18156577  0.37100584  0.75683682  1
  H+  H104  1  0.82536684  0.49812738  0.23684402  1
  H+  H105  1  0.14668963  -0.02509307  0.51499395  1
  H+  H106  1  0.96490040  0.82520163  0.50387023  1
  H+  H107  1  0.04809560  0.15222872  0.02704615  1
  H+  H108  1  0.54640774  0.78124812  0.38292234  1
  H+  H109  1  0.83616883  1.03373177  0.24964469  1
  H+  H110  1  0.44585560  0.23374391  0.64182434  1
  H+  H111  1  0.10711612  0.24561482  0.65906642  1
  H+  H112  1  0.52254243  0.71718496  0.26148181  1
  H+  H113  1  0.41831490  0.20377652  0.19182920  1
  H+  H114  1  0.11968177  0.21436056  0.15802570  1
  H+  H115  1  0.77865931  0.53433316  0.13404333  1
  H+  H116  1  0.11235442  0.88128587  0.65107680  1
  H+  H117  1  0.20479657  0.44550133  0.39258444  1
  H+  H118  1  0.79271636  0.55351710  0.60021986  1
  H+  H119  1  0.67448061  0.15656986  0.49089288  1
  H+  H120  1  0.77038335  0.22589308  0.10063009  1
  H+  H121  1  0.89473864  0.44577150  0.83959314  1
  H+  H122  1  0.21617766  0.12073395  0.82206959  1
  H+  H123  1  0.44396952  0.22431815  0.04623445  1
  H+  H124  1  0.30161053  0.17932150  0.73882513  1
  H+  H125  1  0.77407473  0.89323382  0.16992673  1
  H+  H126  1  0.78512666  0.94691377  0.50956944  1
  H+  H127  1  0.43506350  0.56461842  0.64474166  1
  H+  H128  1  0.85296362  0.76381365  0.36425400  1
  H+  H129  1  0.58147660  0.46137010  0.34490425  1
  H+  H130  1  0.15334343  0.51990493  0.70967788  1
  H+  H131  1  0.79810275  0.22665572  0.59767053  1
  H+  H132  1  0.16818454  0.86063230  0.23792194  1
  H+  H133  1  0.87809322  0.09270185  0.84299025  1
  H+  H134  1  0.54566614  0.77710693  0.83170275  1
  H+  H135  1  0.89917149  0.45201228  0.35332707  1
  H+  H136  1  0.56482628  0.11287771  0.35536444  1
  H+  H137  1  0.15024990  0.63206879  0.24252023  1
  H+  H138  1  0.84480775  0.74402962  0.88664507  1
  H+  H139  1  0.52059550  0.48907336  0.98248176  1
  H+  H140  1  0.56646749  0.45984890  0.83663249  1
  H+  H141  1  0.98739078  0.48694805  0.51461042  1
  H+  H142  1  0.43872431  0.89399517  0.65080419  1
  H+  H143  1  0.22466334  0.45380464  0.84251126  1
  O2-  O144  1  0.11160114  0.21823309  0.22509011  1
  O2-  O145  1  0.10592895  0.24042433  0.72635501  1
  O2-  O146  1  0.10494999  0.55073812  0.21998445  1
  O2-  O147  1  0.10907441  0.55790457  0.69103248  1
  O2-  O148  1  0.14183352  0.90969431  0.20908895  1
  O2-  O149  1  0.11329348  0.87564785  0.71837190  1
  O2-  O150  1  0.44214826  0.22323307  0.25488024  1
  O2-  O151  1  0.43654432  0.23756750  0.70754226  1
  O2-  O152  1  0.44563765  0.55704940  0.21944819  1
  O2-  O153  1  0.44533051  0.56185468  0.71206839  1
  O2-  O154  1  0.44549506  0.87986520  0.21597489  1
  O2-  O155  1  0.44137423  0.90229586  0.71766573  1
  O2-  O156  1  0.76940987  0.22472966  0.21705960  1
  O2-  O157  1  0.78751814  0.22877387  0.69523035  1
  O2-  O158  1  0.77903702  0.52990406  0.20518137  1
  O2-  O159  1  0.78796052  0.55784664  0.71138325  1
  O2-  O160  1  0.76450414  0.90261585  0.23485691  1
  O2-  O161  1  0.76386498  0.87469044  0.71809361  1
  O2-  O162  1  0.21319234  0.11405532  0.30919507  1
  O2-  O163  1  0.21908700  0.14102135  0.75737104  1
  O2-  O164  1  0.22279400  0.44535457  0.27641252  1
  O2-  O165  1  0.22750440  0.45514187  0.77526240  1
  O2-  O166  1  0.22517784  0.76920992  0.27706915  1
  O2-  O167  1  0.21589973  0.77454900  0.77782278  1
  O2-  O168  1  0.55343426  0.11408261  0.28865055  1
  O2-  O169  1  0.58836328  0.11615654  0.77340423  1
  O2-  O170  1  0.57645273  0.45620059  0.27724937  1
  O2-  O171  1  0.56987171  0.46128234  0.76881323  1
  O2-  O172  1  0.55645912  0.79563121  0.28507291  1
  O2-  O173  1  0.56609975  0.77125449  0.76744356  1
  O2-  O174  1  0.88341909  0.11903832  0.26665864  1
  O2-  O175  1  0.89079829  0.07367151  0.78127205  1
  O2-  O176  1  0.89275712  0.44730127  0.28560713  1
  O2-  O177  1  0.89242501  0.44761884  0.77185668  1
  O2-  O178  1  0.82484725  0.74013604  0.30182237  1
  O2-  O179  1  0.88875672  0.77025922  0.77775894  1
  O2-  O180  1  0.20471204  0.12229614  0.48845592  1
  O2-  O181  1  0.22869641  0.12058677  0.94817788  1
  O2-  O182  1  0.18467409  0.44016467  0.45842109  1
  O2-  O183  1  0.21950725  0.43570803  0.97318992  1
  O2-  O184  1  0.22175462  0.78040957  0.46911309  1
  O2-  O185  1  0.23320185  0.74836925  0.94929699  1
  O2-  O186  1  0.58920398  0.11951197  0.47662745  1
  O2-  O187  1  0.56423320  0.10442351  0.96794883  1
  O2-  O188  1  0.57466004  0.43694078  0.46350548  1
  O2-  O189  1  0.56100616  0.45128660  0.95514872  1
  O2-  O190  1  0.53705176  0.77107382  0.45568996  1
  O2-  O191  1  0.52451629  0.77554924  0.94807184  1
  O2-  O192  1  0.85511506  0.08088510  0.45236154  1
  O2-  O193  1  0.88514740  0.13008026  0.96895839  1
  O2-  O194  1  0.91577573  0.45170522  0.47773420  1
  O2-  O195  1  0.87635663  0.43931561  0.95966714  1
  O2-  O196  1  0.88108543  0.78363032  0.49105449  1
  O2-  O197  1  0.80803380  0.72539814  0.94843847  1
  O2-  O198  1  0.12795337  0.20959890  0.03731846  1
  O2-  O199  1  0.09691258  0.24511509  0.53785749  1
  O2-  O200  1  0.08739961  0.54496168  0.03522887  1
  O2-  O201  1  0.11158351  0.56186225  0.59251804  1
  O2-  O202  1  0.23156526  0.96074853  0.04645056  1
  O2-  O203  1  0.10800831  0.89228255  0.53038427  1
  O2-  O204  1  0.45737785  0.23051715  -0.01896797  1
  O2-  O205  1  0.42624744  0.21858902  0.50962460  1
  O2-  O206  1  0.44658030  0.55383824  0.02695469  1
  O2-  O207  1  0.41093649  0.57642686  0.53129186  1
  O2-  O208  1  0.44245947  0.88659900  0.03669060  1
  O2-  O209  1  0.44117899  0.88625212  0.52451832  1
  O2-  O210  1  0.77167658  0.22421281  0.03231393  1
  O2-  O211  1  0.80483252  0.22411127  0.52546975  1
  O2-  O212  1  0.76953578  0.54044269  0.03331020  1
  O2-  O213  1  0.79980297  0.55619556  0.53160933  1
  O2-  O214  1  0.82894063  0.91916424  0.04440144  1
  O2-  O215  1  0.75128587  0.87088905  0.53979398  1
