# generated using pymatgen
data_H2O
_symmetry_space_group_name_H-M   'P 1'
_cell_length_a   13.49871707
_cell_length_b   13.48935908
_cell_length_c   14.67630255
_cell_angle_alpha   89.98719547
_cell_angle_beta   90.01117300
_cell_angle_gamma   120.00725852
_symmetry_Int_Tables_number   1
_chemical_formula_structural   H2O
_chemical_formula_sum   'H144 O72'
_cell_volume   2314.19161459
_cell_formula_units_Z   72
loop_
 _symmetry_equiv_pos_site_id
 _symmetry_equiv_pos_as_xyz
  1  'x, y, z'
loop_
 _atom_type_symbol
 _atom_type_oxidation_number
  H+  1.0
  O2-  -2.0
loop_
 _atom_site_type_symbol
 _atom_site_label
 _atom_site_symmetry_multiplicity
 _atom_site_fract_x
 _atom_site_fract_y
 _atom_site_fract_z
 _atom_site_occupancy
  H+  H0  1  0.52804921  1.03604143  0.51556428  1
  H+  H1  1  0.52378062  0.71153487  0.74089217  1
  H+  H2  1  0.68313585  0.50573604  0.73436515  1
  H+  H3  1  0.16799963  0.50648015  0.47545689  1
  H+  H4  1  0.80548743  0.83915930  0.23046997  1
  H+  H5  1  0.16984862  0.32135407  0.47138647  1
  H+  H6  1  0.87965690  0.13416941  0.99858707  1
  H+  H7  1  0.98117854  0.50058995  0.47799837  1
  H+  H8  1  0.86561515  0.81209507  0.77213068  1
  H+  H9  1  0.90626571  0.25311268  0.73048729  1
  H+  H10  1  0.66942715  0.50057465  0.01481529  1
  H+  H11  1  0.04019763  0.85037436  0.00859406  1
  H+  H12  1  0.54092521  0.44390819  0.85314958  1
  H+  H13  1  0.33480254  0.50003918  0.99030196  1
  H+  H14  1  1.01852227  0.52033532  0.24534840  1
  H+  H15  1  0.45324051  0.55126440  0.10261863  1
  H+  H16  1  0.51064962  0.37207874  0.27796895  1
  H+  H17  1  0.51803842  0.80293225  -0.01069998  1
  H+  H18  1  0.80923423  0.63449686  0.50451363  1
  H+  H19  1  0.08844019  0.54823542  0.11246024  1
  H+  H20  1  -0.10759351  0.12316573  0.40668115  1
  H+  H21  1  0.80995822  0.30521946  0.25872896  1
  H+  H22  1  0.55928446  0.13137939  1.04199747  1
  H+  H23  1  0.36229177  0.84205134  0.50471872  1
  H+  H24  1  0.69580731  0.19065117  0.73250939  1
  H+  H25  1  0.22878432  0.11405535  0.35388565  1
  H+  H26  1  0.44063984  0.32892860  0.73754024  1
  H+  H27  1  0.36056227  0.17512880  0.51936310  1
  H+  H28  1  0.70298473  0.85628976  0.51853413  1
  H+  H29  1  0.52713201  0.70534041  0.51286492  1
  H+  H30  1  0.84423886  0.69657890  0.25521158  1
  H+  H31  1  0.70742863  0.84406725  -0.00996547  1
  H+  H32  1  0.11738894  0.49095356  0.02959320  1
  H+  H33  1  0.29920558  0.81896015  0.25636603  1
  H+  H34  1  0.48158207  0.19200544  0.23432373  1
  H+  H35  1  0.20065733  0.03251022  0.77288563  1
  H+  H36  1  0.17249407  1.02046154  0.49767935  1
  H+  H37  1  0.77692851  0.29761661  0.02674323  1
  H+  H38  1  0.54016667  0.44932308  0.42283279  1
  H+  H39  1  0.18500820  0.14657546  0.48528643  1
  H+  H40  1  0.95772755  0.52603852  0.79015725  1
  H+  H41  1  0.48669863  0.63893705  0.24465552  1
  H+  H42  1  0.49977498  1.03265812  0.25044048  1
  H+  H43  1  0.17424901  0.68520686  0.47666842  1
  H+  H44  1  0.50543029  0.19307745  0.76128028  1
  H+  H45  1  0.45927758  0.83209734  0.73977717  1
  H+  H46  1  0.16913512  0.86268282  0.73481254  1
  H+  H47  1  -0.02214918  0.15158465  0.74907358  1
  H+  H48  1  0.68573850  0.51759220  0.25277144  1
  H+  H49  1  0.20269565  1.03541869  -0.00348211  1
  H+  H50  1  0.47706624  -0.01958643  0.79693912  1
  H+  H51  1  0.85708598  0.17010989  0.28618570  1
  H+  H52  1  0.03861136  0.45039917  0.69603302  1
  H+  H53  1  0.49088246  0.51874223  0.55279597  1
  H+  H54  1  0.63300536  0.81315548  0.25843318  1
  H+  H55  1  0.25369290  0.54149319  0.94805828  1
  H+  H56  1  0.15399408  0.68001773  0.75138817  1
  H+  H57  1  0.73110540  0.16439210  0.01794599  1
  H+  H58  1  0.82417748  0.83806159  0.99783884  1
  H+  H59  1  0.16116665  0.68165827  0.99073227  1
  H+  H60  1  0.86701128  0.01259369  0.98223796  1
  H+  H61  1  0.30566582  0.16315686  0.26408746  1
  H+  H62  1  0.14064004  0.52338244  0.24214440  1
  H+  H63  1  0.15909478  0.27498677  0.70213089  1
  H+  H64  1  0.15797605  0.19645682  0.25210405  1
  H+  H65  1  0.14511685  0.82395879  0.49615872  1
  H+  H66  1  0.36450100  0.52485670  0.23945215  1
  H+  H67  1  0.52593814  0.68937315  -0.01263876  1
  H+  H68  1  0.84714082  0.68991286  0.99884261  1
  H+  H69  1  0.50889309  0.48924778  0.27579462  1
  H+  H70  1  0.16601717  0.30375797  0.00796523  1
  H+  H71  1  0.05428591  0.17987965  0.00651181  1
  H+  H72  1  0.94054179  0.46839778  1.00561930  1
  H+  H73  1  0.17501571  0.70546449  0.25502559  1
  H+  H74  1  0.62801265  0.48339873  0.50453015  1
  H+  H75  1  0.87990197  0.35642059  0.73556363  1
  H+  H76  1  0.20424930  0.15598231  -0.00279583  1
  H+  H77  1  0.83892495  0.02698680  0.50047436  1
  H+  H78  1  0.17161853  0.51999260  0.70918308  1
  H+  H79  1  0.67034025  0.13951500  0.70128711  1
  H+  H80  1  0.18379560  0.38200642  0.25736515  1
  H+  H81  1  0.38668438  0.52615174  0.69723920  1
  H+  H82  1  0.96375888  0.81690874  0.25395578  1
  H+  H83  1  0.31039841  0.37272591  0.77844283  1
  H+  H84  1  0.84028011  0.15657684  0.50383781  1
  H+  H85  1  0.83076204  0.49366765  0.76617734  1
  H+  H86  1  0.41808208  0.26316213  -0.01237587  1
  H+  H87  1  0.84439230  0.68598378  0.76772628  1
  H+  H88  1  -0.02023264  0.17535191  0.28522500  1
  H+  H89  1  0.55313303  0.24843619  0.74302402  1
  H+  H90  1  0.17718305  0.80722814  0.98806983  1
  H+  H91  1  0.82154793  0.85816498  0.50741674  1
  H+  H92  1  0.89246641  0.76106898  0.90493754  1
  H+  H93  1  0.81770524  0.51994516  0.50403379  1
  H+  H94  1  0.52560819  0.50520066  0.76212909  1
  H+  H95  1  0.33707570  0.82674573  0.73730219  1
  H+  H96  1  0.85825471  0.38008605  0.48295005  1
  H+  H97  1  0.48703746  0.49711709  1.01402249  1
  H+  H98  1  0.95843113  0.80989159  0.47758665  1
  H+  H99  1  0.51798653  0.81734972  0.50029374  1
  H+  H100  1  0.35572429  0.81693783  1.01280744  1
  H+  H101  1  0.83756082  0.48649195  0.26012966  1
  H+  H102  1  0.78757397  0.50006486  1.02100695  1
  H+  H103  1  0.45661504  0.25980229  0.15486604  1
  H+  H104  1  0.15051751  -0.02388497  0.23996796  1
  H+  H105  1  0.47978246  0.84284614  0.25073397  1
  H+  H106  1  0.19368529  0.75327428  0.84474504  1
  H+  H107  1  0.29451162  0.17751334  0.76510721  1
  H+  H108  1  0.11747717  0.22940955  0.16134987  1
  H+  H109  1  0.39373832  0.24715431  0.64853238  1
  H+  H110  1  0.61614295  0.14891520  0.26634048  1
  H+  H111  1  0.43548366  0.86545613  0.15686793  1
  H+  H112  1  0.47449597  0.29926234  0.52328628  1
  H+  H113  1  0.71001170  0.19201512  0.53046921  1
  H+  H114  1  0.54373664  0.76831927  0.84025256  1
  H+  H115  1  0.76400771  0.87267821  0.14063246  1
  H+  H116  1  0.76419218  0.21802136  0.17641376  1
  H+  H117  1  0.75294452  0.54749599  0.15679446  1
  H+  H118  1  0.29249937  0.50899387  0.48510038  1
  H+  H119  1  0.22237877  0.77969575  0.39436178  1
  H+  H120  1  0.23677190  0.11199504  0.87601688  1
  H+  H121  1  0.20006377  0.94928977  0.65202810  1
  H+  H122  1  0.59951501  0.06699184  0.83347194  1
  H+  H123  1  0.26574291  0.43733202  0.83986694  1
  H+  H124  1  0.10730973  0.55942749  0.56766418  1
  H+  H125  1  0.12684981  0.15037539  0.67484948  1
  H+  H126  1  0.11924603  0.89371467  0.09691225  1
  H+  H127  1  0.91281655  0.12675311  0.84502756  1
  H+  H128  1  0.83554163  -0.02824245  0.74973762  1
  H+  H129  1  0.07077483  0.82506249  0.58112078  1
  H+  H130  1  0.82473293  0.25965798  0.59616860  1
  H+  H131  1  0.22383461  0.46758528  0.34249793  1
  H+  H132  1  0.15234282  0.85853714  0.23874958  1
  H+  H133  1  0.88493870  0.45530883  0.35015697  1
  H+  H134  1  0.46086566  0.93966838  0.03171838  1
  H+  H135  1  0.56296099  0.77722746  0.35374152  1
  H+  H136  1  0.87535945  0.77615782  0.39235427  1
  H+  H137  1  0.43019977  0.87560968  0.59914648  1
  H+  H138  1  0.76602699  0.54664376  0.64529008  1
  H+  H139  1  0.08581742  0.22325480  0.53633437  1
  H+  H140  1  0.52653502  0.15243756  0.52659206  1
  H+  H141  1  0.86310197  0.43833370  0.91597542  1
  H+  H142  1  0.80060603  0.89331704  0.66324016  1
  H+  H143  1  0.49522163  0.06997807  0.95169845  1
  O2-  O144  1  0.11767579  0.23660643  0.22839514  1
  O2-  O145  1  0.09608065  0.20188801  0.67953448  1
  O2-  O146  1  0.09819870  0.56194005  0.21897772  1
  O2-  O147  1  0.10565759  0.53033332  0.70102417  1
  O2-  O148  1  0.11034400  0.89691965  0.21456639  1
  O2-  O149  1  0.16006669  0.92705581  0.71035033  1
  O2-  O150  1  0.44602529  0.24164425  0.22030188  1
  O2-  O151  1  0.36884438  0.26847261  0.70767003  1
  O2-  O152  1  0.44646383  0.55810964  0.22090878  1
  O2-  O153  1  0.46732721  0.57020381  0.67552011  1
  O2-  O154  1  0.43631800  0.87803711  0.22401923  1
  O2-  O155  1  0.41794277  0.87314947  0.71752049  1
  O2-  O156  1  0.77283532  0.22162170  0.24356397  1
  O2-  O157  1  0.91122795  0.31908481  0.69544026  1
  O2-  O158  1  0.76365606  0.55382905  0.22465821  1
  O2-  O159  1  0.76400515  0.54384873  0.71378442  1
  O2-  O160  1  0.75690663  0.86987604  0.20762901  1
  O2-  O161  1  0.81214147  0.89346741  0.72962802  1
  O2-  O162  1  0.22492682  0.12013059  0.28646985  1
  O2-  O163  1  0.22697082  0.11029949  0.80338109  1
  O2-  O164  1  0.22209110  0.46500125  0.27355870  1
  O2-  O165  1  0.27238935  0.41827295  0.77496408  1
  O2-  O166  1  0.21759489  0.78602063  0.27736267  1
  O2-  O167  1  0.19290765  0.75828293  0.77646396  1
  O2-  O168  1  0.53201769  0.11361153  0.26886793  1
  O2-  O169  1  0.51917854  0.04171413  0.84353964  1
  O2-  O170  1  0.54862752  0.45107661  0.30452074  1
  O2-  O171  1  0.54546863  0.44845492  0.78473862  1
  O2-  O172  1  0.55368168  0.77464069  0.28668776  1
  O2-  O173  1  0.53450859  0.77904950  0.77443902  1
  O2-  O174  1  0.90288858  0.13803164  0.31391227  1
  O2-  O175  1  0.90391115  0.13245016  0.77851004  1
  O2-  O176  1  0.88189251  0.44942426  0.28126728  1
  O2-  O177  1  0.87860531  0.46582853  0.79997947  1
  O2-  O178  1  0.88379071  0.77757771  0.27755372  1
  O2-  O179  1  0.89301812  0.76095093  0.79690573  1
  O2-  O180  1  0.22323575  0.09955075  0.47595419  1
  O2-  O181  1  0.24381869  0.11596085  0.97197796  1
  O2-  O182  1  0.21850229  0.46701597  0.45459428  1
  O2-  O183  1  0.25716813  0.47154862  0.95684134  1
  O2-  O184  1  0.21951672  0.77334503  0.46238260  1
  O2-  O185  1  0.20690915  0.75821049  0.96219980  1
  O2-  O186  1  0.57578894  0.12041813  0.51068517  1
  O2-  O187  1  0.48534498  0.07074258  1.01896067  1
  O2-  O188  1  0.54412922  0.44696141  0.49112546  1
  O2-  O189  1  0.53470746  0.42708758  0.97303773  1
  O2-  O190  1  0.56404172  0.78048971  0.48204918  1
  O2-  O191  1  0.56095792  0.76806404  0.96109873  1
  O2-  O192  1  0.87901709  0.11132160  0.48026279  1
  O2-  O193  1  0.91645620  0.09829327  0.96610532  1
  O2-  O194  1  0.89329562  0.46028779  0.46148557  1
  O2-  O195  1  0.85982710  0.42913643  0.98362147  1
  O2-  O196  1  0.87630645  0.77610094  0.46101852  1
  O2-  O197  1  0.89531422  0.76874108  0.97446384  1
  O2-  O198  1  0.13297858  0.22593439  0.03281898  1
  O2-  O199  1  0.13394152  0.23739269  0.48269109  1
  O2-  O200  1  0.08408549  0.53915296  0.04275740  1
  O2-  O201  1  0.10572723  0.55947150  0.50089098  1
  O2-  O202  1  0.12227398  0.89263090  0.02852094  1
  O2-  O203  1  0.09822259  0.85983657  0.52136146  1
  O2-  O204  1  0.48490757  0.31625356  0.02387117  1
  O2-  O205  1  0.43467430  0.22190845  0.55232299  1
  O2-  O206  1  0.45340640  0.54861947  0.03440488  1
  O2-  O207  1  0.45433444  0.56434469  0.57530907  1
  O2-  O208  1  0.43386928  0.85504416  0.03880447  1
  O2-  O209  1  0.44099209  0.87980929  0.53152430  1
  O2-  O210  1  0.72972268  0.22132573  0.05766266  1
  O2-  O211  1  0.79722672  0.23497664  0.53275719  1
  O2-  O212  1  0.75000864  0.54405914  0.04014346  1
  O2-  O213  1  0.77276606  0.55487871  0.52949304  1
  O2-  O214  1  0.78770234  0.88541928  0.01363218  1
  O2-  O215  1  0.78617530  0.90089921  0.53529545  1
