# generated using pymatgen
data_H2O
_symmetry_space_group_name_H-M   'P 1'
_cell_length_a   13.50606132
_cell_length_b   13.49331711
_cell_length_c   14.68940782
_cell_angle_alpha   89.99685491
_cell_angle_beta   90.00591120
_cell_angle_gamma   120.10581400
_symmetry_Int_Tables_number   1
_chemical_formula_structural   H2O
_chemical_formula_sum   'H144 O72'
_cell_volume   2315.89201939
_cell_formula_units_Z   72
loop_
 _symmetry_equiv_pos_site_id
 _symmetry_equiv_pos_as_xyz
  1  'x, y, z'
loop_
 _atom_type_symbol
 _atom_type_oxidation_number
  H+  1.0
  O2-  -2.0
loop_
 _atom_site_type_symbol
 _atom_site_label
 _atom_site_symmetry_multiplicity
 _atom_site_fract_x
 _atom_site_fract_y
 _atom_site_fract_z
 _atom_site_occupancy
  H+  H0  1  0.36710443  0.39977550  0.18202938  1
  H+  H1  1  0.67253364  0.83046988  0.00152844  1
  H+  H2  1  0.14142797  0.25909978  0.67711831  1
  H+  H3  1  0.86023698  0.09064108  1.08785430  1
  H+  H4  1  0.50456478  0.00724036  0.26096827  1
  H+  H5  1  0.84880222  0.03367906  0.24715084  1
  H+  H6  1  0.10358722  0.12079887  0.44182458  1
  H+  H7  1  0.51067113  0.72686554  0.24660890  1
  H+  H8  1  0.21459915  0.53320652  0.99567398  1
  H+  H9  1  0.55851312  0.44836509  0.41427519  1
  H+  H10  1  0.69890528  0.52041297  0.74626407  1
  H+  H11  1  0.81197348  0.30214646  0.24713667  1
  H+  H12  1  0.81555445  0.51755508  0.25527605  1
  H+  H13  1  0.14913414  0.52567227  0.24474113  1
  H+  H14  1  0.30289257  0.16119757  0.25651934  1
  H+  H15  1  0.18006208  0.82558899  0.26778063  1
  H+  H16  1  0.84627454  0.37632429  0.76734352  1
  H+  H17  1  0.51703685  0.48005376  0.50857340  1
  H+  H18  1  0.50942986  0.66416894  0.75566250  1
  H+  H19  1  0.35798528  0.85229337  0.24195659  1
  H+  H20  1  0.48655592  0.30024209  0.02406730  1
  H+  H21  1  0.78365381  0.32598387  0.51944725  1
  H+  H22  1  0.02577970  0.18089957  0.22894761  1
  H+  H23  1  0.84973494  0.15581704  0.24937282  1
  H+  H24  1  1.03309687  0.52941684  0.74630749  1
  H+  H25  1  0.19609754  0.52326204  0.76446970  1
  H+  H26  1  0.44776420  0.66086756  0.48858114  1
  H+  H27  1  0.51194694  0.47087164  0.99655114  1
  H+  H28  1  0.54199373  0.10302327  0.85520739  1
  H+  H29  1  0.21012850  0.12342231  0.33791064  1
  H+  H30  1  0.52458494  0.36048459  0.27901701  1
  H+  H31  1  0.62305616  0.14283976  0.99408484  1
  H+  H32  1  0.82663092  0.31823879  1.01027861  1
  H+  H33  1  0.95626556  0.16561355  0.75296356  1
  H+  H34  1  0.31438295  0.83212318  0.75968863  1
  H+  H35  1  0.85574174  0.70996339  0.49228264  1
  H+  H36  1  1.01595524  0.16872153  1.02287230  1
  H+  H37  1  1.04221320  0.85294414  0.74531151  1
  H+  H38  1  0.52144219  0.49144688  0.77119388  1
  H+  H39  1  0.47935421  0.95950688  0.47734818  1
  H+  H40  1  0.16340519  0.85293845  0.74781390  1
  H+  H41  1  0.15861863  0.85836258  0.50008676  1
  H+  H42  1  0.82043834  0.85365212  0.23838629  1
  H+  H43  1  0.16593643  0.36858766  0.25936498  1
  H+  H44  1  0.81788879  0.64107146  0.74433347  1
  H+  H45  1  0.11802413  0.57706564  0.15785116  1
  H+  H46  1  0.48102723  0.17451218  0.26078747  1
  H+  H47  1  0.10809483  0.56545852  0.65515420  1
  H+  H48  1  0.80115590  0.19266573  0.73493667  1
  H+  H49  1  0.96325164  0.48501663  0.26458986  1
  H+  H50  1  0.70351881  0.53078576  0.51634737  1
  H+  H51  1  0.01860075  0.84114036  0.01179299  1
  H+  H52  1  0.06017400  0.55903752  0.00454363  1
  H+  H53  1  0.98024442  0.82206453  0.48263670  1
  H+  H54  1  0.50699380  0.14323744  0.00199819  1
  H+  H55  1  0.13583100  0.22111702  0.78021437  1
  H+  H56  1  0.88537927  0.78201021  0.35035293  1
  H+  H57  1  0.45061950  0.83103242  0.49332301  1
  H+  H58  1  0.88351926  0.90059128  0.50850593  1
  H+  H59  1  0.78324566  0.56878313  0.60500557  1
  H+  H60  1  0.36133797  0.47085139  0.55817056  1
  H+  H61  1  0.22265233  0.09931332  0.94240420  1
  H+  H62  1  0.14927632  0.97771551  0.24124716  1
  H+  H63  1  0.81271816  0.96339695  0.73000552  1
  H+  H64  1  0.36988090  0.52336456  0.00763252  1
  H+  H65  1  0.17813731  0.70590374  0.26642772  1
  H+  H66  1  0.17206166  0.00973069  1.02244641  1
  H+  H67  1  0.66309719  0.87437136  0.49460200  1
  H+  H68  1  0.85032870  0.81984272  0.75357679  1
  H+  H69  1  0.81767498  0.57721527  0.12244973  1
  H+  H70  1  0.68370950  0.19127432  0.75123226  1
  H+  H71  1  0.07623034  0.30683330  0.45837075  1
  H+  H72  1  0.51282836  0.03056813  0.76067041  1
  H+  H73  1  0.45620595  0.55982302  0.62322542  1
  H+  H74  1  0.85828434  0.70686603  0.99545631  1
  H+  H75  1  0.51675202  0.37007220  0.75970442  1
  H+  H76  1  0.63717378  0.48493263  0.27271904  1
  H+  H77  1  0.20148677  0.13649704  0.67422984  1
  H+  H78  1  0.49072264  0.18507638  0.74365232  1
  H+  H79  1  0.46779871  0.47683567  0.24649927  1
  H+  H80  1  0.12603481  0.50205859  0.51275126  1
  H+  H81  1  0.13453032  0.15587484  0.02375085  1
  H+  H82  1  0.88251980  0.50309891  0.99970821  1
  H+  H83  1  0.14639908  0.63160686  0.51066869  1
  H+  H84  1  0.19702483  0.01895049  0.69730119  1
  H+  H85  1  0.50761623  0.68950439  -0.01471046  1
  H+  H86  1  0.38565600  0.55221539  0.75861638  1
  H+  H87  1  0.79058365  0.94996454  0.00491568  1
  H+  H88  1  0.36827309  0.18025375  0.03937410  1
  H+  H89  1  0.28811615  0.47310533  0.26972193  1
  H+  H90  1  0.67962569  0.93038139  0.47189323  1
  H+  H91  1  0.81563300  0.63795185  0.25386880  1
  H+  H92  1  0.84839418  0.50073642  0.49261874  1
  H+  H93  1  0.49845440  0.86135753  0.73568882  1
  H+  H94  1  0.19462203  0.40580034  0.77088226  1
  H+  H95  1  0.50712638  0.24500710  0.61382823  1
  H+  H96  1  -0.05577168  0.09037457  0.48128582  1
  H+  H97  1  0.45344022  0.94314050  0.00575450  1
  H+  H98  1  -0.03490059  0.82139723  0.26228716  1
  H+  H99  1  0.96008941  0.48833997  0.49625429  1
  H+  H100  1  0.83595193  0.81277455  -0.01184905  1
  H+  H101  1  0.12596955  0.82014672  0.02320937  1
  H+  H102  1  0.55230319  0.42714701  0.91264268  1
  H+  H103  1  0.54396583  0.32784422  0.52124884  1
  H+  H104  1  0.37694149  0.17978823  0.70198273  1
  H+  H105  1  0.94219686  0.64722380  0.08622383  1
  H+  H106  1  0.46117266  0.82954622  1.00571226  1
  H+  H107  1  0.12142808  -0.09916529  0.58677374  1
  H+  H108  1  0.84094028  0.16448063  1.01715967  1
  H+  H109  1  0.85073437  0.49637399  0.76658037  1
  H+  H110  1  0.54442685  0.77326802  0.89499496  1
  H+  H111  1  0.45619311  0.90139436  0.64544029  1
  H+  H112  1  0.95051570  0.13866496  0.38094950  1
  H+  H113  1  0.45685018  0.22269785  0.16882714  1
  H+  H114  1  0.17886355  0.41103813  0.40826726  1
  H+  H115  1  0.24120501  0.48642150  0.90581425  1
  H+  H116  1  0.74031820  0.24953976  0.61211814  1
  H+  H117  1  0.29587224  0.81870723  0.49360872  1
  H+  H118  1  0.88533100  0.78145689  0.84612542  1
  H+  H119  1  0.69728839  0.17946488  0.24625864  1
  H+  H120  1  0.19572703  0.71664042  0.76524451  1
  H+  H121  1  0.43087205  0.88550999  0.14964425  1
  H+  H122  1  0.62178156  0.25747557  0.54622466  1
  H+  H123  1  0.15211674  0.18676257  0.23180277  1
  H+  H124  1  0.77458299  0.24033965  0.10014790  1
  H+  H125  1  0.15990519  0.11679701  0.83920238  1
  H+  H126  1  0.22383163  0.16028707  0.83541385  1
  H+  H127  1  0.44789149  0.54932577  0.09568408  1
  H+  H128  1  0.26355798  0.76402836  0.01112618  1
  H+  H129  1  0.15466729  0.04077069  0.47274244  1
  H+  H130  1  0.10417929  0.88718767  0.15926910  1
  H+  H131  1  0.86912197  0.11220906  0.83446057  1
  H+  H132  1  0.19579114  0.32469190  0.54160748  1
  H+  H133  1  0.76805062  0.87993605  0.14944497  1
  H+  H134  1  0.88493773  0.44567809  0.35473685  1
  H+  H135  1  0.62525515  0.88979412  0.81418027  1
  H+  H136  1  0.49420895  0.72870997  0.39602817  1
  H+  H137  1  0.83916284  0.93866455  0.59317593  1
  H+  H138  1  0.90663806  0.46081768  0.90405999  1
  H+  H139  1  0.10514919  0.21599452  0.11805846  1
  H+  H140  1  0.69595959  0.84589657  0.72790200  1
  H+  H141  1  0.22145637  0.22470830  0.54702853  1
  H+  H142  1  0.21741616  0.77634956  0.40535947  1
  H+  H143  1  0.63910849  0.79888261  0.27254539  1
  O2-  O144  1  0.10854771  0.22464007  0.20575919  1
  O2-  O145  1  0.10268807  0.25247820  0.73766720  1
  O2-  O146  1  0.10742610  0.56550091  0.22459840  1
  O2-  O147  1  0.11331654  0.57035327  0.72298474  1
  O2-  O148  1  0.10725200  0.89414149  0.22683890  1
  O2-  O149  1  0.11953196  0.88740651  0.71782260  1
  O2-  O150  1  0.44854512  0.22121826  0.23698774  1
  O2-  O151  1  0.46258200  0.23165971  0.71082183  1
  O2-  O152  1  0.40376013  0.47553018  0.20999998  1
  O2-  O153  1  0.46618401  0.58233468  0.73740704  1
  O2-  O154  1  0.43745654  0.89248175  0.21708278  1
  O2-  O155  1  0.45628765  0.90216705  0.71294757  1
  O2-  O156  1  0.77530933  0.22361488  0.21943372  1
  O2-  O157  1  0.76251494  0.23760913  0.72389574  1
  O2-  O158  1  0.77488437  0.55688576  0.23051119  1
  O2-  O159  1  0.77903977  0.55975667  0.72185683  1
  O2-  O160  1  0.78076667  0.89514731  0.21588262  1
  O2-  O161  1  0.77907460  0.88420572  0.70694750  1
  O2-  O162  1  0.21871920  0.12510332  0.26924860  1
  O2-  O163  1  0.24683743  0.09921023  0.67210654  1
  O2-  O164  1  0.20747594  0.44442147  0.28926963  1
  O2-  O165  1  0.24073273  0.48711913  0.78872219  1
  O2-  O166  1  0.22149142  0.78620021  0.28934752  1
  O2-  O167  1  0.23659318  0.79695751  0.78694651  1
  O2-  O168  1  0.54993217  0.09040651  0.28991319  1
  O2-  O169  1  0.54850972  0.11048406  0.78747672  1
  O2-  O170  1  0.55785864  0.44212761  0.29867906  1
  O2-  O171  1  0.55986906  0.44740030  0.78818656  1
  O2-  O172  1  0.56516474  0.73413912  0.29328685  1
  O2-  O173  1  0.57515953  0.81533764  0.78658674  1
  O2-  O174  1  0.89682588  0.11826166  0.26016417  1
  O2-  O175  1  0.87320246  0.11658264  0.76823455  1
  O2-  O176  1  0.88243698  0.44242926  0.28630747  1
  O2-  O177  1  0.89191981  0.45680108  0.78990650  1
  O2-  O178  1  0.88305751  0.77990757  0.28150259  1
  O2-  O179  1  0.89061514  0.78027962  0.77859452  1
  O2-  O180  1  0.17537612  0.11696072  0.44650963  1
  O2-  O181  1  0.21144842  0.09472164  1.00851723  1
  O2-  O182  1  0.14376744  0.38440410  0.46952001  1
  O2-  O183  1  0.24278566  0.48288899  0.97365573  1
  O2-  O184  1  0.21365869  0.77362237  0.47349867  1
  O2-  O185  1  0.17817864  0.72366128  1.00208452  1
  O2-  O186  1  0.55995503  0.07809465  0.38295650  1
  O2-  O187  1  0.54220172  0.10036852  0.97419856  1
  O2-  O188  1  0.56426387  0.44862697  0.48242887  1
  O2-  O189  1  0.54641413  0.42318165  0.97996088  1
  O2-  O190  1  0.44245152  0.71623019  0.44824069  1
  O2-  O191  1  0.54214923  0.77115912  0.96458646  1
  O2-  O192  1  0.99293736  0.15619164  0.43899328  1
  O2-  O193  1  0.87558031  0.11219202  1.02350429  1
  O2-  O194  1  0.88069356  0.45226481  0.47041126  1
  O2-  O195  1  0.91711124  0.46009745  0.97203189  1
  O2-  O196  1  0.89858686  0.78658411  0.46215874  1
  O2-  O197  1  0.88646618  0.78297618  0.96623314  1
  O2-  O198  1  0.09948031  0.20469343  0.04104166  1
  O2-  O199  1  0.22466260  0.28727670  0.58472850  1
  O2-  O200  1  0.13634032  0.60648872  0.03642186  1
  O2-  O201  1  0.09839061  0.55266217  0.53665485  1
  O2-  O202  1  0.09580589  0.87095123  0.04163833  1
  O2-  O203  1  0.11933382  0.90170741  0.51944196  1
  O2-  O204  1  0.45068695  0.22042441  0.05372217  1
  O2-  O205  1  0.53730958  0.25513424  0.54759851  1
  O2-  O206  1  0.45245714  0.55621686  0.02872014  1
  O2-  O207  1  0.43954223  0.53586970  0.55744952  1
  O2-  O208  1  0.41479197  0.86341563  0.02910266  1
  O2-  O209  1  0.43843557  0.89381886  0.51897413  1
  O2-  O210  1  0.77861803  0.23734216  0.03225820  1
  O2-  O211  1  0.71865687  0.25614802  0.54803805  1
  O2-  O212  1  0.86374186  0.60199618  0.06399866  1
  O2-  O213  1  0.78526120  0.57221865  0.53668371  1
  O2-  O214  1  0.75470839  0.86972519  0.02515932  1
  O2-  O215  1  0.88796067  0.96855530  0.53857543  1
