# generated using pymatgen
data_H2O
_symmetry_space_group_name_H-M   'P 1'
_cell_length_a   13.52231570
_cell_length_b   13.51701462
_cell_length_c   14.70432161
_cell_angle_alpha   89.97904040
_cell_angle_beta   89.99545626
_cell_angle_gamma   120.01953707
_symmetry_Int_Tables_number   1
_chemical_formula_structural   H2O
_chemical_formula_sum   'H144 O72'
_cell_volume   2327.13671380
_cell_formula_units_Z   72
loop_
 _symmetry_equiv_pos_site_id
 _symmetry_equiv_pos_as_xyz
  1  'x, y, z'
loop_
 _atom_type_symbol
 _atom_type_oxidation_number
  H+  1.0
  O2-  -2.0
loop_
 _atom_site_type_symbol
 _atom_site_label
 _atom_site_symmetry_multiplicity
 _atom_site_fract_x
 _atom_site_fract_y
 _atom_site_fract_z
 _atom_site_occupancy
  H+  H0  1  0.87014396  0.05144167  0.49149883  1
  H+  H1  1  0.50934579  0.53238412  0.22743754  1
  H+  H2  1  0.03446949  0.18382670  0.73961688  1
  H+  H3  1  0.82240554  0.18712219  0.50209152  1
  H+  H4  1  0.83164473  0.49629090  0.26771071  1
  H+  H5  1  0.84693910  0.14870257  0.99154062  1
  H+  H6  1  0.82432521  -0.02767184  0.76661345  1
  H+  H7  1  0.16365282  0.53120436  0.00939747  1
  H+  H8  1  0.85138074  0.81415431  0.77833733  1
  H+  H9  1  0.38045171  0.97328862  0.67219722  1
  H+  H10  1  0.17905260  0.48165386  0.75796833  1
  H+  H11  1  0.88227624  0.49609034  0.99258427  1
  H+  H12  1  -0.02178259  0.48122037  0.76108752  1
  H+  H13  1  0.15680036  0.63836094  0.73915511  1
  H+  H14  1  0.85707762  0.69768063  0.76805150  1
  H+  H15  1  0.29664107  0.14628036  0.47145028  1
  H+  H16  1  0.74006811  0.88246146  0.55312341  1
  H+  H17  1  0.14758642  0.96967757  0.51611513  1
  H+  H18  1  0.54120862  0.83384771  0.99653307  1
  H+  H19  1  0.11559367  0.22674537  0.59595523  1
  H+  H20  1  1.02919454  0.84419156  0.74838671  1
  H+  H21  1  0.16595251  0.86580884  -0.00512645  1
  H+  H22  1  0.29958060  0.49733838  0.99198707  1
  H+  H23  1  0.45272450  0.22305154  0.55021166  1
  H+  H24  1  0.89329381  0.11991248  0.85136643  1
  H+  H25  1  0.81959839  0.63946262  0.50769879  1
  H+  H26  1  0.50004195  0.98550841  -0.00347782  1
  H+  H27  1  0.04574550  0.52731926  0.00622141  1
  H+  H28  1  0.48471773  0.81100940  0.48556529  1
  H+  H29  1  0.49050848  0.83481938  0.22757397  1
  H+  H30  1  0.18143462  0.14748108  0.75320015  1
  H+  H31  1  0.82575647  0.31788681  1.00560678  1
  H+  H32  1  0.16645699  0.98404473  -0.00274530  1
  H+  H33  1  0.80214906  0.89771855  0.68077211  1
  H+  H34  1  0.46276631  0.61409002  0.49158654  1
  H+  H35  1  0.65266285  0.83216514  0.26105929  1
  H+  H36  1  0.28957268  0.47920383  0.47969613  1
  H+  H37  1  0.71532645  0.85682702  0.02509959  1
  H+  H38  1  0.29452638  0.82350295  0.28046349  1
  H+  H39  1  0.35584112  0.50685708  0.72398798  1
  H+  H40  1  0.63237864  0.45545158  1.03153391  1
  H+  H41  1  0.84620728  0.36553620  0.48632841  1
  H+  H42  1  0.50950546  0.65018914  0.23089114  1
  H+  H43  1  0.84689607  0.48443402  0.49370128  1
  H+  H44  1  0.98272765  0.17006552  0.48501549  1
  H+  H45  1  0.43022687  0.53576073  0.58040911  1
  H+  H46  1  0.51608588  0.47906404  0.46962309  1
  H+  H47  1  0.69955685  0.17746366  0.49977000  1
  H+  H48  1  0.46478615  0.34290564  0.97365677  1
  H+  H49  1  0.31504114  0.82977191  -0.02390654  1
  H+  H50  1  1.02870416  0.17551872  0.22419209  1
  H+  H51  1  0.18195095  0.15294865  0.48702776  1
  H+  H52  1  0.50742066  0.14206326  0.24574506  1
  H+  H53  1  0.22985298  0.11967975  0.89218515  1
  H+  H54  1  0.17831466  0.15045783  0.25068381  1
  H+  H55  1  0.52513162  0.36561405  0.45951120  1
  H+  H56  1  0.91030868  0.80817994  0.41279362  1
  H+  H57  1  0.14413991  0.63371030  0.51490664  1
  H+  H58  1  0.18216351  0.37579539  0.98774093  1
  H+  H59  1  0.19149270  0.16225908  0.98064523  1
  H+  H60  1  0.48940073  0.16504637  0.79307135  1
  H+  H61  1  0.53156427  0.71189793  1.00484122  1
  H+  H62  1  0.72548720  0.51315789  0.74799514  1
  H+  H63  1  0.83899373  0.86674113  0.24676319  1
  H+  H64  1  0.48924034  0.17270660  0.46861807  1
  H+  H65  1  0.35784115  0.17590930  0.23718477  1
  H+  H66  1  0.51141013  0.02002761  0.47606203  1
  H+  H67  1  0.90148447  0.78062910  0.91403620  1
  H+  H68  1  0.30185771  0.83115853  0.74006891  1
  H+  H69  1  0.15270547  0.30207987  0.74033232  1
  H+  H70  1  0.15815120  0.46899666  0.25472450  1
  H+  H71  1  0.17257873  0.48274867  0.49251367  1
  H+  H72  1  0.35669383  0.84773717  0.50447127  1
  H+  H73  1  0.83706490  0.86023899  0.02018874  1
  H+  H74  1  0.18166942  0.70280136  0.26978731  1
  H+  H75  1  0.85096455  0.03165543  0.99495475  1
  H+  H76  1  0.17638587  0.81522715  0.50118708  1
  H+  H77  1  0.69705938  0.19541359  1.00053409  1
  H+  H78  1  0.55618956  0.35066440  0.79144220  1
  H+  H79  1  0.37046462  0.17688129  0.00101404  1
  H+  H80  1  0.88787218  0.66779567  0.02544391  1
  H+  H81  1  0.50518508  0.83219028  0.74085739  1
  H+  H82  1  0.51159208  0.02429563  0.74741478  1
  H+  H83  1  0.58018132  0.45421624  0.33392583  1
  H+  H84  1  0.17742074  1.02589494  0.75726205  1
  H+  H85  1  0.61636714  0.82525110  0.75728114  1
  H+  H86  1  0.48038271  0.29201390  0.23444798  1
  H+  H87  1  0.11201913  0.22597218  0.08725334  1
  H+  H88  1  0.59063854  0.79048556  0.48534644  1
  H+  H89  1  0.15387478  0.30777553  0.50685542  1
  H+  H90  1  0.97794883  0.82618882  0.50426187  1
  H+  H91  1  0.37474377  0.17347211  0.78929896  1
  H+  H92  1  0.45523984  0.51381405  -0.00035978  1
  H+  H93  1  0.99296160  0.83823546  0.99468673  1
  H+  H94  1  0.69420012  0.47214221  0.03475797  1
  H+  H95  1  0.52976907  0.16347544  0.97956586  1
  H+  H96  1  0.03379276  0.54395909  0.23773633  1
  H+  H97  1  0.84648271  0.86820651  0.52573492  1
  H+  H98  1  0.50515007  0.02342554  0.23981846  1
  H+  H99  1  0.70179467  0.52158415  0.50288682  1
  H+  H100  1  0.86281885  0.48539035  0.75828342  1
  H+  H101  1  0.09730138  -0.03248415  0.25311677  1
  H+  H102  1  0.68777748  0.17053973  0.21772426  1
  H+  H103  1  0.43544015  0.90192387  0.59373357  1
  H+  H104  1  0.82283816  0.30088661  0.73558881  1
  H+  H105  1  0.85351576  0.15337056  0.75831061  1
  H+  H106  1  0.21112118  0.77281002  0.41083248  1
  H+  H107  1  0.64090884  0.13871415  0.75412018  1
  H+  H108  1  0.14877656  0.84426037  0.74130296  1
  H+  H109  1  0.40094602  0.36779306  0.89623642  1
  H+  H110  1  0.44678456  0.21715120  0.09091633  1
  H+  H111  1  0.55595861  0.78564461  0.34149091  1
  H+  H112  1  0.10904098  0.89174990  0.60807230  1
  H+  H113  1  0.93941456  0.75524016  0.27465208  1
  H+  H114  1  0.22270906  0.44741397  0.84669400  1
  H+  H115  1  0.02589233  0.51432921  0.51250104  1
  H+  H116  1  0.11612316  0.57274466  0.15056382  1
  H+  H117  1  0.58286236  0.45654022  0.84964911  1
  H+  H118  1  0.46552376  0.62825669  0.71317418  1
  H+  H119  1  0.41444769  0.26845585  0.65177370  1
  H+  H120  1  0.78227032  0.22291410  0.64559785  1
  H+  H121  1  0.19064674  0.42333165  0.34219192  1
  H+  H122  1  0.21052161  0.10823946  0.34303987  1
  H+  H123  1  0.55675910  0.09503777  0.38378221  1
  H+  H124  1  0.89694249  0.44047150  0.89769378  1
  H+  H125  1  0.11123526  0.55494149  0.65283662  1
  H+  H126  1  0.37100380  0.77961796  0.17982367  1
  H+  H127  1  0.35944683  0.21205156  0.64688737  1
  H+  H128  1  0.70500290  0.55589769  0.19613705  1
  H+  H129  1  0.45690269  0.90158930  0.08212427  1
  H+  H130  1  0.03510802  0.18747183  -0.00190073  1
  H+  H131  1  0.93418098  0.62034468  0.10325767  1
  H+  H132  1  0.84811884  0.03700541  0.25684574  1
  H+  H133  1  0.14194553  0.29519101  0.22846503  1
  H+  H134  1  0.44515396  0.56467063  0.09588828  1
  H+  H135  1  0.19568334  0.71225580  0.98207834  1
  H+  H136  1  0.77330105  0.22463317  0.10992041  1
  H+  H137  1  0.57389608  0.11679762  0.89474358  1
  H+  H138  1  0.89764272  0.48424049  0.35230345  1
  H+  H139  1  0.23282413  0.78483852  0.83622792  1
  H+  H140  1  0.81258105  0.17771323  0.22121576  1
  H+  H141  1  0.79399164  0.56158301  0.65391756  1
  H+  H142  1  0.89029656  0.12529866  0.33965265  1
  H+  H143  1  0.79595819  0.89730559  0.15521476  1
  O2-  O144  1  0.10883803  0.21482978  0.20214542  1
  O2-  O145  1  0.11406479  0.22231461  0.71489682  1
  O2-  O146  1  0.11422103  0.57127436  0.21842062  1
  O2-  O147  1  0.11437697  0.55552753  0.72101895  1
  O2-  O148  1  0.03521023  0.89928425  0.22004641  1
  O2-  O149  1  0.10795427  0.88581478  0.72108222  1
  O2-  O150  1  0.43837996  0.21119876  0.21425575  1
  O2-  O151  1  0.45542994  0.21331717  0.80879179  1
  O2-  O152  1  0.46959321  0.57192252  0.20542362  1
  O2-  O153  1  0.43035655  0.54818245  0.69186536  1
  O2-  O154  1  0.43267499  0.85379767  0.20027746  1
  O2-  O155  1  0.41549871  0.92761958  0.68822519  1
  O2-  O156  1  0.76791432  0.21204582  0.19347570  1
  O2-  O157  1  0.78288127  0.22005730  0.71339930  1
  O2-  O158  1  0.69260444  0.49086101  0.23404225  1
  O2-  O159  1  0.80462140  0.56402741  0.72074893  1
  O2-  O160  1  0.79114475  0.89769293  0.22426911  1
  O2-  O161  1  0.78419865  0.89039879  0.74629812  1
  O2-  O162  1  0.21300296  0.10516820  0.27522626  1
  O2-  O163  1  0.21989388  0.10693034  0.77876713  1
  O2-  O164  1  0.18477058  0.41645174  0.27513211  1
  O2-  O165  1  0.21800939  0.43916890  0.77906399  1
  O2-  O166  1  0.21550019  0.77857073  0.30133655  1
  O2-  O167  1  0.22339529  0.77905771  0.76862968  1
  O2-  O168  1  0.55122550  0.10202878  0.26219333  1
  O2-  O169  1  0.56574518  0.09563329  0.78520405  1
  O2-  O170  1  0.57415405  0.44484182  0.26470616  1
  O2-  O171  1  0.61150050  0.43446109  0.79663067  1
  O2-  O172  1  0.56872917  0.79138296  0.27446134  1
  O2-  O173  1  0.53239066  0.77914719  0.75386866  1
  O2-  O174  1  0.88375357  0.12028625  0.27200534  1
  O2-  O175  1  0.89591609  0.11633313  0.78351156  1
  O2-  O176  1  0.90778714  0.51648647  0.28990578  1
  O2-  O177  1  0.89662968  0.43906489  0.78246291  1
  O2-  O178  1  0.94873135  0.83042133  0.28859933  1
  O2-  O179  1  0.89650434  0.77650828  0.79478093  1
  O2-  O180  1  0.21271239  0.10462969  0.46172137  1
  O2-  O181  1  0.23595462  0.12549971  0.96033796  1
  O2-  O182  1  0.20628809  0.43837982  0.46501122  1
  O2-  O183  1  0.22005818  0.45648231  0.96554241  1
  O2-  O184  1  0.21484110  0.77301564  0.47975147  1
  O2-  O185  1  0.23458086  0.78982509  0.95386414  1
  O2-  O186  1  0.55583993  0.10053313  0.45120324  1
  O2-  O187  1  0.57699010  0.12739430  0.96323330  1
  O2-  O188  1  0.56578564  0.44916791  0.44566963  1
  O2-  O189  1  0.46105729  0.40625103  0.94136517  1
  O2-  O190  1  0.51711950  0.76335861  0.45628168  1
  O2-  O191  1  0.58633597  0.79472096  0.99583775  1
  O2-  O192  1  0.90133846  0.12765531  0.46264902  1
  O2-  O193  1  0.88772640  0.11088326  0.96766117  1
  O2-  O194  1  0.88913617  0.44769247  0.46817236  1
  O2-  O195  1  0.90037169  0.43791944  0.96613008  1
  O2-  O196  1  0.89750825  0.79210313  0.47839562  1
  O2-  O197  1  0.90747414  0.78878506  0.98154622  1
  O2-  O198  1  0.11602066  0.23050090  0.01889707  1
  O2-  O199  1  0.11623239  0.22560488  0.52785623  1
  O2-  O200  1  0.12429248  0.57361348  0.03094209  1
  O2-  O201  1  0.10575481  0.55255602  0.53686225  1
  O2-  O202  1  0.12466895  0.90360530  0.01885748  1
  O2-  O203  1  0.10752335  0.88952696  0.53944760  1
  O2-  O204  1  0.45155306  0.21982936  0.02343022  1
  O2-  O205  1  0.45102455  0.21895172  0.48379368  1
  O2-  O206  1  0.43405230  0.56743198  0.02815546  1
  O2-  O207  1  0.43183347  0.53382335  0.51109304  1
  O2-  O208  1  0.45666079  0.90338273  0.01491799  1
  O2-  O209  1  0.43943899  0.88836470  0.52282618  1
  O2-  O210  1  0.77827383  0.23446919  0.02920989  1
  O2-  O211  1  0.77789168  0.22300979  0.52517768  1
  O2-  O212  1  0.87755155  0.59550385  0.05501382  1
  O2-  O213  1  0.77985135  0.55931848  0.52977737  1
  O2-  O214  1  0.79909011  0.90236012  0.04430065  1
  O2-  O215  1  0.82283354  0.92072329  0.55579570  1
