# generated using pymatgen
data_H2O
_symmetry_space_group_name_H-M   'P 1'
_cell_length_a   13.51299585
_cell_length_b   13.51762385
_cell_length_c   14.68972561
_cell_angle_alpha   89.94034949
_cell_angle_beta   90.01830109
_cell_angle_gamma   120.02453522
_symmetry_Int_Tables_number   1
_chemical_formula_structural   H2O
_chemical_formula_sum   'H144 O72'
_cell_volume   2323.21093918
_cell_formula_units_Z   72
loop_
 _symmetry_equiv_pos_site_id
 _symmetry_equiv_pos_as_xyz
  1  'x, y, z'
loop_
 _atom_type_symbol
 _atom_type_oxidation_number
  H+  1.0
  O2-  -2.0
loop_
 _atom_site_type_symbol
 _atom_site_label
 _atom_site_symmetry_multiplicity
 _atom_site_fract_x
 _atom_site_fract_y
 _atom_site_fract_z
 _atom_site_occupancy
  H+  H0  1  0.45392046  0.56976615  0.09102074  1
  H+  H1  1  0.70806799  0.18937617  0.24969411  1
  H+  H2  1  0.03124038  0.17207910  0.49535633  1
  H+  H3  1  0.85726941  0.14574007  0.50403096  1
  H+  H4  1  0.57131133  0.71259720  0.99912065  1
  H+  H5  1  0.26725020  0.81850144  0.99510190  1
  H+  H6  1  0.52138346  0.03316575  0.98807356  1
  H+  H7  1  0.29585249  0.48778546  0.77074363  1
  H+  H8  1  0.14324564  0.66803823  0.47949190  1
  H+  H9  1  0.54668508  0.78655989  0.49710709  1
  H+  H10  1  0.64003845  0.79774823  0.26571259  1
  H+  H11  1  0.80696267  0.51832884  0.50420453  1
  H+  H12  1  -0.04538807  0.47134034  0.48555692  1
  H+  H13  1  0.81110838  0.50993597  0.23610365  1
  H+  H14  1  0.49189217  0.21050359  0.72588952  1
  H+  H15  1  0.76665276  0.54133319  0.10405568  1
  H+  H16  1  0.52022546  0.07868467  0.51128006  1
  H+  H17  1  0.40701821  0.80549575  0.52352483  1
  H+  H18  1  0.30875716  0.14948213  0.25088741  1
  H+  H19  1  0.13465061  0.86625863  0.75375878  1
  H+  H20  1  0.48346139  0.94573829  0.76359489  1
  H+  H21  1  0.40295188  0.51193436  0.61494482  1
  H+  H22  1  0.81194461  0.01507493  0.99677513  1
  H+  H23  1  0.15905999  0.85288442  0.23622550  1
  H+  H24  1  0.19073592  0.14258605  0.47145276  1
  H+  H25  1  0.14497392  0.62075859  0.70093599  1
  H+  H26  1  0.35921699  0.51936738  0.21416470  1
  H+  H27  1  0.37076736  0.85629053  0.23559392  1
  H+  H28  1  0.52464626  0.08547188  0.70316268  1
  H+  H29  1  0.46954699  0.50906784  0.75284543  1
  H+  H30  1  0.17627159  0.14774683  0.99016196  1
  H+  H31  1  0.81374222  0.18075746  -0.00287214  1
  H+  H32  1  0.58788594  0.77717538  0.85578067  1
  H+  H33  1  0.48022445  0.18391549  1.00053238  1
  H+  H34  1  0.20385536  0.81417511  0.65572712  1
  H+  H35  1  0.14973745  0.18861111  0.75571904  1
  H+  H36  1  0.48675829  0.62515041  0.22727063  1
  H+  H37  1  0.83382940  0.35081650  -0.00210158  1
  H+  H38  1  0.48761730  0.28936047  0.23909193  1
  H+  H39  1  0.14411396  0.50799107  0.73622714  1
  H+  H40  1  0.45372083  0.47345678  0.53265141  1
  H+  H41  1  0.82088203  0.29812674  0.50833001  1
  H+  H42  1  0.95171841  0.13560828  0.78165859  1
  H+  H43  1  0.31012962  0.80603263  0.69133173  1
  H+  H44  1  0.52307355  0.49233092  0.98850135  1
  H+  H45  1  0.28947014  0.46686666  0.48861989  1
  H+  H46  1  0.38952919  0.54001797  -0.00567569  1
  H+  H47  1  0.63494598  0.46320029  0.26033469  1
  H+  H48  1  0.79116323  0.89014123  0.60522640  1
  H+  H49  1  0.95319209  0.48081969  0.99769315  1
  H+  H50  1  0.13782987  0.28714310  0.01206373  1
  H+  H51  1  0.82937775  0.45495221  0.74625045  1
  H+  H52  1  0.14091164  0.50055197  0.49269383  1
  H+  H53  1  -0.03576568  0.83941334  0.76259682  1
  H+  H54  1  0.82862971  0.19526895  0.26211897  1
  H+  H55  1  0.49234107  0.34075612  0.49813679  1
  H+  H56  1  0.24068058  0.77975713  0.51745735  1
  H+  H57  1  0.19254846  0.05628632  0.75428275  1
  H+  H58  1  -0.02944005  0.80711380  0.25381067  1
  H+  H59  1  0.66758651  0.80258591  0.49325279  1
  H+  H60  1  0.14935211  0.51057330  0.23822886  1
  H+  H61  1  0.82437805  0.80757013  1.00030845  1
  H+  H62  1  0.69287399  0.50378542  0.73643808  1
  H+  H63  1  0.96217015  0.48557231  0.26296818  1
  H+  H64  1  0.23532950  0.10889813  0.34293156  1
  H+  H65  1  0.14005558  0.64096550  1.00575552  1
  H+  H66  1  0.36198262  0.18407328  0.00450556  1
  H+  H67  1  0.13713552  0.84166948  0.50746150  1
  H+  H68  1  0.17333332  0.36116534  0.45838901  1
  H+  H69  1  0.17953499  0.36338884  0.25067316  1
  H+  H70  1  0.14397095  0.97008508  0.01188137  1
  H+  H71  1  0.18744334  0.69863317  0.25391005  1
  H+  H72  1  0.49991086  0.22419588  0.49702378  1
  H+  H73  1  -0.02263274  0.15725280  0.27355756  1
  H+  H74  1  0.16252823  0.97164958  0.51036323  1
  H+  H75  1  0.69021445  0.50186330  0.00924344  1
  H+  H76  1  0.30986069  0.17607075  0.75018132  1
  H+  H77  1  0.85882312  1.02506460  0.50553476  1
  H+  H78  1  0.70120921  0.84601181  0.73710436  1
  H+  H79  1  -0.04946140  0.46036104  0.74536309  1
  H+  H80  1  0.10306604  0.89925288  0.10645270  1
  H+  H81  1  0.80804868  0.16926013  0.74380035  1
  H+  H82  1  0.95666565  0.84260654  0.99856040  1
  H+  H83  1  0.50818216  0.37459077  0.75579060  1
  H+  H84  1  0.43418997  0.83845045  0.02098496  1
  H+  H85  1  0.81247538  0.62887973  0.23412145  1
  H+  H86  1  0.10550053  0.55666400  -0.07760082  1
  H+  H87  1  0.47581407  0.62907079  0.75145210  1
  H+  H88  1  0.81893402  0.48406428  0.01244321  1
  H+  H89  1  0.18684936  0.47593241  0.99828667  1
  H+  H90  1  0.51236154  0.36749483  0.98910286  1
  H+  H91  1  0.83564954  0.85358308  0.51448959  1
  H+  H92  1  0.82313725  0.85184943  0.74321851  1
  H+  H93  1  0.15659686  0.81315724  1.03260380  1
  H+  H94  1  0.17506990  0.36930914  0.77392421  1
  H+  H95  1  0.15871192  0.97196779  0.24162250  1
  H+  H96  1  0.60480221  0.89214267  0.03616604  1
  H+  H97  1  0.31601758  0.15980770  0.48400423  1
  H+  H98  1  0.01870674  0.16674593  0.01354377  1
  H+  H99  1  0.83583349  0.01576704  0.76374743  1
  H+  H100  1  0.81574618  0.29568925  0.73791362  1
  H+  H101  1  0.48934237  0.97683424  0.24226006  1
  H+  H102  1  0.65287612  0.16636454  0.49347084  1
  H+  H103  1  0.69048261  0.52521328  0.50673188  1
  H+  H104  1  0.51728236  0.15015422  0.25296566  1
  H+  H105  1  0.64727063  0.15750997  0.74792431  1
  H+  H106  1  0.15661244  0.18138070  0.24228892  1
  H+  H107  1  0.50479706  0.92081665  0.48614531  1
  H+  H108  1  0.10604622  0.21204002  0.15534063  1
  H+  H109  1  0.44442979  0.21662758  0.14513311  1
  H+  H110  1  0.07750405  0.21586798  0.68370393  1
  H+  H111  1  0.90070276  0.11554312  0.36427582  1
  H+  H112  1  0.69657715  0.18418808  0.99069231  1
  H+  H113  1  0.14772993  0.23906765  0.55520752  1
  H+  H114  1  0.09567579  0.52813833  0.58551325  1
  H+  H115  1  0.56747314  0.41132942  0.35321416  1
  H+  H116  1  0.23636652  0.77006913  0.84609436  1
  H+  H117  1  0.76879399  0.53956902  0.64649903  1
  H+  H118  1  0.57074750  0.73482406  0.35453697  1
  H+  H119  1  0.55885219  0.11950013  0.34544726  1
  H+  H120  1  0.78200204  0.21894905  0.59962408  1
  H+  H121  1  0.11381857  0.90213440  0.65197667  1
  H+  H122  1  0.55039136  0.50682861  0.43039788  1
  H+  H123  1  0.54333194  0.10104140  0.89345533  1
  H+  H124  1  0.81226352  -0.01565216  0.24923860  1
  H+  H125  1  0.48229600  0.89316289  0.66644225  1
  H+  H126  1  0.88499364  0.77202274  0.33666627  1
  H+  H127  1  0.45064357  0.24747984  0.63456469  1
  H+  H128  1  0.18292971  0.77463691  0.84390518  1
  H+  H129  1  0.22528735  0.45031715  0.33484392  1
  H+  H130  1  0.75640987  0.91551709  0.15867248  1
  H+  H131  1  0.22030916  0.43791434  0.90847567  1
  H+  H132  1  0.55113197  0.44695607  0.84917616  1
  H+  H133  1  0.22319319  0.11852244  0.90005720  1
  H+  H134  1  0.10695681  0.55231706  0.15352025  1
  H+  H135  1  0.88542637  0.80096970  0.85054449  1
  H+  H136  1  0.84519239  0.36378026  0.26386836  1
  H+  H137  1  0.84751516  0.69941011  0.49120795  1
  H+  H138  1  0.86777367  0.08686019  0.90730248  1
  H+  H139  1  0.52441544  0.80670315  0.77639020  1
  H+  H140  1  0.47292362  0.90552485  0.11847124  1
  H+  H141  1  0.87377213  0.43587299  0.39873460  1
  H+  H142  1  0.22081513  0.77432437  0.34298228  1
  H+  H143  1  -0.03277668  0.81773903  0.49361748  1
  O2-  O144  1  0.11348615  0.22024898  0.22280699  1
  O2-  O145  1  0.09778645  0.22243301  0.74777291  1
  O2-  O146  1  0.11034720  0.55561811  0.21974333  1
  O2-  O147  1  0.09845908  0.53663128  0.70304696  1
  O2-  O148  1  0.11664983  0.89216100  0.21687809  1
  O2-  O149  1  0.11533105  0.91625209  0.71975974  1
  O2-  O150  1  0.44185539  0.20868966  0.21267015  1
  O2-  O151  1  0.44398072  0.24131650  0.70350583  1
  O2-  O152  1  0.43729089  0.55519710  0.18887269  1
  O2-  O153  1  0.42556872  0.54801610  0.73316901  1
  O2-  O154  1  0.45073503  0.89956401  0.21316487  1
  O2-  O155  1  0.45166757  0.87368092  0.72910447  1
  O2-  O156  1  0.79107011  0.23686514  0.23754831  1
  O2-  O157  1  0.77048042  0.20957545  0.71577744  1
  O2-  O158  1  0.76847344  0.54704873  0.21137516  1
  O2-  O159  1  0.76839225  0.52245021  0.71236444  1
  O2-  O160  1  0.76811467  0.90649444  0.22283443  1
  O2-  O161  1  0.78200517  0.89321482  0.71669748  1
  O2-  O162  1  0.22809017  0.11068139  0.27549799  1
  O2-  O163  1  0.23148034  0.13602717  0.77790146  1
  O2-  O164  1  0.21679528  0.44629782  0.26701960  1
  O2-  O165  1  0.21372679  0.45059833  0.79342857  1
  O2-  O166  1  0.22757191  0.77940334  0.27593702  1
  O2-  O167  1  0.23840508  0.76583103  0.65507240  1
  O2-  O168  1  0.55981338  0.11288385  0.27857234  1
  O2-  O169  1  0.55956790  0.11731980  0.76192345  1
  O2-  O170  1  0.55892427  0.40773783  0.28647623  1
  O2-  O171  1  0.54739699  0.45314719  0.78144763  1
  O2-  O172  1  0.56387800  0.73699803  0.28746345  1
  O2-  O173  1  0.56837353  0.76789957  0.78972264  1
  O2-  O174  1  0.89764054  0.12191108  0.29702945  1
  O2-  O175  1  0.86840331  0.09419324  0.79353231  1
  O2-  O176  1  0.88187429  0.44777255  0.28413484  1
  O2-  O177  1  0.87132567  0.41403446  0.76741433  1
  O2-  O178  1  0.88923079  0.75927576  0.27119771  1
  O2-  O179  1  0.88444999  0.79501323  0.78252598  1
  O2-  O180  1  0.23640210  0.10397821  0.46217439  1
  O2-  O181  1  0.22059826  0.11129226  0.96742633  1
  O2-  O182  1  0.21759080  0.44541706  0.45087438  1
  O2-  O183  1  0.22402910  0.43353230  0.97652748  1
  O2-  O184  1  0.18715486  0.75301334  0.46613645  1
  O2-  O185  1  0.20194683  0.77183616  1.03395318  1
  O2-  O186  1  0.57229684  0.13655721  0.46891969  1
  O2-  O187  1  0.54769246  0.10973396  0.95992328  1
  O2-  O188  1  0.56167924  0.46136066  0.47633549  1
  O2-  O189  1  0.55862651  0.44733357  0.96548698  1
  O2-  O190  1  0.58709489  0.74925618  0.47396060  1
  O2-  O191  1  0.63553612  0.78275148  0.96774169  1
  O2-  O192  1  0.90042914  0.10778217  0.48312180  1
  O2-  O193  1  0.87135738  0.09132604  0.97559293  1
  O2-  O194  1  0.87247431  0.43076997  0.46722105  1
  O2-  O195  1  0.86956519  0.43862403  0.98686933  1
  O2-  O196  1  0.88900038  0.78127861  0.46877947  1
  O2-  O197  1  0.88853003  0.82348212  0.96091520  1
  O2-  O198  1  0.09987633  0.20649128  0.03412071  1
  O2-  O199  1  0.11936906  0.21648657  0.49361280  1
  O2-  O200  1  0.10308107  0.55657259  -0.01117449  1
  O2-  O201  1  0.09593332  0.53568045  0.51775338  1
  O2-  O202  1  0.09703942  0.89184704  0.03791771  1
  O2-  O203  1  0.11665475  0.89403549  0.53953061  1
  O2-  O204  1  0.44332270  0.22615894  0.02533124  1
  O2-  O205  1  0.45134973  0.25364135  0.52074359  1
  O2-  O206  1  0.46753701  0.57842793  0.01983968  1
  O2-  O207  1  0.38401010  0.47423287  0.55469078  1
  O2-  O208  1  0.49402473  0.90948311  0.04717972  1
  O2-  O209  1  0.47536635  0.87611558  0.54193811  1
  O2-  O210  1  0.77730056  0.22734150  0.01047943  1
  O2-  O211  1  0.78272939  0.21655290  0.53129347  1
  O2-  O212  1  0.76994705  0.53614135  0.03469122  1
  O2-  O213  1  0.77496251  0.56517218  0.52767527  1
  O2-  O214  1  0.67306964  0.87993682  0.03034010  1
  O2-  O215  1  0.79671895  0.89637564  0.53687167  1
