# generated using pymatgen
data_H2O
_symmetry_space_group_name_H-M   'P 1'
_cell_length_a   13.50992451
_cell_length_b   13.51908363
_cell_length_c   14.70613823
_cell_angle_alpha   90.01166105
_cell_angle_beta   89.96755999
_cell_angle_gamma   120.01451746
_symmetry_Int_Tables_number   1
_chemical_formula_structural   H2O
_chemical_formula_sum   'H144 O72'
_cell_volume   2325.76499887
_cell_formula_units_Z   72
loop_
 _symmetry_equiv_pos_site_id
 _symmetry_equiv_pos_as_xyz
  1  'x, y, z'
loop_
 _atom_type_symbol
 _atom_type_oxidation_number
  H+  1.0
  O2-  -2.0
loop_
 _atom_site_type_symbol
 _atom_site_label
 _atom_site_symmetry_multiplicity
 _atom_site_fract_x
 _atom_site_fract_y
 _atom_site_fract_z
 _atom_site_occupancy
  H+  H0  1  0.30828894  0.84722600  0.00052597  1
  H+  H1  1  0.63373056  0.15567945  0.24102445  1
  H+  H2  1  0.36899255  0.50651887  0.51021401  1
  H+  H3  1  0.15265885  0.18991251  0.50218940  1
  H+  H4  1  0.21812894  0.94987984  0.18739408  1
  H+  H5  1  0.17997761  0.81006459  0.48811058  1
  H+  H6  1  0.47471826  0.17854594  0.23054147  1
  H+  H7  1  0.81775277  0.66174886  0.99387045  1
  H+  H8  1  0.49252128  0.51674620  0.22617842  1
  H+  H9  1  0.83882849  0.16232073  0.47609634  1
  H+  H10  1  0.81840140  0.51759533  0.22132365  1
  H+  H11  1  0.17800092  0.16638376  0.76217337  1
  H+  H12  1  0.88628417  0.27051716  0.18629231  1
  H+  H13  1  0.74961576  0.47460177  0.98782803  1
  H+  H14  1  0.14515410  0.48370705  0.74238839  1
  H+  H15  1  0.70338204  0.51514867  0.21271248  1
  H+  H16  1  0.47115204  0.63111459  0.99954755  1
  H+  H17  1  1.01333477  0.17114642  1.01248574  1
  H+  H18  1  0.46884017  0.05451019  0.79004120  1
  H+  H19  1  -0.02214130  0.49726660  0.76667491  1
  H+  H20  1  0.43803194  0.54411762  0.08038565  1
  H+  H21  1  0.88519442  0.11133396  0.34182821  1
  H+  H22  1  0.32390398  0.17744871  0.99232696  1
  H+  H23  1  0.49024683  0.94425393  0.71602901  1
  H+  H24  1  0.85886927  0.38570376  0.78127942  1
  H+  H25  1  0.56433573  0.12624809  0.85905911  1
  H+  H26  1  0.85062691  0.05255593  0.47521551  1
  H+  H27  1  0.51701553  0.35277471  0.47623529  1
  H+  H28  1  0.86608320  0.03963168  0.75500068  1
  H+  H29  1  0.88340532  0.09924208  0.90728890  1
  H+  H30  1  0.17606145  0.36783753  0.99319588  1
  H+  H31  1  0.83319960  0.32796822  0.24396918  1
  H+  H32  1  0.04208334  0.16670865  0.75937880  1
  H+  H33  1  0.28639491  0.45384348  0.76524011  1
  H+  H34  1  0.81615326  0.18056709  0.00724335  1
  H+  H35  1  0.85764444  0.81579442  0.48054551  1
  H+  H36  1  0.85584928  0.71887685  0.76779912  1
  H+  H37  1  0.43536813  0.58965619  0.73135458  1
  H+  H38  1  0.02519885  0.18928165  0.23954751  1
  H+  H39  1  0.78953108  0.57688016  0.65577138  1
  H+  H40  1  0.35621155  0.18115983  0.23329150  1
  H+  H41  1  0.15652601  0.51664681  0.24648524  1
  H+  H42  1  0.61381568  0.81593665  0.57471212  1
  H+  H43  1  0.17087153  0.15857209  0.25547655  1
  H+  H44  1  0.49322499  0.20038651  0.73683730  1
  H+  H45  1  0.29920402  0.48651804  0.98719035  1
  H+  H46  1  0.51455436  0.36854619  0.24661987  1
  H+  H47  1  0.71523205  0.19467885  0.74484795  1
  H+  H48  1  0.19655320  0.48622734  0.48339889  1
  H+  H49  1  0.17705781  0.68231905  0.26084659  1
  H+  H50  1  0.31582334  0.16296135  0.75805618  1
  H+  H51  1  0.28903877  0.80908088  0.75976333  1
  H+  H52  1  0.35418691  0.17606906  0.50539193  1
  H+  H53  1  1.04199060  0.20243562  0.49803970  1
  H+  H54  1  0.18157761  0.60971906  0.71989573  1
  H+  H55  1  0.81961561  0.53602482  0.74885831  1
  H+  H56  1  0.51777636  0.47946463  0.75666383  1
  H+  H57  1  0.54621840  0.77271466  0.28933734  1
  H+  H58  1  0.35068323  0.84843351  0.48580935  1
  H+  H59  1  -0.03262298  0.47679721  0.49266407  1
  H+  H60  1  0.02207198  0.85206265  0.72458457  1
  H+  H61  1  0.56446723  0.72521000  0.77554127  1
  H+  H62  1  0.84087796  0.79010744  -0.00493180  1
  H+  H63  1  0.70712810  0.86862919  0.73211545  1
  H+  H64  1  0.14842877  0.62479182  0.50860667  1
  H+  H65  1  0.64583488  0.49519210  0.74881398  1
  H+  H66  1  0.98512572  0.78790298  1.01628452  1
  H+  H67  1  0.15844070  0.29151561  0.76238382  1
  H+  H68  1  0.85853565  0.83528633  0.75469351  1
  H+  H69  1  0.29620292  0.80459727  0.26011824  1
  H+  H70  1  0.84226341  0.65120172  0.51668636  1
  H+  H71  1  0.18964087  0.37318234  0.25737677  1
  H+  H72  1  0.83294628  0.13814087  0.25661725  1
  H+  H73  1  0.87178289  0.15872089  0.76836210  1
  H+  H74  1  0.50545408  0.04126671  0.45877961  1
  H+  H75  1  -0.01150114  0.83120219  0.25783264  1
  H+  H76  1  0.83691150  0.92833581  0.58178230  1
  H+  H77  1  0.13827822  0.82111533  1.01227683  1
  H+  H78  1  0.11777708  0.88870836  0.58760545  1
  H+  H79  1  0.52688742  0.16478427  0.99280386  1
  H+  H80  1  0.81812203  0.96166275  0.23225684  1
  H+  H81  1  0.18288226  0.03091759  0.48544632  1
  H+  H82  1  0.67396827  0.18014887  0.48236954  1
  H+  H83  1  0.70235801  0.84322527  0.21651169  1
  H+  H84  1  0.47459636  0.84899794  0.21422622  1
  H+  H85  1  0.82974114  0.52852521  0.52242006  1
  H+  H86  1  0.52453583  0.81755871  0.76659992  1
  H+  H87  1  0.47842873  0.62385678  0.54136203  1
  H+  H88  1  0.54426938  0.47930643  0.48331984  1
  H+  H89  1  0.04654432  0.85431215  0.49581071  1
  H+  H90  1  0.49452271  0.98700756  0.00532366  1
  H+  H91  1  0.84214514  0.36541567  0.49268081  1
  H+  H92  1  0.51014705  0.69092958  0.20638295  1
  H+  H93  1  0.51906070  0.82872865  0.99797463  1
  H+  H94  1  0.83941406  1.01612585  -0.00631678  1
  H+  H95  1  0.15605398  0.72590170  0.78087921  1
  H+  H96  1  0.14300271  0.51682383  0.01619384  1
  H+  H97  1  0.70022911  0.84140428  0.00982976  1
  H+  H98  1  0.64825511  0.16634994  -0.01139773  1
  H+  H99  1  0.16514292  0.03761998  0.26129928  1
  H+  H100  1  0.50849499  0.81875871  0.52848546  1
  H+  H101  1  0.50389684  0.15860100  0.47417286  1
  H+  H102  1  0.84341575  0.37638832  0.99031843  1
  H+  H103  1  0.47714792  0.96825122  0.23289592  1
  H+  H104  1  0.14932537  0.87365094  0.73178431  1
  H+  H105  1  -0.02632320  0.48847586  0.26830387  1
  H+  H106  1  0.50641888  0.30729946  1.00818990  1
  H+  H107  1  0.37347241  0.51700402  0.22713315  1
  H+  H108  1  0.08243471  0.84465377  0.10689467  1
  H+  H109  1  0.44443139  0.90579899  0.09339824  1
  H+  H110  1  0.24027391  0.45300003  0.34522157  1
  H+  H111  1  0.13585695  0.17860155  0.01605536  1
  H+  H112  1  0.24227249  0.12382027  0.85211695  1
  H+  H113  1  0.59196445  0.44743850  0.88561910  1
  H+  H114  1  0.56647100  0.79389795  0.91256479  1
  H+  H115  1  0.55754874  0.12429782  0.33070678  1
  H+  H116  1  0.78968570  0.88096642  0.09138777  1
  H+  H117  1  0.86668126  0.82162981  0.25490838  1
  H+  H118  1  0.55855357  0.44358994  0.33638281  1
  H+  H119  1  0.90696249  0.78814523  0.39196343  1
  H+  H120  1  0.42221338  0.51563733  0.64396704  1
  H+  H121  1  0.88762306  0.46776973  0.91065953  1
  H+  H122  1  0.03024475  0.52652840  0.02216580  1
  H+  H123  1  0.82067074  0.26706210  0.67846829  1
  H+  H124  1  0.19553579  0.36746003  0.48241043  1
  H+  H125  1  0.77805163  0.23264862  0.08965147  1
  H+  H126  1  0.88880492  0.44864493  0.35508748  1
  H+  H127  1  0.62649593  0.80258509  0.39616561  1
  H+  H128  1  0.21268595  0.43175374  0.85972750  1
  H+  H129  1  0.46001401  0.83607238  0.65398631  1
  H+  H130  1  0.16577658  0.83625757  0.24371983  1
  H+  H131  1  0.43913421  0.21764137  0.59244293  1
  H+  H132  1  0.49201708  0.31640198  0.73204518  1
  H+  H133  1  0.45015199  0.22789045  0.09779439  1
  H+  H134  1  0.72624163  0.17675599  0.57571880  1
  H+  H135  1  0.22889358  0.80420314  0.91240053  1
  H+  H136  1  0.42096983  0.93338070  0.56335150  1
  H+  H137  1  0.10956278  0.55173188  0.15777844  1
  H+  H138  1  0.28013480  0.24888132  0.94455919  1
  H+  H139  1  0.10985519  0.53601675  0.59204412  1
  H+  H140  1  0.10213001  0.22818991  0.15017800  1
  H+  H141  1  0.21773798  0.11494915  0.39920393  1
  H+  H142  1  0.21300340  0.76109635  0.40012034  1
  H+  H143  1  0.58258191  0.73939542  0.39737404  1
  O2-  O144  1  0.10601694  0.23056353  0.21848750  1
  O2-  O145  1  0.12508202  0.20914637  0.74087508  1
  O2-  O146  1  0.11191922  0.55415297  0.22725964  1
  O2-  O147  1  0.11582594  0.53304429  0.71436635  1
  O2-  O148  1  0.14492144  0.89161317  0.21238307  1
  O2-  O149  1  0.09786565  0.88458785  0.69180793  1
  O2-  O150  1  0.43521664  0.21948725  0.20843343  1
  O2-  O151  1  0.44792590  0.23334162  0.71221181  1
  O2-  O152  1  0.45055728  0.55407138  0.19821378  1
  O2-  O153  1  0.41551226  0.51231945  0.71480167  1
  O2-  O154  1  0.42954888  0.88920835  0.20866593  1
  O2-  O155  1  0.43983001  0.86126214  0.71128396  1
  O2-  O156  1  0.81109504  0.25191637  0.20963229  1
  O2-  O157  1  0.79924683  0.23456456  0.73950194  1
  O2-  O158  1  0.77650321  0.54147118  0.18097142  1
  O2-  O159  1  0.77741986  0.57258733  0.72481475  1
  O2-  O160  1  0.78653270  0.88323249  0.20704048  1
  O2-  O161  1  0.78595472  0.90655116  0.70440387  1
  O2-  O162  1  0.21187606  0.11842823  0.27853938  1
  O2-  O163  1  0.23615769  0.12080914  0.78414875  1
  O2-  O164  1  0.23563644  0.45435586  0.27708529  1
  O2-  O165  1  0.20692984  0.41999440  0.79013515  1
  O2-  O166  1  0.21672080  0.76445149  0.28516730  1
  O2-  O167  1  0.22232230  0.80039577  0.79398516  1
  O2-  O168  1  0.55455205  0.11434480  0.26272953  1
  O2-  O169  1  0.54968395  0.11329548  0.79019338  1
  O2-  O170  1  0.55437250  0.44851533  0.26822819  1
  O2-  O171  1  0.56496835  0.44500220  0.77380737  1
  O2-  O172  1  0.54813626  0.77585398  0.22285669  1
  O2-  O173  1  0.58527490  0.80329297  0.79092951  1
  O2-  O174  1  0.87899262  0.10280095  0.27417294  1
  O2-  O175  1  0.90696298  0.11318632  0.78835020  1
  O2-  O176  1  0.89138112  0.44593001  0.28714153  1
  O2-  O177  1  0.90045153  0.46869938  0.79232758  1
  O2-  O178  1  0.91334869  0.79432288  0.28654098  1
  O2-  O179  1  0.90275300  0.80200752  0.77961221  1
  O2-  O180  1  0.21976735  0.11351972  0.46680454  1
  O2-  O181  1  0.25313602  0.16952354  0.96147769  1
  O2-  O182  1  0.24140092  0.45061996  0.46173632  1
  O2-  O183  1  0.21528611  0.44473644  0.96509260  1
  O2-  O184  1  0.21834158  0.76526019  0.46832075  1
  O2-  O185  1  0.22699440  0.80575852  0.97945568  1
  O2-  O186  1  0.54811364  0.12443462  0.44349745  1
  O2-  O187  1  0.56677730  0.12538943  0.96580266  1
  O2-  O188  1  0.56394978  0.42941545  0.44895936  1
  O2-  O189  1  0.59147723  0.42957986  0.95212426  1
  O2-  O190  1  0.52934795  0.77836741  0.57382879  1
  O2-  O191  1  0.55817923  0.78567566  0.97921945  1
  O2-  O192  1  0.88897815  0.13169642  0.45500887  1
  O2-  O193  1  0.87677028  0.09919738  0.97463964  1
  O2-  O194  1  0.88679312  0.44498599  0.47129269  1
  O2-  O195  1  0.87307790  0.45835484  0.97721108  1
  O2-  O196  1  0.90680026  0.78615776  0.46166018  1
  O2-  O197  1  0.87674950  0.74226791  0.98427157  1
  O2-  O198  1  0.09391674  0.21736497  0.03599079  1
  O2-  O199  1  0.12130273  0.24002932  0.51970700  1
  O2-  O200  1  0.10582264  0.55280809  0.04986406  1
  O2-  O201  1  0.10995609  0.54172817  0.52481794  1
  O2-  O202  1  0.07396828  0.83730647  0.03947881  1
  O2-  O203  1  0.12707608  0.89199009  0.51825152  1
  O2-  O204  1  0.45545241  0.22676103  0.02935516  1
  O2-  O205  1  0.43660204  0.21173113  0.52483622  1
  O2-  O206  1  0.42741373  0.54848227  0.01374476  1
  O2-  O207  1  0.44473535  0.54003748  0.54327421  1
  O2-  O208  1  0.44976580  0.90545186  0.02555612  1
  O2-  O209  1  0.43304136  0.90488013  0.50582190  1
  O2-  O210  1  0.78060134  0.22831247  0.02245479  1
  O2-  O211  1  0.75064123  0.20909313  0.51509485  1
  O2-  O212  1  0.70282870  0.51331593  -0.01276166  1
  O2-  O213  1  0.80417605  0.57825087  0.55055320  1
  O2-  O214  1  0.78402311  0.87927465  0.02337169  1
  O2-  O215  1  0.76442359  0.86971790  0.60855540  1
