# generated using pymatgen
data_H2O
_symmetry_space_group_name_H-M   'P 1'
_cell_length_a   13.50676602
_cell_length_b   13.50281898
_cell_length_c   14.68691100
_cell_angle_alpha   90.00904952
_cell_angle_beta   89.95031090
_cell_angle_gamma   119.94421714
_symmetry_Int_Tables_number   1
_chemical_formula_structural   H2O
_chemical_formula_sum   'H144 O72'
_cell_volume   2321.02905242
_cell_formula_units_Z   72
loop_
 _symmetry_equiv_pos_site_id
 _symmetry_equiv_pos_as_xyz
  1  'x, y, z'
loop_
 _atom_type_symbol
 _atom_type_oxidation_number
  H+  1.0
  O2-  -2.0
loop_
 _atom_site_type_symbol
 _atom_site_label
 _atom_site_symmetry_multiplicity
 _atom_site_fract_x
 _atom_site_fract_y
 _atom_site_fract_z
 _atom_site_occupancy
  H+  H0  1  0.82430946  0.19369656  0.49487788  1
  H+  H1  1  0.17312682  1.03011086  -0.00980243  1
  H+  H2  1  0.97384649  0.16592662  0.48311563  1
  H+  H3  1  0.69592188  0.85844055  0.02153877  1
  H+  H4  1  0.69207529  0.83405695  0.25125691  1
  H+  H5  1  0.83760569  0.45911335  -0.02735811  1
  H+  H6  1  0.51717729  1.01435119  0.01163980  1
  H+  H7  1  0.75385972  0.54282745  0.35119760  1
  H+  H8  1  0.52786557  0.44062551  0.55920797  1
  H+  H9  1  0.60742528  0.50521062  0.20414393  1
  H+  H10  1  0.10158195  0.54673928  0.09216932  1
  H+  H11  1  0.14340218  0.52511146  0.23519591  1
  H+  H12  1  0.84801430  0.82101044  0.99319065  1
  H+  H13  1  1.02165188  0.85141344  1.00990552  1
  H+  H14  1  0.83345612  0.51990656  0.76180366  1
  H+  H15  1  0.17240706  0.03469801  0.48820538  1
  H+  H16  1  0.03064316  0.18272134  0.00235895  1
  H+  H17  1  0.77387918  0.22049823  0.64294181  1
  H+  H18  1  0.94783391  0.13922265  0.31939683  1
  H+  H19  1  0.81905593  0.18314932  0.72920629  1
  H+  H20  1  0.02518084  0.50224992  0.73738028  1
  H+  H21  1  0.27142253  0.48256946  0.25552049  1
  H+  H22  1  0.43322342  0.22683911  0.09865800  1
  H+  H23  1  0.82010894  0.15912483  0.23075558  1
  H+  H24  1  0.79069026  0.96979780  0.07358413  1
  H+  H25  1  0.15448567  0.97276023  0.74031256  1
  H+  H26  1  0.45811535  0.26287574  0.51964110  1
  H+  H27  1  0.82119194  0.87473579  0.51738531  1
  H+  H28  1  0.16251750  0.80703432  0.75175617  1
  H+  H29  1  0.29272947  0.81101049  0.49005813  1
  H+  H30  1  0.30336585  0.15392425  0.76338584  1
  H+  H31  1  0.82313514  0.86346896  0.73890000  1
  H+  H32  1  0.13826799  0.62531351  0.51176850  1
  H+  H33  1  0.35039618  0.18737316  1.01123540  1
  H+  H34  1  0.17411712  0.35675837  -0.01523230  1
  H+  H35  1  0.25372328  0.77120800  0.97003621  1
  H+  H36  1  0.63359943  0.14581608  0.75916149  1
  H+  H37  1  0.29147722  0.14307906  0.49411595  1
  H+  H38  1  0.47065013  0.96649720  0.73924755  1
  H+  H39  1  0.14869272  0.37065492  0.26596363  1
  H+  H40  1  0.81581532  0.30766953  0.50516429  1
  H+  H41  1  0.84175253  0.54242806  0.52502541  1
  H+  H42  1  0.85447033  0.05071021  0.47678027  1
  H+  H43  1  0.53279541  0.84070452  0.00091740  1
  H+  H44  1  0.48827670  0.29763605  0.74242169  1
  H+  H45  1  0.35482938  0.52148172  -0.00946857  1
  H+  H46  1  0.50931693  0.69910283  0.51078797  1
  H+  H47  1  0.43048659  0.50580486  0.49702117  1
  H+  H48  1  0.81413831  0.62432698  -0.02326712  1
  H+  H49  1  0.51669381  0.14852299  0.76230807  1
  H+  H50  1  0.82534945  0.53450825  0.27231473  1
  H+  H51  1  0.51676742  0.71335893  1.00089690  1
  H+  H52  1  0.18263246  0.82231987  0.25507242  1
  H+  H53  1  0.77987015  0.90414359  0.65137967  1
  H+  H54  1  0.69652657  0.86264872  0.52056650  1
  H+  H55  1  0.40464305  0.89540885  0.01421864  1
  H+  H56  1  0.14429719  0.32114225  0.51223964  1
  H+  H57  1  0.47107014  0.15176723  0.51645602  1
  H+  H58  1  0.13421715  0.84328665  0.00495536  1
  H+  H59  1  0.55265408  0.12362956  0.90239420  1
  H+  H60  1  0.14566197  0.64490267  0.22994723  1
  H+  H61  1  0.13705239  0.49924290  0.51145754  1
  H+  H62  1  1.04100909  0.86427135  0.51587222  1
  H+  H63  1  0.16097314  0.47621444  0.75078397  1
  H+  H64  1  0.84762696  0.35677591  0.75365708  1
  H+  H65  1  0.04222843  0.86718729  0.24642408  1
  H+  H66  1  0.47201645  0.95974745  0.50761051  1
  H+  H67  1  0.85746857  0.83413923  0.28006810  1
  H+  H68  1  0.82011563  0.27538717  0.23143034  1
  H+  H69  1  0.51673244  0.82406567  0.24974146  1
  H+  H70  1  0.52221607  0.15888472  0.25966298  1
  H+  H71  1  0.50361472  0.62534310  0.73723960  1
  H+  H72  1  0.54138622  0.44256083  0.89522612  1
  H+  H73  1  0.97895246  0.47287241  0.25224429  1
  H+  H74  1  0.88020942  0.72888231  0.30038181  1
  H+  H75  1  0.30001302  0.82041579  0.25516305  1
  H+  H76  1  0.78624455  0.19516075  0.09221127  1
  H+  H77  1  0.73590360  0.56183772  0.54630329  1
  H+  H78  1  0.03457070  0.18839947  0.72940954  1
  H+  H79  1  0.12098288  0.61074754  -0.00336838  1
  H+  H80  1  0.85986585  0.14870235  0.97808594  1
  H+  H81  1  0.85713935  0.04108005  0.74589939  1
  H+  H82  1  0.16185849  0.34574673  0.74814940  1
  H+  H83  1  0.36452662  0.18077000  0.24476244  1
  H+  H84  1  0.95475032  0.45771319  0.98807364  1
  H+  H85  1  0.14610030  0.18277036  0.01850430  1
  H+  H86  1  0.48003394  0.30225439  0.23823037  1
  H+  H87  1  0.97070673  0.49490462  0.49923910  1
  H+  H88  1  0.64501150  0.47899209  0.76650050  1
  H+  H89  1  0.97405529  0.82996234  0.75963728  1
  H+  H90  1  0.11752246  0.89697673  0.64892427  1
  H+  H91  1  0.50005536  0.37056273  0.98802604  1
  H+  H92  1  0.48194445  -0.02355745  0.24858160  1
  H+  H93  1  0.16785077  0.47202312  0.98177422  1
  H+  H94  1  0.19609350  0.04017768  0.25743158  1
  H+  H95  1  0.50462870  0.16291902  -0.01213904  1
  H+  H96  1  0.15469333  0.85284627  0.50855650  1
  H+  H97  1  0.81818193  0.27534359  0.00413304  1
  H+  H98  1  0.31574494  0.50839905  0.51574949  1
  H+  H99  1  0.47400036  0.52390366  -0.00209444  1
  H+  H100  1  0.69298244  0.50988195  -0.02463490  1
  H+  H101  1  0.43955072  0.50850598  0.21654321  1
  H+  H102  1  0.63374461  0.14677709  0.48984477  1
  H+  H103  1  0.63529283  0.14593757  0.25987444  1
  H+  H104  1  0.87082068  0.73340752  0.50686696  1
  H+  H105  1  0.49997312  0.70015333  0.24050007  1
  H+  H106  1  0.14982797  0.19980023  0.50791105  1
  H+  H107  1  0.51347518  0.81717253  0.50822064  1
  H+  H108  1  0.43840690  0.20576671  0.65930358  1
  H+  H109  1  0.44612912  0.55137950  0.64641330  1
  H+  H110  1  0.90274220  0.12688301  0.83072664  1
  H+  H111  1  0.19492206  0.44382439  0.41909549  1
  H+  H112  1  0.77254984  0.52251671  0.14908354  1
  H+  H113  1  0.55389132  0.10942446  0.40182051  1
  H+  H114  1  0.45642624  0.91154656  0.15428329  1
  H+  H115  1  0.89042995  0.42480209  0.84870659  1
  H+  H116  1  0.19818439  0.42924876  0.84694996  1
  H+  H117  1  0.85870544  0.70987285  0.77102353  1
  H+  H118  1  0.63779322  0.81243761  0.76543671  1
  H+  H119  1  0.88718419  0.47004683  0.41278051  1
  H+  H120  1  0.10984664  0.89313025  0.15076965  1
  H+  H121  1  0.52791416  0.48018767  0.74839879  1
  H+  H122  1  0.56444192  0.76990604  0.85514563  1
  H+  H123  1  0.78057131  0.86577885  0.17111364  1
  H+  H124  1  0.35069328  0.85040040  0.73772424  1
  H+  H125  1  0.90843067  0.81540542  0.41795399  1
  H+  H126  1  0.75465017  0.56750357  0.14697829  1
  H+  H127  1  0.57403985  0.43712802  0.46198848  1
  H+  H128  1  0.21485610  0.77264808  0.40060104  1
  H+  H129  1  0.17927895  0.75215121  0.88256844  1
  H+  H130  1  0.89206277  0.79412690  0.90017386  1
  H+  H131  1  0.40617107  0.55557563  0.13142397  1
  H+  H132  1  0.11752370  0.23533115  0.64095071  1
  H+  H133  1  0.16348984  0.68633321  0.74980554  1
  H+  H134  1  0.18675453  0.15722036  0.75593157  1
  H+  H135  1  0.23012644  0.11755550  0.34665277  1
  H+  H136  1  0.80927782  0.57499844  0.67579412  1
  H+  H137  1  0.57046477  0.52083228  0.30141707  1
  H+  H138  1  0.86720094  0.03465650  0.95695807  1
  H+  H139  1  0.10256937  0.54374175  0.64504373  1
  H+  H140  1  0.05865855  0.21314724  0.15546355  1
  H+  H141  1  0.42639712  0.88564170  0.59884857  1
  H+  H142  1  0.21285503  0.11188805  0.90235761  1
  H+  H143  1  0.94694528  0.37870214  0.32533656  1
  O2-  O144  1  0.04855404  0.23166163  0.21983045  1
  O2-  O145  1  0.11801771  0.23373552  0.71122047  1
  O2-  O146  1  0.10428764  0.56414276  0.20592152  1
  O2-  O147  1  0.10666566  0.54342330  0.71462818  1
  O2-  O148  1  0.11938181  0.89709285  0.21826622  1
  O2-  O149  1  0.11164177  0.89233834  0.71748745  1
  O2-  O150  1  0.44663611  0.22261631  0.21842609  1
  O2-  O151  1  0.44176166  0.21405355  0.72709335  1
  O2-  O152  1  0.40001357  0.55039806  0.19982066  1
  O2-  O153  1  0.47363355  0.54840604  0.70844303  1
  O2-  O154  1  0.44230530  0.89821336  0.22093025  1
  O2-  O155  1  0.42631822  0.89134765  0.70861489  1
  O2-  O156  1  0.77314409  0.19390856  0.21315231  1
  O2-  O157  1  0.77437297  0.22107106  0.71088661  1
  O2-  O158  1  0.83102899  0.57866228  0.32670215  1
  O2-  O159  1  0.79682890  0.56551810  0.74247656  1
  O2-  O160  1  0.77641928  0.87090845  0.23746140  1
  O2-  O161  1  0.78326890  0.90527586  0.72004617  1
  O2-  O162  1  0.24033865  0.12042595  0.27936245  1
  O2-  O163  1  0.22105517  0.11372986  0.78296667  1
  O2-  O164  1  0.19496454  0.45105867  0.28534764  1
  O2-  O165  1  0.19667989  0.42946320  0.77713073  1
  O2-  O166  1  0.21862191  0.77682493  0.27616442  1
  O2-  O167  1  0.19780393  0.76341545  0.77875193  1
  O2-  O168  1  0.55718894  0.11496015  0.28590005  1
  O2-  O169  1  0.55519099  0.10674254  0.78565168  1
  O2-  O170  1  0.54736337  0.46804368  0.25013505  1
  O2-  O171  1  0.56139277  0.43494665  0.77857275  1
  O2-  O172  1  0.55450885  0.77825615  0.26087869  1
  O2-  O173  1  0.56220048  0.75491378  0.78945412  1
  O2-  O174  1  0.94124742  0.13333410  0.25158384  1
  O2-  O175  1  0.90063040  0.12526313  0.76243476  1
  O2-  O176  1  0.91138060  0.41150328  0.28729971  1
  O2-  O177  1  0.89365116  0.43552503  0.78037295  1
  O2-  O178  1  0.91485276  0.81247480  0.30585068  1
  O2-  O179  1  0.89480977  0.79319488  0.78546368  1
  O2-  O180  1  0.21444029  0.11607109  0.46737536  1
  O2-  O181  1  0.21161026  0.11189157  0.97045306  1
  O2-  O182  1  0.19212556  0.44145652  0.48596014  1
  O2-  O183  1  0.20915918  0.43414568  0.95488750  1
  O2-  O184  1  0.21082874  0.77119659  0.46828912  1
  O2-  O185  1  0.17557763  0.74749541  0.95282418  1
  O2-  O186  1  0.55224316  0.10522961  0.46994122  1
  O2-  O187  1  0.55027437  0.12672060  0.97017026  1
  O2-  O188  1  0.50469207  0.40828988  0.49810303  1
  O2-  O189  1  0.53974873  0.45028946  0.96306433  1
  O2-  O190  1  0.56093040  0.78095371  0.49755891  1
  O2-  O191  1  0.56872981  0.79449106  0.98299783  1
  O2-  O192  1  0.89877008  0.12901503  0.44998150  1
  O2-  O193  1  0.90652098  0.11712199  0.94423544  1
  O2-  O194  1  0.88627094  0.46237224  0.47945487  1
  O2-  O195  1  0.87708158  0.41389309  0.96064420  1
  O2-  O196  1  0.90558023  0.81397944  0.48669266  1
  O2-  O197  1  0.88937425  0.78428168  0.96826686  1
  O2-  O198  1  0.10435916  0.22342504  0.03724961  1
  O2-  O199  1  0.10704043  0.23500540  0.53471193  1
  O2-  O200  1  0.09611897  0.53445606  0.02428485  1
  O2-  O201  1  0.09362700  0.54565189  0.53532913  1
  O2-  O202  1  0.10357935  0.89028384  0.03111730  1
  O2-  O203  1  0.12300967  0.89978670  0.53541599  1
  O2-  O204  1  0.43201104  0.23236581  0.03093590  1
  O2-  O205  1  0.42459675  0.18434280  0.54356110  1
  O2-  O206  1  0.43204890  0.56408121  0.01883323  1
  O2-  O207  1  0.40296101  0.54855619  0.53215752  1
  O2-  O208  1  0.48232316  0.93029266  0.03700052  1
  O2-  O209  1  0.42650378  0.87996124  0.52990002  1
  O2-  O210  1  0.79681722  0.19717111  0.02536225  1
  O2-  O211  1  0.77818506  0.22578946  0.52259156  1
  O2-  O212  1  0.77659210  0.54015332  -0.02264959  1
  O2-  O213  1  0.81757772  0.59499259  0.55573077  1
  O2-  O214  1  0.77959683  0.90175883  0.04126253  1
  O2-  O215  1  0.77978090  0.91457497  0.53742304  1
