# generated using pymatgen
data_H2O
_symmetry_space_group_name_H-M   'P 1'
_cell_length_a   13.49487830
_cell_length_b   13.48494009
_cell_length_c   14.69862013
_cell_angle_alpha   90.10474078
_cell_angle_beta   89.99447348
_cell_angle_gamma   120.00452361
_symmetry_Int_Tables_number   1
_chemical_formula_structural   H2O
_chemical_formula_sum   'H144 O72'
_cell_volume   2316.35155803
_cell_formula_units_Z   72
loop_
 _symmetry_equiv_pos_site_id
 _symmetry_equiv_pos_as_xyz
  1  'x, y, z'
loop_
 _atom_type_symbol
 _atom_type_oxidation_number
  H+  1.0
  O2-  -2.0
loop_
 _atom_site_type_symbol
 _atom_site_label
 _atom_site_symmetry_multiplicity
 _atom_site_fract_x
 _atom_site_fract_y
 _atom_site_fract_z
 _atom_site_occupancy
  H+  H0  1  0.82368097  0.30697435  0.22955095  1
  H+  H1  1  0.21706738  0.76976283  0.91203937  1
  H+  H2  1  0.67260844  0.82276176  0.00137407  1
  H+  H3  1  0.50082181  -0.03016997  0.23498450  1
  H+  H4  1  0.96754478  0.15076770  0.26001418  1
  H+  H5  1  0.66750688  0.81682638  0.75668184  1
  H+  H6  1  0.03300020  0.16275547  0.71390375  1
  H+  H7  1  0.81396890  0.96921488  0.23799209  1
  H+  H8  1  0.14418182  0.64003729  0.01541979  1
  H+  H9  1  0.31003516  0.48368379  0.25351319  1
  H+  H10  1  0.83242898  0.15288939  0.49326051  1
  H+  H11  1  0.84401197  0.83157323  -0.00898327  1
  H+  H12  1  0.63469011  0.81494542  0.25981501  1
  H+  H13  1  0.46267939  0.50449300  0.01896857  1
  H+  H14  1  0.51269052  0.16239295  0.47804376  1
  H+  H15  1  0.84083841  0.36140961  0.46060700  1
  H+  H16  1  0.84098961  0.54398316  0.99326190  1
  H+  H17  1  0.62617628  0.14334193  0.98930887  1
  H+  H18  1  0.64490835  0.47520949  0.45278596  1
  H+  H19  1  0.84631615  0.36662243  0.99319909  1
  H+  H20  1  0.31776102  0.15458174  0.75559146  1
  H+  H21  1  0.51327102  0.14146311  0.25194900  1
  H+  H22  1  0.29062524  0.48244243  -0.01650189  1
  H+  H23  1  0.44512738  0.55871614  0.14772463  1
  H+  H24  1  0.19523323  0.14871449  0.74659074  1
  H+  H25  1  0.51661973  0.69424751  0.25762670  1
  H+  H26  1  -0.04844721  0.79817895  0.26628317  1
  H+  H27  1  0.02098316  0.85977153  0.48336186  1
  H+  H28  1  0.15161237  0.61331541  0.75820931  1
  H+  H29  1  0.86712183  0.72266247  0.98874879  1
  H+  H30  1  0.48188072  0.48722751  0.51204631  1
  H+  H31  1  0.51499405  1.01826647  -0.01274546  1
  H+  H32  1  0.47547948  0.28397584  0.22818786  1
  H+  H33  1  0.35734696  0.52406202  0.52406801  1
  H+  H34  1  0.97387673  0.23291989  0.81598512  1
  H+  H35  1  0.48926898  0.51576702  0.23276129  1
  H+  H36  1  0.29992645  0.93536322  0.56676691  1
  H+  H37  1  0.67310014  0.18558606  0.50135409  1
  H+  H38  1  0.13373945  0.18328307  0.48674885  1
  H+  H39  1  0.37519341  0.25059724  -0.01466093  1
  H+  H40  1  0.84818206  0.35821089  0.76232305  1
  H+  H41  1  0.18216232  0.37271276  0.47463921  1
  H+  H42  1  0.52149191  0.79726176  0.98720882  1
  H+  H43  1  0.27267510  0.86897320  0.32925433  1
  H+  H44  1  -0.02067076  0.49035221  0.23883426  1
  H+  H45  1  0.37363391  0.85573044  0.51146866  1
  H+  H46  1  0.46609210  0.98831864  0.50772660  1
  H+  H47  1  0.30126552  0.78960813  0.78980249  1
  H+  H48  1  0.55380886  0.09783118  0.85840363  1
  H+  H49  1  0.36586730  0.84142645  0.00930588  1
  H+  H50  1  0.47418111  0.93830205  0.76923249  1
  H+  H51  1  0.55965342  0.75327998  0.87611673  1
  H+  H52  1  0.02604160  0.51818717  0.01432880  1
  H+  H53  1  0.63897667  0.15291302  0.25294103  1
  H+  H54  1  0.86692457  0.09549058  0.90529485  1
  H+  H55  1  0.80987564  0.51241996  0.77943612  1
  H+  H56  1  0.48943510  0.29779702  0.75137185  1
  H+  H57  1  0.36023782  0.16515052  0.20449720  1
  H+  H58  1  0.16765155  1.01015736  0.21575830  1
  H+  H59  1  0.18814851  0.82864602  -0.00354276  1
  H+  H60  1  0.18575230  0.79681235  0.78081308  1
  H+  H61  1  0.16447757  0.66483215  0.49418429  1
  H+  H62  1  0.82002898  0.18579299  0.23624528  1
  H+  H63  1  0.19197980  0.48455823  0.25139417  1
  H+  H64  1  0.84239608  0.72965468  0.50507526  1
  H+  H65  1  0.16923357  0.95547963  0.76159236  1
  H+  H66  1  0.63806005  0.47731166  0.21742025  1
  H+  H67  1  0.78774504  0.93786564  0.75055854  1
  H+  H68  1  0.74817305  0.28763879  0.57042089  1
  H+  H69  1  0.48811849  0.63535802  0.01305727  1
  H+  H70  1  0.14290288  0.82171634  0.23517742  1
  H+  H71  1  0.82349675  0.46745360  0.44270302  1
  H+  H72  1  0.67876907  0.15836655  0.75422785  1
  H+  H73  1  0.16221943  0.63742286  0.23414240  1
  H+  H74  1  0.47851726  0.82219385  0.77787604  1
  H+  H75  1  -0.00377690  0.14035940  0.01375409  1
  H+  H76  1  0.21055098  0.03596259  0.54383852  1
  H+  H77  1  0.51614882  0.13668535  0.76674842  1
  H+  H78  1  0.19035456  0.12541017  0.59793948  1
  H+  H79  1  0.80445350  0.17705158  0.00732082  1
  H+  H80  1  0.81367005  0.79711789  0.77091882  1
  H+  H81  1  0.36653742  0.18538292  0.53772014  1
  H+  H82  1  1.03721650  0.88978780  1.01191790  1
  H+  H83  1  0.74876094  0.58650570  0.41760789  1
  H+  H84  1  0.28395233  0.51435503  0.75759743  1
  H+  H85  1  0.16811202  0.12685698  0.19867786  1
  H+  H86  1  1.02109483  0.49904637  0.51177468  1
  H+  H87  1  0.68483870  0.50486656  0.78155825  1
  H+  H88  1  0.15076478  0.29366560  0.23464861  1
  H+  H89  1  1.00677615  0.88828623  0.52129275  1
  H+  H90  1  0.50336591  0.70162548  0.49696554  1
  H+  H91  1  0.22520255  0.07542041  0.97512708  1
  H+  H92  1  0.81206843  0.84915744  0.23732596  1
  H+  H93  1  0.47752437  0.30626791  0.52369285  1
  H+  H94  1  0.85611422  0.17073454  0.76463041  1
  H+  H95  1  0.49500177  0.84640542  0.23894166  1
  H+  H96  1  0.43447586  0.55387187  0.61892978  1
  H+  H97  1  0.97373792  0.47184486  0.76379576  1
  H+  H98  1  0.81579605  0.00655007  0.99005765  1
  H+  H99  1  0.66531350  0.85070690  0.51133453  1
  H+  H100  1  0.23315776  0.46148311  0.39432514  1
  H+  H101  1  0.17620275  0.48171335  0.98146633  1
  H+  H102  1  0.33452770  0.83832639  0.25239559  1
  H+  H103  1  0.50927917  0.67616833  0.77840490  1
  H+  H104  1  0.49879965  0.46944665  0.76572164  1
  H+  H105  1  0.81264039  0.63199656  0.22664937  1
  H+  H106  1  0.09072093  0.20581351  0.14945116  1
  H+  H107  1  0.81813070  0.67206261  0.78922002  1
  H+  H108  1  0.55459805  0.11962520  0.38774972  1
  H+  H109  1  0.82539325  0.52040926  0.21669893  1
  H+  H110  1  0.11829751  0.56070400  0.14317776  1
  H+  H111  1  0.52266646  0.42047510  0.85870167  1
  H+  H112  1  0.82397663  0.03045474  0.49466688  1
  H+  H113  1  0.26302859  0.17606020  0.36499691  1
  H+  H114  1  0.79769030  0.58057004  0.07944565  1
  H+  H115  1  0.74775372  0.88074161  0.59963374  1
  H+  H116  1  0.76191007  0.87956723  0.09129239  1
  H+  H117  1  0.54388309  0.77228670  0.40387420  1
  H+  H118  1  0.08428707  0.84477211  0.14999664  1
  H+  H119  1  0.82999260  0.61363555  0.60140348  1
  H+  H120  1  0.89669213  0.44975317  0.32475256  1
  H+  H121  1  0.24306457  0.14264089  0.88375542  1
  H+  H122  1  0.18443668  0.85232312  0.52412149  1
  H+  H123  1  0.11144606  0.22578497  0.62907547  1
  H+  H124  1  0.45107177  0.88072433  0.09354453  1
  H+  H125  1  0.01560182  0.18485776  0.48390581  1
  H+  H126  1  0.46169599  0.22396462  0.65935619  1
  H+  H127  1  0.12876089  0.17215621  1.00545594  1
  H+  H128  1  0.20632025  0.73057100  0.39889314  1
  H+  H129  1  0.11342517  0.53998861  0.66633624  1
  H+  H130  1  0.13468085  0.98554073  0.07969302  1
  H+  H131  1  0.60208088  0.44865777  0.31540297  1
  H+  H132  1  0.85610899  0.76306174  0.34610272  1
  H+  H133  1  0.89375677  0.44109922  0.90292261  1
  H+  H134  1  0.20000338  0.13403627  0.36194302  1
  H+  H135  1  0.76803750  0.56980155  0.59404912  1
  H+  H136  1  0.16011802  0.88665216  0.67375812  1
  H+  H137  1  0.75384244  0.18781190  0.66192466  1
  H+  H138  1  0.46447585  0.41252194  0.42286328  1
  H+  H139  1  0.88066685  0.11182525  0.34557311  1
  H+  H140  1  0.14091615  0.50087810  0.51001170  1
  H+  H141  1  0.87487601  0.78441653  0.87047811  1
  H+  H142  1  0.77764498  0.79517229  0.48195312  1
  H+  H143  1  0.77162553  0.22258255  0.09568228  1
  O2-  O144  1  0.10230160  0.21159740  0.21797508  1
  O2-  O145  1  0.10654012  0.18282511  0.68460072  1
  O2-  O146  1  0.12114205  0.55797049  0.21322848  1
  O2-  O147  1  0.11193872  0.53338556  0.73332033  1
  O2-  O148  1  0.08329061  0.84066957  0.21727699  1
  O2-  O149  1  0.13594691  0.87629316  0.73863626  1
  O2-  O150  1  0.44012065  0.19983748  0.22592468  1
  O2-  O151  1  0.45477827  0.21726618  0.72692682  1
  O2-  O152  1  0.44806918  0.55739414  0.21783528  1
  O2-  O153  1  0.43494910  0.54009727  0.71939958  1
  O2-  O154  1  0.45636706  0.88816489  0.21357227  1
  O2-  O155  1  0.42955592  0.85468890  0.75969524  1
  O2-  O156  1  0.77752052  0.22384917  0.21325415  1
  O2-  O157  1  0.76161190  0.20142660  0.72781290  1
  O2-  O158  1  0.78192038  0.55737941  0.19412598  1
  O2-  O159  1  0.76856701  0.55491166  0.76927093  1
  O2-  O160  1  0.77036983  0.88838175  0.21597739  1
  O2-  O161  1  0.74980761  0.86043779  0.72563733  1
  O2-  O162  1  0.20316770  0.08037643  0.17877815  1
  O2-  O163  1  0.23639771  0.11512635  0.77831808  1
  O2-  O164  1  0.22932810  0.44324991  0.27741758  1
  O2-  O165  1  0.31093573  0.46378896  0.73432491  1
  O2-  O166  1  0.25580722  0.81087722  0.28268802  1
  O2-  O167  1  0.21672614  0.74896954  0.80786434  1
  O2-  O168  1  0.55890128  0.10581823  0.27637028  1
  O2-  O169  1  0.55643520  0.09612539  0.78821680  1
  O2-  O170  1  0.56653596  0.43931750  0.25513045  1
  O2-  O171  1  0.53950234  0.43012885  0.79173859  1
  O2-  O172  1  0.55373682  0.77446825  0.28252373  1
  O2-  O173  1  0.55680606  0.75566438  0.80154693  1
  O2-  O174  1  0.88431760  0.11168096  0.27815827  1
  O2-  O175  1  0.91957556  0.15875477  0.78957589  1
  O2-  O176  1  0.89654671  0.45006325  0.25694174  1
  O2-  O177  1  0.89187157  0.43728606  0.78589632  1
  O2-  O178  1  0.86853158  0.76608006  0.27920140  1
  O2-  O179  1  0.85790531  0.76276032  0.80026548  1
  O2-  O180  1  0.22139279  0.11568014  0.54048694  1
  O2-  O181  1  0.24751251  0.15225497  0.95257124  1
  O2-  O182  1  0.22609071  0.45684308  0.46241420  1
  O2-  O183  1  0.21578281  0.44546779  0.95249975  1
  O2-  O184  1  0.20301725  0.74217272  0.46425273  1
  O2-  O185  1  0.22027421  0.77931754  0.98164044  1
  O2-  O186  1  0.55466322  0.12288693  0.45657731  1
  O2-  O187  1  0.54848807  0.09755243  0.96267353  1
  O2-  O188  1  0.50667918  0.43332953  0.48009129  1
  O2-  O189  1  0.50001523  0.40742148  0.97263588  1
  O2-  O190  1  0.54227368  0.78008523  0.47105994  1
  O2-  O191  1  0.56286088  0.75689696  0.96982682  1
  O2-  O192  1  0.86787886  0.11005554  0.46900327  1
  O2-  O193  1  0.85811378  0.09091868  0.97197544  1
  O2-  O194  1  0.88230218  0.44289720  0.44262241  1
  O2-  O195  1  0.89228996  0.44724314  0.97059336  1
  O2-  O196  1  0.79884245  0.73852396  0.45608251  1
  O2-  O197  1  0.89833241  0.80546955  0.96641659  1
  O2-  O198  1  0.06737215  0.16066672  0.04778238  1
  O2-  O199  1  0.09914774  0.23157214  0.49722207  1
  O2-  O200  1  0.10629467  0.55960822  0.03885191  1
  O2-  O201  1  0.09784470  0.53528056  0.53966697  1
  O2-  O202  1  0.11605326  0.92069330  0.03742890  1
  O2-  O203  1  0.21767680  0.91991330  0.56480209  1
  O2-  O204  1  0.45495661  0.30245628  0.01190211  1
  O2-  O205  1  0.45237425  0.22552773  0.54145092  1
  O2-  O206  1  0.43664364  0.55673477  0.04268911  1
  O2-  O207  1  0.43726274  0.56098230  0.54757403  1
  O2-  O208  1  0.44845588  0.87881176  0.02603386  1
  O2-  O209  1  0.41162090  0.92597550  0.54789491  1
  O2-  O210  1  0.77111240  0.22499783  0.02775963  1
  O2-  O211  1  0.75256604  0.23057805  0.53231931  1
  O2-  O212  1  0.81147825  0.59485124  0.01298278  1
  O2-  O213  1  0.71648569  0.50284710  0.41637880  1
  O2-  O214  1  0.76205907  0.87718598  0.02386232  1
  O2-  O215  1  0.74930865  0.89029487  0.53257670  1
