# generated using pymatgen
data_H2O
_symmetry_space_group_name_H-M   'P 1'
_cell_length_a   13.49838661
_cell_length_b   13.50373648
_cell_length_c   14.68894108
_cell_angle_alpha   89.96602427
_cell_angle_beta   90.03976375
_cell_angle_gamma   120.02527984
_symmetry_Int_Tables_number   1
_chemical_formula_structural   H2O
_chemical_formula_sum   'H144 O72'
_cell_volume   2318.17452105
_cell_formula_units_Z   72
loop_
 _symmetry_equiv_pos_site_id
 _symmetry_equiv_pos_as_xyz
  1  'x, y, z'
loop_
 _atom_type_symbol
 _atom_type_oxidation_number
  H+  1.0
  O2-  -2.0
loop_
 _atom_site_type_symbol
 _atom_site_label
 _atom_site_symmetry_multiplicity
 _atom_site_fract_x
 _atom_site_fract_y
 _atom_site_fract_z
 _atom_site_occupancy
  H+  H0  1  -0.02136764  0.47558352  -0.02466652  1
  H+  H1  1  0.17809488  0.46864201  0.76840157  1
  H+  H2  1  0.86112984  0.15529749  -0.00308989  1
  H+  H3  1  0.55685350  0.76163743  0.37493859  1
  H+  H4  1  0.83477765  0.97821419  0.00533015  1
  H+  H5  1  0.14846514  0.29053124  0.52715481  1
  H+  H6  1  0.67192643  0.47485526  0.47442148  1
  H+  H7  1  0.50202585  0.14936646  0.98086630  1
  H+  H8  1  0.27848613  0.49648935  0.51564792  1
  H+  H9  1  0.03254963  0.51364528  0.24919396  1
  H+  H10  1  0.70809798  0.16480184  0.04458204  1
  H+  H11  1  0.20375369  1.04622715  0.26693135  1
  H+  H12  1  0.46520885  0.94057731  0.47699848  1
  H+  H13  1  0.20415828  0.16395361  0.25965012  1
  H+  H14  1  0.38193182  0.18927078  0.24341882  1
  H+  H15  1  0.62894096  0.19217221  0.94783635  1
  H+  H16  1  0.17044040  0.84592149  0.73536902  1
  H+  H17  1  0.17422185  0.43943880  0.98215935  1
  H+  H18  1  0.49887652  -0.02484167  0.99449662  1
  H+  H19  1  1.03442583  0.85507597  0.51601529  1
  H+  H20  1  0.97640345  0.14957663  0.98713040  1
  H+  H21  1  0.86793749  0.37221529  0.27509942  1
  H+  H22  1  0.44463018  0.80324232  0.79171422  1
  H+  H23  1  0.19637827  0.04415934  0.77891957  1
  H+  H24  1  0.49469430  0.52630571  0.19606478  1
  H+  H25  1  0.54265250  0.17394803  0.27236605  1
  H+  H26  1  0.86337072  1.03642916  0.24506935  1
  H+  H27  1  0.18566023  0.49400175  0.23214821  1
  H+  H28  1  0.51272490  0.48656138  0.75361769  1
  H+  H29  1  0.85133786  0.81847498  0.49483122  1
  H+  H30  1  0.44869551  0.64503743  0.51405568  1
  H+  H31  1  0.45750566  0.45770075  0.50886088  1
  H+  H32  1  0.52896747  0.70219145  0.22934440  1
  H+  H33  1  0.80403046  0.29221771  0.72780370  1
  H+  H34  1  0.80774131  0.64804926  1.03414418  1
  H+  H35  1  0.12527046  0.66524646  0.77167703  1
  H+  H36  1  0.38040448  0.52787117  0.17801191  1
  H+  H37  1  0.35059682  0.14994832  0.02704763  1
  H+  H38  1  0.71778785  0.85526252  1.01215797  1
  H+  H39  1  0.15797712  0.97120979  0.50788859  1
  H+  H40  1  0.12064774  0.50246662  0.51943186  1
  H+  H41  1  0.15583697  0.63138154  0.01010460  1
  H+  H42  1  0.63000988  0.15067488  0.74585331  1
  H+  H43  1  0.89808407  0.45288820  0.36724855  1
  H+  H44  1  0.53791974  0.82247334  -0.00114031  1
  H+  H45  1  0.76931443  0.98438153  0.72396093  1
  H+  H46  1  0.48391206  0.61852860  0.75525095  1
  H+  H47  1  0.83328747  0.85377779  0.23819074  1
  H+  H48  1  0.69407120  0.83399807  0.49200483  1
  H+  H49  1  0.16627189  0.30410820  0.22233423  1
  H+  H50  1  0.13742190  0.15515275  0.01201859  1
  H+  H51  1  0.57369718  0.99277339  0.53835101  1
  H+  H52  1  0.48966618  0.20479915  0.73040976  1
  H+  H53  1  0.46868402  0.48699487  0.46343074  1
  H+  H54  1  0.43179835  0.78047765  0.74384630  1
  H+  H55  1  0.71497746  0.52317553  0.25019841  1
  H+  H56  1  0.83096171  0.61625871  0.74450592  1
  H+  H57  1  0.30775229  0.93657163  0.68089424  1
  H+  H58  1  0.15826425  0.68177988  0.48222503  1
  H+  H59  1  0.29324127  0.82018056  0.26053718  1
  H+  H60  1  0.83270556  0.51769646  0.50543766  1
  H+  H61  1  0.51049735  0.29347955  0.50010246  1
  H+  H62  1  0.84449436  0.18759978  0.24346113  1
  H+  H63  1  0.52534449  0.37409594  0.23889197  1
  H+  H64  1  0.14889675  0.63372452  0.23869297  1
  H+  H65  1  0.35710317  0.50598710  0.75015598  1
  H+  H66  1  0.83991447  0.46320875  0.75285682  1
  H+  H67  1  0.16864880  0.80440788  0.48157370  1
  H+  H68  1  0.87741523  0.83938940  1.00184814  1
  H+  H69  1  0.01880239  0.49551840  0.73966489  1
  H+  H70  1  0.80326172  0.17314615  0.73298944  1
  H+  H71  1  0.49189680  0.32394818  0.72876162  1
  H+  H72  1  0.96358299  0.14046892  0.51153159  1
  H+  H73  1  0.95170636  0.80457688  0.78588536  1
  H+  H74  1  0.57841710  0.19519366  0.51353925  1
  H+  H75  1  0.45941176  1.01587402  0.71081112  1
  H+  H76  1  0.52790824  0.81188484  0.46365188  1
  H+  H77  1  0.86115764  0.35983663  0.98400033  1
  H+  H78  1  1.00610248  0.72956075  0.81545571  1
  H+  H79  1  0.84329254  0.13635969  0.50597578  1
  H+  H80  1  0.00326201  0.50766290  0.51196988  1
  H+  H81  1  0.48402725  1.00079170  0.23912788  1
  H+  H82  1  -0.01573178  0.82858261  0.26370428  1
  H+  H83  1  0.62122849  0.46581388  1.00609692  1
  H+  H84  1  0.63361960  0.48861500  0.75499513  1
  H+  H85  1  0.16017339  0.85767786  0.24116584  1
  H+  H86  1  0.66065461  0.70905885  0.81319939  1
  H+  H87  1  0.88374364  0.88045225  0.71231516  1
  H+  H88  1  0.14974662  0.12770780  0.79200586  1
  H+  H89  1  0.86887299  0.70610658  0.26902796  1
  H+  H90  1  0.59543068  0.14654175  0.36094502  1
  H+  H91  1  0.09923596  0.55156261  0.65410778  1
  H+  H92  1  0.54146143  0.10922144  0.83160204  1
  H+  H93  1  0.83284158  0.51878125  0.25926280  1
  H+  H94  1  0.46852878  0.27734814  0.01043248  1
  H+  H95  1  0.16092506  0.90174743  0.63690923  1
  H+  H96  1  0.83733029  0.37602829  0.48719443  1
  H+  H97  1  0.14003512  0.29225714  0.75064117  1
  H+  H98  1  0.82568999  0.63719912  0.51018953  1
  H+  H99  1  0.90321158  0.91068109  0.75761310  1
  H+  H100  1  0.31931318  0.14889336  0.49506220  1
  H+  H101  1  0.64639876  0.80549585  0.76212292  1
  H+  H102  1  0.31558392  0.82239025  0.98179063  1
  H+  H103  1  0.46646332  0.23375417  0.60006194  1
  H+  H104  1  -0.01605759  0.15344468  0.24357802  1
  H+  H105  1  0.87721042  0.11387938  0.84558954  1
  H+  H106  1  0.95611429  0.15141777  0.75713410  1
  H+  H107  1  0.72721509  0.19416134  0.25062130  1
  H+  H108  1  0.56380393  0.74301239  0.93577242  1
  H+  H109  1  0.24198905  0.12080552  0.40607881  1
  H+  H110  1  0.90200113  0.78755212  0.40754492  1
  H+  H111  1  0.34704655  0.48413138  0.96083141  1
  H+  H112  1  0.64983679  0.37831809  0.40570790  1
  H+  H113  1  0.13903781  0.92353793  0.15885797  1
  H+  H114  1  0.10796888  0.55039643  0.09586592  1
  H+  H115  1  0.78497637  0.55242506  0.64714939  1
  H+  H116  1  0.91969361  0.77567228  0.93092817  1
  H+  H117  1  0.80109505  0.23259873  0.11977591  1
  H+  H118  1  0.41008751  0.58341328  0.61303160  1
  H+  H119  1  0.12320410  0.21432266  0.14061029  1
  H+  H120  1  0.06468314  0.89761156  0.01219897  1
  H+  H121  1  0.15261031  0.28668591  -0.00504363  1
  H+  H122  1  0.20902937  0.76815802  0.34812673  1
  H+  H123  1  0.45495220  0.21473151  0.15146644  1
  H+  H124  1  0.80995869  0.95626949  0.50711748  1
  H+  H125  1  0.45397220  0.90978118  0.08767515  1
  H+  H126  1  0.77390427  0.56648444  0.11803941  1
  H+  H127  1  0.17462893  0.75187781  0.85983613  1
  H+  H128  1  0.10270646  0.20754517  0.66463924  1
  H+  H129  1  0.20256560  0.42780291  0.42729872  1
  H+  H130  1  0.38055541  0.98356147  0.18091887  1
  H+  H131  1  0.56297033  0.44975284  0.32655328  1
  H+  H132  1  0.27973427  0.48941491  0.29484097  1
  H+  H133  1  0.20689911  0.83644354  0.99291329  1
  H+  H134  1  0.20975491  0.41390263  0.85868311  1
  H+  H135  1  0.88388139  0.42141023  0.84040269  1
  H+  H136  1  0.71434627  0.17360852  0.60081238  1
  H+  H137  1  0.79895639  0.89317900  0.14574723  1
  H+  H138  1  0.15637626  0.17627838  0.52026257  1
  H+  H139  1  0.73035177  0.90051382  0.63774479  1
  H+  H140  1  0.53959985  0.43248512  0.91998901  1
  H+  H141  1  0.64707447  0.81579735  0.24619844  1
  H+  H142  1  0.42347467  0.93081496  0.61798260  1
  H+  H143  1  0.45503564  0.56022254  0.02141363  1
  O2-  O144  1  0.13032219  0.22118625  0.20953885  1
  O2-  O145  1  0.09260835  0.20914691  0.73160523  1
  O2-  O146  1  0.10979614  0.55242800  0.21787706  1
  O2-  O147  1  0.10074647  0.54794253  0.72251377  1
  O2-  O148  1  0.12897911  0.90921708  0.22504041  1
  O2-  O149  1  0.20489839  0.91763007  0.69648942  1
  O2-  O150  1  0.46237241  0.22496016  0.21925373  1
  O2-  O151  1  0.45451240  0.24508120  0.70030647  1
  O2-  O152  1  0.46331623  0.57055290  0.16621641  1
  O2-  O153  1  0.43388901  0.54808670  0.71945780  1
  O2-  O154  1  0.42090811  0.94384091  0.19976529  1
  O2-  O155  1  0.39543100  0.94571134  0.67695990  1
  O2-  O156  1  0.80654374  0.23583528  0.22708345  1
  O2-  O157  1  0.75945420  0.20953765  0.70657612  1
  O2-  O158  1  0.79843891  0.56568328  0.23754347  1
  O2-  O159  1  0.77890946  0.54183019  0.71528199  1
  O2-  O160  1  0.79304648  0.89305189  0.21377663  1
  O2-  O161  1  0.70362030  0.91599539  0.69629851  1
  O2-  O162  1  0.24653422  0.12776489  0.28781330  1
  O2-  O163  1  0.17274945  0.07904085  0.82596267  1
  O2-  O164  1  0.23534735  0.45706882  0.23970385  1
  O2-  O165  1  0.21670870  0.42585558  0.78588226  1
  O2-  O166  1  0.21222284  0.77355258  0.27827527  1
  O2-  O167  1  0.13077763  0.73597055  0.80161567  1
  O2-  O168  1  0.58134307  0.13162381  0.29498215  1
  O2-  O169  1  0.54662062  0.11602330  0.76402220  1
  O2-  O170  1  0.56074297  0.45521343  0.25943582  1
  O2-  O171  1  0.55403101  0.44810227  0.77836458  1
  O2-  O172  1  0.56578292  0.77329522  0.26647894  1
  O2-  O173  1  0.60623425  0.73495844  0.80245179  1
  O2-  O174  1  0.90277014  0.11877159  0.26271273  1
  O2-  O175  1  0.87356066  0.11541123  0.77773710  1
  O2-  O176  1  0.90460224  0.45323793  0.29588493  1
  O2-  O177  1  0.87807389  0.41895024  0.77108924  1
  O2-  O178  1  0.90529253  0.78803430  0.28891183  1
  O2-  O179  1  0.93316703  0.73335430  0.81673915  1
  O2-  O180  1  0.23857568  0.11332131  0.47404049  1
  O2-  O181  1  0.19960686  0.04488663  1.05221314  1
  O2-  O182  1  0.19967097  0.42971776  0.49324894  1
  O2-  O183  1  0.20527941  0.39453917  0.95476048  1
  O2-  O184  1  0.20177072  0.75999371  0.45482956  1
  O2-  O185  1  0.23207169  0.78467891  0.96807605  1
  O2-  O186  1  0.64911393  0.19781689  0.48370073  1
  O2-  O187  1  0.55364198  0.12336044  0.94945041  1
  O2-  O188  1  0.60926670  0.41256603  0.43480390  1
  O2-  O189  1  0.55235159  0.40201755  0.97676634  1
  O2-  O190  1  0.55612150  0.76067265  0.44470177  1
  O2-  O191  1  0.58521668  0.78602424  0.99326738  1
  O2-  O192  1  0.88350784  0.09597668  0.48911692  1
  O2-  O193  1  0.89413493  0.11380431  0.96496726  1
  O2-  O194  1  0.88447606  0.45532004  0.46814255  1
  O2-  O195  1  0.90050376  0.43092788  0.94844695  1
  O2-  O196  1  0.89963187  0.78447159  0.47567942  1
  O2-  O197  1  0.92671917  0.80293097  0.99451329  1
  O2-  O198  1  0.10516215  0.20332780  0.02953009  1
  O2-  O199  1  0.11000858  0.20831324  0.54537984  1
  O2-  O200  1  0.11265509  0.55018917  0.02838586  1
  O2-  O201  1  0.08606977  0.54901646  0.53809047  1
  O2-  O202  1  0.14978300  0.92966081  0.02467856  1
  O2-  O203  1  0.11769125  0.89194899  0.53349997  1
  O2-  O204  1  0.43500890  0.19580906  0.03528410  1
  O2-  O205  1  0.47237744  0.21773857  0.53128729  1
  O2-  O206  1  0.43165915  0.54044999  -0.04208070  1
  O2-  O207  1  0.38230065  0.59776737  0.55392879  1
  O2-  O208  1  0.45849113  0.89783224  0.02146613  1
  O2-  O209  1  0.49729819  0.92212742  0.52937053  1
  O2-  O210  1  0.78867989  0.22171333  0.05067255  1
  O2-  O211  1  0.68428899  0.13096496  0.54050868  1
  O2-  O212  1  0.75188015  0.57042022  0.05439658  1
  O2-  O213  1  0.78635472  0.55650792  0.53185082  1
  O2-  O214  1  0.80217360  0.89844694  0.02959262  1
  O2-  O215  1  0.76796558  0.87348847  0.52629207  1
