# generated using pymatgen
data_H2O
_symmetry_space_group_name_H-M   'P 1'
_cell_length_a   13.51253740
_cell_length_b   13.51472996
_cell_length_c   14.67033939
_cell_angle_alpha   89.98575378
_cell_angle_beta   90.04748067
_cell_angle_gamma   119.97266607
_symmetry_Int_Tables_number   1
_chemical_formula_structural   H2O
_chemical_formula_sum   'H144 O72'
_cell_volume   2320.78266241
_cell_formula_units_Z   72
loop_
 _symmetry_equiv_pos_site_id
 _symmetry_equiv_pos_as_xyz
  1  'x, y, z'
loop_
 _atom_type_symbol
 _atom_type_oxidation_number
  H+  1.0
  O2-  -2.0
loop_
 _atom_site_type_symbol
 _atom_site_label
 _atom_site_symmetry_multiplicity
 _atom_site_fract_x
 _atom_site_fract_y
 _atom_site_fract_z
 _atom_site_occupancy
  H+  H0  1  0.52493467  0.04674775  0.26060694  1
  H+  H1  1  1.03512214  0.85753946  0.50889282  1
  H+  H2  1  0.84821247  0.81557336  0.48513321  1
  H+  H3  1  0.18112545  0.02999261  0.98043791  1
  H+  H4  1  0.10815088  -0.10973240  1.08815033  1
  H+  H5  1  0.18445763  0.48536944  -0.01167168  1
  H+  H6  1  0.53824142  0.43977147  0.84961153  1
  H+  H7  1  0.80060925  0.63176850  0.72556978  1
  H+  H8  1  0.00623854  0.48498731  0.23314204  1
  H+  H9  1  0.36990109  0.18882007  0.24959346  1
  H+  H10  1  0.52452264  0.16523280  0.26351464  1
  H+  H11  1  0.77494079  0.91645610  0.58140873  1
  H+  H12  1  0.15267948  0.52361985  0.74027033  1
  H+  H13  1  0.51411103  0.82664113  0.49192843  1
  H+  H14  1  0.64203080  0.79389881  0.75912627  1
  H+  H15  1  0.65062325  0.51447680  0.51992374  1
  H+  H16  1  0.63361625  0.48823746  0.97964578  1
  H+  H17  1  0.90189104  0.79560739  0.39295677  1
  H+  H18  1  0.35749282  0.18355780  0.00545576  1
  H+  H19  1  0.22460388  0.11193318  0.35209249  1
  H+  H20  1  0.13440883  0.30374156  0.73840771  1
  H+  H21  1  0.90374777  0.84018750  0.23568712  1
  H+  H22  1  0.84251594  0.47825855  0.25014947  1
  H+  H23  1  0.16144208  0.52738909  0.50541076  1
  H+  H24  1  0.16458469  0.15581424  0.75459233  1
  H+  H25  1  0.17239764  -0.02430847  0.24029196  1
  H+  H26  1  0.90208177  0.45113745  0.39345033  1
  H+  H27  1  0.49472599  0.53753765  0.53938970  1
  H+  H28  1  0.81993207  0.17760333  0.24630418  1
  H+  H29  1  0.88182500  0.17988000  -0.00004356  1
  H+  H30  1  0.44211540  0.55858162  0.15100358  1
  H+  H31  1  0.50776744  0.82449627  0.25998690  1
  H+  H32  1  0.11648962  0.60412413  0.22928784  1
  H+  H33  1  0.82695361  0.19619018  0.48496462  1
  H+  H34  1  0.52894524  0.37988398  0.26348584  1
  H+  H35  1  0.36493297  0.51904568  0.00747038  1
  H+  H36  1  0.17524196  0.46752478  0.25695124  1
  H+  H37  1  0.31036080  0.83083701  0.50049709  1
  H+  H38  1  0.16137995  -0.02370364  0.73984220  1
  H+  H39  1  0.85455431  0.02748564  0.24733560  1
  H+  H40  1  0.18055632  0.03557722  0.49259429  1
  H+  H41  1  0.15715500  0.31199284  0.50607102  1
  H+  H42  1  0.80746843  0.51647573  0.00723671  1
  H+  H43  1  0.94174573  0.10823707  0.77186894  1
  H+  H44  1  1.00528218  0.82164893  0.25542736  1
  H+  H45  1  0.19160384  0.36938052  -0.00843935  1
  H+  H46  1  0.76155272  0.81625748  0.24249365  1
  H+  H47  1  0.96056709  0.49214497  0.99641807  1
  H+  H48  1  0.45566312  0.18529370  0.74381616  1
  H+  H49  1  0.25240355  0.72636871  0.28914942  1
  H+  H50  1  0.29056958  0.48056042  0.76135029  1
  H+  H51  1  0.64284975  0.16150186  0.49249289  1
  H+  H52  1  0.84738321  0.64708292  0.49207463  1
  H+  H53  1  0.16656318  0.19139918  1.00703494  1
  H+  H54  1  0.17628604  0.81672676  0.98843060  1
  H+  H55  1  0.62233340  0.82169259  0.25764767  1
  H+  H56  1  0.47809248  0.19109865  0.01507808  1
  H+  H57  1  0.15427902  0.29300838  0.23842013  1
  H+  H58  1  0.48875001  0.35145352  0.75246542  1
  H+  H59  1  0.03920147  0.19409081  0.49866267  1
  H+  H60  1  0.87119099  0.38496311  0.73368418  1
  H+  H61  1  0.47526384  0.64249042  0.51619783  1
  H+  H62  1  0.97142344  0.50877475  0.74587574  1
  H+  H63  1  0.15374111  0.85740721  0.51009374  1
  H+  H64  1  0.51237781  0.69574122  0.98042777  1
  H+  H65  1  0.18398712  0.15651725  0.49105643  1
  H+  H66  1  0.84379909  0.69796814  -0.01689736  1
  H+  H67  1  0.02377777  0.84831708  0.00054577  1
  H+  H68  1  0.83934361  0.35618151  0.25789324  1
  H+  H69  1  0.48996981  0.48133124  0.75678768  1
  H+  H70  1  0.30515564  0.48879540  0.49113158  1
  H+  H71  1  0.70007531  0.17971969  0.25164197  1
  H+  H72  1  0.81407852  0.51915018  0.71507294  1
  H+  H73  1  0.44864422  0.90158470  0.15122355  1
  H+  H74  1  0.71709532  0.18624915  0.01812873  1
  H+  H75  1  0.17978877  0.86107572  0.23953169  1
  H+  H76  1  0.12711316  0.89625968  0.65280610  1
  H+  H77  1  0.83085376  0.31613864  0.49483903  1
  H+  H78  1  0.35774805  0.84814682  1.01192870  1
  H+  H79  1  0.48378475  0.52009669  0.00633691  1
  H+  H80  1  0.19608817  0.82723897  0.76057215  1
  H+  H81  1  0.51252824  0.37017444  -0.01625040  1
  H+  H82  1  0.48873841  0.85556861  0.73549955  1
  H+  H83  1  0.38189377  0.87793433  0.24702341  1
  H+  H84  1  0.95366335  0.27076788  0.68163049  1
  H+  H85  1  0.80853169  0.83465252  0.01305905  1
  H+  H86  1  0.28879625  0.16836103  0.75008766  1
  H+  H87  1  0.71297675  0.22535918  0.77106757  1
  H+  H88  1  0.45830161  0.00686375  0.76901835  1
  H+  H89  1  0.84507009  0.13482210  0.76573273  1
  H+  H90  1  0.67708254  0.82224337  0.51885326  1
  H+  H91  1  0.52701877  0.49547770  0.25890548  1
  H+  H92  1  0.36098376  0.17800350  0.51519041  1
  H+  H93  1  0.19174307  0.70878287  0.49603243  1
  H+  H94  1  0.84640352  0.37418998  0.01110904  1
  H+  H95  1  0.04319793  0.52754888  0.50316183  1
  H+  H96  1  0.55124381  0.08651325  0.89435152  1
  H+  H97  1  0.47519334  0.63604746  0.24065649  1
  H+  H98  1  -0.02322944  0.14571681  0.24369372  1
  H+  H99  1  0.47876678  0.63335000  0.74288319  1
  H+  H100  1  0.48580479  -0.04255268  1.00663541  1
  H+  H101  1  0.86901920  0.49676503  0.48269890  1
  H+  H102  1  0.70091785  0.52140460  0.23928372  1
  H+  H103  1  0.85980766  0.04445970  0.46843005  1
  H+  H104  1  0.49117331  0.98127382  0.51090174  1
  H+  H105  1  0.18682185  0.14777099  0.25913854  1
  H+  H106  1  0.65279997  0.21319605  0.77724709  1
  H+  H107  1  0.82651093  0.63399112  0.23422966  1
  H+  H108  1  0.43688088  0.22863052  0.64350768  1
  H+  H109  1  0.36211034  0.84080781  0.73996289  1
  H+  H110  1  0.78491435  0.22449423  0.11273032  1
  H+  H111  1  0.76329362  0.55776012  0.09064848  1
  H+  H112  1  0.19007175  0.70445224  0.76103045  1
  H+  H113  1  0.24393685  0.79853783  0.37030307  1
  H+  H114  1  0.44869877  0.89912281  0.59928654  1
  H+  H115  1  0.37839772  0.02963047  0.83246698  1
  H+  H116  1  0.64190148  0.05114578  0.91960407  1
  H+  H117  1  0.12315950  0.22051378  0.14570731  1
  H+  H118  1  0.68947857  0.83459815  0.01066836  1
  H+  H119  1  0.43013426  0.55466865  0.65441545  1
  H+  H120  1  0.44377854  0.23115114  0.15901100  1
  H+  H121  1  0.54923532  0.78159814  0.40296071  1
  H+  H122  1  0.90166103  0.11814688  0.37807460  1
  H+  H123  1  0.84277726  0.24507349  0.62456502  1
  H+  H124  1  0.12421551  0.57020685  0.64880752  1
  H+  H125  1  0.56036038  0.12079239  0.40621597  1
  H+  H126  1  0.55808194  0.77827854  0.83970337  1
  H+  H127  1  0.76207293  0.87159330  0.14208138  1
  H+  H128  1  0.90277711  0.12358784  0.91129897  1
  H+  H129  1  0.63086169  0.51668155  0.62137812  1
  H+  H130  1  0.29933095  0.47889907  0.25690767  1
  H+  H131  1  0.79402430  0.79951804  0.67520218  1
  H+  H132  1  0.21989371  0.11440604  0.89316571  1
  H+  H133  1  0.48084798  0.17990281  0.51935741  1
  H+  H134  1  0.10134000  0.22877277  0.64579208  1
  H+  H135  1  0.05017186  0.19777950  0.00858950  1
  H+  H136  1  0.86941854  0.77563756  0.89452351  1
  H+  H137  1  0.10601058  0.54495528  0.09102623  1
  H+  H138  1  0.22279256  0.77848952  0.90268061  1
  H+  H139  1  0.80746330  0.57043953  0.58299662  1
  H+  H140  1  0.21325643  0.44193508  0.85054144  1
  H+  H141  1  0.15165162  0.63509617  0.00809193  1
  H+  H142  1  0.22668997  0.44611254  0.40029471  1
  H+  H143  1  0.51000008  0.81184215  0.98296009  1
  O2-  O144  1  0.11542700  0.21314623  0.21441372  1
  O2-  O145  1  0.08957921  0.22434635  0.71332594  1
  O2-  O146  1  0.08959720  0.52538680  0.21138878  1
  O2-  O147  1  0.12285811  0.57308178  0.71666406  1
  O2-  O148  1  0.13599125  0.89573226  0.21487404  1
  O2-  O149  1  0.14149734  0.89887055  0.71934921  1
  O2-  O150  1  0.45036671  0.23026152  0.22616114  1
  O2-  O151  1  0.43195118  0.23651071  0.71502565  1
  O2-  O152  1  0.43795542  0.55547636  0.21907684  1
  O2-  O153  1  0.43352898  0.55114402  0.72318012  1
  O2-  O154  1  0.45915201  0.91098846  0.21917605  1
  O2-  O155  1  0.44285519  0.89082653  0.71608278  1
  O2-  O156  1  0.78026803  0.21977564  0.22713339  1
  O2-  O157  1  0.87549097  0.25630313  0.68760297  1
  O2-  O158  1  0.78092767  0.55469077  0.21208631  1
  O2-  O159  1  0.77682772  0.56085145  0.68763647  1
  O2-  O160  1  0.76421988  0.88287895  0.21435672  1
  O2-  O161  1  0.78405608  0.81103820  0.73989428  1
  O2-  O162  1  0.22887313  0.10982238  0.28360184  1
  O2-  O163  1  0.21126748  0.12242334  0.77748642  1
  O2-  O164  1  0.21962834  0.43321335  0.28184130  1
  O2-  O165  1  0.20948714  0.44095875  0.78202094  1
  O2-  O166  1  0.25126859  0.79683000  0.30029079  1
  O2-  O167  1  0.23441371  0.78448848  0.78604783  1
  O2-  O168  1  0.56476666  0.12518555  0.28771537  1
  O2-  O169  1  0.45600028  0.06756627  0.80807114  1
  O2-  O170  1  0.57379272  0.46198738  0.27935570  1
  O2-  O171  1  0.52710116  0.43513784  0.77982719  1
  O2-  O172  1  0.54368875  0.77998151  0.28326627  1
  O2-  O173  1  0.56229264  0.77572658  0.77156164  1
  O2-  O174  1  0.89653669  0.10804960  0.26888529  1
  O2-  O175  1  0.86620296  0.08403568  0.79837734  1
  O2-  O176  1  0.88390406  0.43933783  0.27478580  1
  O2-  O177  1  0.88796133  0.46103128  0.75480922  1
  O2-  O178  1  0.92171659  0.78984097  0.27102207  1
  O2-  O179  1  0.82766066  0.74458425  0.78587324  1
  O2-  O180  1  0.22275603  0.11529614  0.46734917  1
  O2-  O181  1  0.22735346  0.11181527  0.96112401  1
  O2-  O182  1  0.22427255  0.44896441  0.46833353  1
  O2-  O183  1  0.22919183  0.44918317  0.96589904  1
  O2-  O184  1  0.23025650  0.79094326  0.47528047  1
  O2-  O185  1  0.22097139  0.77865330  0.97117436  1
  O2-  O186  1  0.56052886  0.11773590  0.47430636  1
  O2-  O187  1  0.59395252  0.07839842  0.94707519  1
  O2-  O188  1  0.58895377  0.49963346  0.56327659  1
  O2-  O189  1  0.55157765  0.44773174  0.95582714  1
  O2-  O190  1  0.54997066  0.78102602  0.47110014  1
  O2-  O191  1  0.55145515  0.77564925  0.95585213  1
  O2-  O192  1  0.90056835  0.12344703  0.44722798  1
  O2-  O193  1  0.92519240  0.14417475  0.97634338  1
  O2-  O194  1  0.90771685  0.45231313  0.46122960  1
  O2-  O195  1  0.87668950  0.45388834  0.98986817  1
  O2-  O196  1  0.90109918  0.79124245  0.46041506  1
  O2-  O197  1  0.88544951  0.77942878  0.96249446  1
  O2-  O198  1  0.13240903  0.23534121  0.03344199  1
  O2-  O199  1  0.11549190  0.23073049  0.52841046  1
  O2-  O200  1  0.11226950  0.55211501  0.02364542  1
  O2-  O201  1  0.12358121  0.57037818  0.52757100  1
  O2-  O202  1  0.10624112  0.88969026  0.02068921  1
  O2-  O203  1  0.11523545  0.89930809  0.53236234  1
  O2-  O204  1  0.43697054  0.23036979  0.03228589  1
  O2-  O205  1  0.43759364  0.21522342  0.54467526  1
  O2-  O206  1  0.44581542  0.56143638  0.03089167  1
  O2-  O207  1  0.43597674  0.56314103  0.54091388  1
  O2-  O208  1  0.43787637  0.88213524  0.03632471  1
  O2-  O209  1  0.44846283  0.89893690  0.53104883  1
  O2-  O210  1  0.79358746  0.23263461  0.04482424  1
  O2-  O211  1  0.78987182  0.23415022  0.51646766  1
  O2-  O212  1  0.76226827  0.55659838  0.02275137  1
  O2-  O213  1  0.81155785  0.56695278  0.51361310  1
  O2-  O214  1  0.76239220  0.86382523  0.04451706  1
  O2-  O215  1  0.75627433  0.85006288  0.54396600  1
