# generated using pymatgen
data_H2O
_symmetry_space_group_name_H-M   'P 1'
_cell_length_a   13.50459283
_cell_length_b   13.50216323
_cell_length_c   14.68251192
_cell_angle_alpha   89.97126738
_cell_angle_beta   90.03713556
_cell_angle_gamma   119.99115602
_symmetry_Int_Tables_number   1
_chemical_formula_structural   H2O
_chemical_formula_sum   'H144 O72'
_cell_volume   2318.75272983
_cell_formula_units_Z   72
loop_
 _symmetry_equiv_pos_site_id
 _symmetry_equiv_pos_as_xyz
  1  'x, y, z'
loop_
 _atom_type_symbol
 _atom_type_oxidation_number
  H+  1.0
  O2-  -2.0
loop_
 _atom_site_type_symbol
 _atom_site_label
 _atom_site_symmetry_multiplicity
 _atom_site_fract_x
 _atom_site_fract_y
 _atom_site_fract_z
 _atom_site_occupancy
  H+  H0  1  0.54751767  0.76348947  0.89617699  1
  H+  H1  1  0.04258303  0.19341509  0.23853510  1
  H+  H2  1  0.48351227  0.46187260  0.47547855  1
  H+  H3  1  0.82711071  0.69604306  0.25765686  1
  H+  H4  1  0.10148223  0.54018061  0.15314175  1
  H+  H5  1  0.86599231  0.75594849  0.71933938  1
  H+  H6  1  0.48554709  0.63384228  0.73061112  1
  H+  H7  1  0.70406502  0.18210866  0.26163116  1
  H+  H8  1  0.47631084  0.98576743  0.50878524  1
  H+  H9  1  0.50117454  0.03514816  0.24171906  1
  H+  H10  1  0.71423829  0.86798963  -0.00200322  1
  H+  H11  1  0.16785070  0.34282877  0.25322851  1
  H+  H12  1  0.89425089  0.00241483  0.48028050  1
  H+  H13  1  0.81589303  0.19393411  0.48933651  1
  H+  H14  1  0.82168223  0.28203506  0.75369798  1
  H+  H15  1  0.84964563  0.81702808  0.50252011  1
  H+  H16  1  0.51192761  0.99410113  0.01557194  1
  H+  H17  1  0.51360560  0.81424736  0.76108042  1
  H+  H18  1  0.80574839  0.62682447  0.01055155  1
  H+  H19  1  0.49422910  0.61625451  0.49570014  1
  H+  H20  1  0.16419330  0.97336131  0.00004958  1
  H+  H21  1  0.51369224  0.36645922  0.76976719  1
  H+  H22  1  0.22780710  0.16863235  0.49108439  1
  H+  H23  1  0.17516954  0.48035674  0.48759635  1
  H+  H24  1  0.98835849  0.84416091  0.75516264  1
  H+  H25  1  0.54269142  0.78561811  0.47498976  1
  H+  H26  1  0.19246646  0.03969353  0.76631250  1
  H+  H27  1  0.28666654  0.81519778  0.25023754  1
  H+  H28  1  0.17434427  0.15789806  -0.01244193  1
  H+  H29  1  0.48142678  0.63052779  0.00353041  1
  H+  H30  1  0.94848719  0.48651708  0.26348085  1
  H+  H31  1  0.17611893  0.18655223  0.74650984  1
  H+  H32  1  0.10580789  0.54805899  0.59312045  1
  H+  H33  1  0.13534811  0.90617246  0.65707209  1
  H+  H34  1  0.28544644  0.46715160  0.98599211  1
  H+  H35  1  0.48855618  0.49863353  1.00088888  1
  H+  H36  1  0.63148262  0.15670342  0.99905548  1
  H+  H37  1  0.52554498  0.15494389  0.76982909  1
  H+  H38  1  0.14250935  0.62659077  0.23830981  1
  H+  H39  1  0.61338377  0.15661336  0.47435469  1
  H+  H40  1  0.48741700  0.19913106  0.01741655  1
  H+  H41  1  0.47501105  0.85267554  0.24452922  1
  H+  H42  1  0.13576423  0.49742572  0.00886754  1
  H+  H43  1  0.48748811  0.88156846  0.54171189  1
  H+  H44  1  0.91296098  0.74269350  0.49024476  1
  H+  H45  1  0.76468776  0.62736817  0.45612682  1
  H+  H46  1  0.64184919  0.83268946  0.24383825  1
  H+  H47  1  0.82726669  0.90057900  0.74858655  1
  H+  H48  1  0.80009691  0.27906127  0.01214453  1
  H+  H49  1  0.54705487  0.09830395  0.38042871  1
  H+  H50  1  0.06543494  0.17443704  0.51281914  1
  H+  H51  1  0.37220882  0.18611742  0.75252614  1
  H+  H52  1  0.63541669  0.82295707  0.75848844  1
  H+  H53  1  0.38194376  0.22501985  0.24781535  1
  H+  H54  1  0.21959569  1.04724907  0.48869723  1
  H+  H55  1  0.66151203  0.78363219  0.49785658  1
  H+  H56  1  0.82281906  0.60954550  0.78795201  1
  H+  H57  1  0.37449545  0.52921630  0.23294821  1
  H+  H58  1  0.29701435  0.48360661  0.48358500  1
  H+  H59  1  0.16897593  0.48174586  0.25786515  1
  H+  H60  1  0.02666284  0.86542137  0.23077650  1
  H+  H61  1  0.29675885  0.80896167  0.77038970  1
  H+  H62  1  0.67700354  0.50623734  0.48815844  1
  H+  H63  1  0.39478422  0.18385034  0.51191220  1
  H+  H64  1  0.27655139  0.78850589  0.99578967  1
  H+  H65  1  0.84793386  0.46042533  0.76602845  1
  H+  H66  1  0.02853665  0.49927963  0.74136448  1
  H+  H67  1  0.29827965  0.82215083  0.49418727  1
  H+  H68  1  0.71453600  0.24154058  0.60991454  1
  H+  H69  1  0.82602510  0.18886930  0.26373268  1
  H+  H70  1  0.00586196  0.17244331  0.00151125  1
  H+  H71  1  0.53065412  0.22456394  0.53378520  1
  H+  H72  1  0.83690660  0.47018136  0.99217998  1
  H+  H73  1  0.80837521  0.07396887  0.73855163  1
  H+  H74  1  0.69003618  0.50991924  1.01077753  1
  H+  H75  1  0.14108034  0.86023736  0.23533704  1
  H+  H76  1  0.16410240  0.86461742  0.51013424  1
  H+  H77  1  0.49060536  0.64896144  0.22667293  1
  H+  H78  1  0.84410081  0.50275553  0.48802908  1
  H+  H79  1  0.29859710  0.16742287  0.99362889  1
  H+  H80  1  0.78270221  0.50256993  0.24571872  1
  H+  H81  1  0.17288102  0.31561113  0.74328821  1
  H+  H82  1  0.48235748  0.96847597  0.76293959  1
  H+  H83  1  0.51946605  0.16350878  0.24774023  1
  H+  H84  1  0.51931591  0.81009212  -0.01262093  1
  H+  H85  1  0.86741791  0.03842615  0.23914362  1
  H+  H86  1  0.80492432  0.16394769  1.01094911  1
  H+  H87  1  0.81435010  0.85914602  0.22377209  1
  H+  H88  1  0.70129207  0.50830659  0.76372102  1
  H+  H89  1  0.88094119  0.11054134  0.48369240  1
  H+  H90  1  0.06029874  0.88988768  0.51059095  1
  H+  H91  1  0.75847295  0.33200527  0.52928924  1
  H+  H92  1  0.17697733  0.47312985  0.75376344  1
  H+  H93  1  0.83679501  0.36532715  0.27845472  1
  H+  H94  1  1.02229040  0.51098280  0.50758077  1
  H+  H95  1  0.51436728  0.48606161  0.76086907  1
  H+  H96  1  0.36691947  0.51554572  0.73228457  1
  H+  H97  1  0.14444337  0.62063318  0.74027396  1
  H+  H98  1  0.50937691  0.39785750  0.38158399  1
  H+  H99  1  0.58952182  0.43022119  0.24726915  1
  H+  H100  1  0.83876860  0.81339201  -0.01392841  1
  H+  H101  1  0.16702686  0.30472448  0.51112372  1
  H+  H102  1  0.19127745  0.05238921  0.25365770  1
  H+  H103  1  0.49978150  0.36478548  0.99418806  1
  H+  H104  1  0.49617620  0.33765802  0.49125541  1
  H+  H105  1  0.81892315  0.17729287  0.53829296  1
  H+  H106  1  0.63794029  0.14208277  0.77680507  1
  H+  H107  1  0.16144460  0.85398299  0.74674975  1
  H+  H108  1  0.21220175  0.44176567  0.35047732  1
  H+  H109  1  0.44531227  0.54038432  0.58764626  1
  H+  H110  1  0.17070725  0.80971443  0.99409496  1
  H+  H111  1  0.88844965  0.12256394  0.91285673  1
  H+  H112  1  0.13036201  0.61326519  0.01264052  1
  H+  H113  1  0.45491537  0.23144262  0.66582992  1
  H+  H114  1  0.59391772  0.96395045  0.06492506  1
  H+  H115  1  0.10430359  0.22545193  0.08554220  1
  H+  H116  1  0.57530646  0.77593339  0.33591618  1
  H+  H117  1  0.44777554  0.89325352  0.15209691  1
  H+  H118  1  0.24035522  0.12702431  0.34454297  1
  H+  H119  1  0.77170427  0.89538874  0.65329179  1
  H+  H120  1  0.14095072  0.23083882  0.64814145  1
  H+  H121  1  0.87319457  0.44593299  0.40717159  1
  H+  H122  1  0.78373077  0.90623773  0.13282679  1
  H+  H123  1  0.16518172  0.34787113  0.98206582  1
  H+  H124  1  0.18097265  0.70289855  0.48767554  1
  H+  H125  1  0.54732418  0.11988582  0.91267424  1
  H+  H126  1  0.11955961  0.89973893  0.08986062  1
  H+  H127  1  0.88764475  0.42280817  0.85410695  1
  H+  H128  1  0.44524102  0.55544293  0.09998247  1
  H+  H129  1  0.21782402  0.43584470  0.84495422  1
  H+  H130  1  0.74607722  0.53978333  0.15520636  1
  H+  H131  1  0.53803348  0.44665361  0.90066351  1
  H+  H132  1  0.43625982  0.90048888  0.67065711  1
  H+  H133  1  0.22645953  0.12167076  0.85614214  1
  H+  H134  1  0.88158265  0.78587580  0.33933864  1
  H+  H135  1  0.91766285  0.10007129  0.33450379  1
  H+  H136  1  0.95198764  0.46443938  0.99650318  1
  H+  H137  1  0.83402543  0.99592478  0.00160551  1
  H+  H138  1  0.87424746  0.77129926  0.89809054  1
  H+  H139  1  0.45499137  0.25167179  0.10359082  1
  H+  H140  1  0.17004323  0.20513260  0.24305813  1
  H+  H141  1  0.73089846  0.75132919  0.59012741  1
  H+  H142  1  0.20972114  0.77863977  0.33892005  1
  H+  H143  1  0.20743049  0.76133770  0.85266443  1
  O2-  O144  1  0.12771117  0.24552737  0.22192724  1
  O2-  O145  1  0.14007931  0.23219476  0.71770470  1
  O2-  O146  1  0.10474244  0.54374602  0.22173330  1
  O2-  O147  1  0.10823659  0.54107640  0.71586621  1
  O2-  O148  1  0.10905443  0.90885671  0.21479474  1
  O2-  O149  1  0.12973204  0.90319337  0.72482117  1
  O2-  O150  1  0.46516367  0.26732394  0.22995648  1
  O2-  O151  1  0.45441546  0.22854079  0.73321736  1
  O2-  O152  1  0.44947191  0.56855668  0.20305233  1
  O2-  O153  1  0.44619209  0.55302907  0.70752011  1
  O2-  O154  1  0.43123290  0.88759235  0.21872870  1
  O2-  O155  1  0.44057301  0.88898500  0.73693070  1
  O2-  O156  1  0.78544379  0.23040289  0.27810453  1
  O2-  O157  1  0.77481661  0.20053190  0.73038764  1
  O2-  O158  1  0.73397816  0.53381592  0.22275052  1
  O2-  O159  1  0.78355838  0.54350655  0.74781797  1
  O2-  O160  1  0.78085935  0.90626484  0.20261339  1
  O2-  O161  1  0.77374589  0.92004651  0.71849794  1
  O2-  O162  1  0.23392594  0.13304704  0.27725840  1
  O2-  O163  1  0.23022893  0.12188435  0.78651430  1
  O2-  O164  1  0.21070714  0.43958198  0.28107650  1
  O2-  O165  1  0.22113660  0.43544396  0.77609421  1
  O2-  O166  1  0.20539727  0.77432018  0.27144234  1
  O2-  O167  1  0.21320585  0.76637670  0.78476047  1
  O2-  O168  1  0.55143035  0.11451334  0.26458052  1
  O2-  O169  1  0.55653743  0.10814495  0.79662238  1
  O2-  O170  1  0.50869088  0.38233917  0.27185027  1
  O2-  O171  1  0.55101128  0.44719860  0.79296632  1
  O2-  O172  1  0.56316115  0.78695161  0.27079256  1
  O2-  O173  1  0.55413573  0.77190196  0.77801722  1
  O2-  O174  1  0.91631271  0.11593923  0.26899824  1
  O2-  O175  1  0.84875666  0.15457701  0.76018546  1
  O2-  O176  1  0.87067489  0.45059579  0.28941205  1
  O2-  O177  1  0.89001343  0.42054883  0.78556284  1
  O2-  O178  1  0.87372228  0.77878036  0.27217059  1
  O2-  O179  1  0.90462167  0.80941392  0.76913006  1
  O2-  O180  1  0.26553220  0.12794285  0.46471790  1
  O2-  O181  1  0.22202819  0.12395016  0.96512013  1
  O2-  O182  1  0.21593160  0.44045047  0.46253675  1
  O2-  O183  1  0.20826141  0.43110140  0.95911110  1
  O2-  O184  1  0.22016180  0.78387513  0.46701210  1
  O2-  O185  1  0.19873068  0.75496427  0.97250314  1
  O2-  O186  1  0.54028093  0.09611528  0.44830706  1
  O2-  O187  1  0.54680979  0.12355879  0.98063183  1
  O2-  O188  1  0.51996407  0.41456088  0.45020147  1
  O2-  O189  1  0.53549013  0.44729491  0.97038031  1
  O2-  O190  1  0.58215963  0.74522162  0.45661652  1
  O2-  O191  1  0.54688703  0.75906287  0.96437943  1
  O2-  O192  1  0.93148047  0.08270894  0.46120401  1
  O2-  O193  1  0.89233577  0.11531104  0.97872246  1
  O2-  O194  1  0.87471394  0.45086793  0.47559907  1
  O2-  O195  1  0.87408184  0.42722128  0.96912301  1
  O2-  O196  1  0.91331647  0.80988675  0.46501757  1
  O2-  O197  1  0.85365902  0.75302572  0.96239368  1
  O2-  O198  1  0.09943970  0.22010717  0.01890415  1
  O2-  O199  1  0.14311983  0.22764023  0.53793587  1
  O2-  O200  1  0.09484558  0.53391726  0.03756067  1
  O2-  O201  1  0.10502821  0.54859357  0.52511853  1
  O2-  O202  1  0.13170095  0.89472300  0.02398674  1
  O2-  O203  1  0.13854324  0.91759807  0.53507341  1
  O2-  O204  1  0.44782748  0.24284930  0.03652255  1
  O2-  O205  1  0.46861393  0.24306193  0.54204670  1
  O2-  O206  1  0.44291201  0.54897084  0.02906975  1
  O2-  O207  1  0.44185930  0.53531366  0.51925698  1
  O2-  O208  1  0.51411752  0.92683295  0.04504789  1
  O2-  O209  1  0.43559860  0.91164228  0.54623513  1
  O2-  O210  1  0.75566988  0.19750206  0.02999439  1
  O2-  O211  1  0.68843309  0.26737247  0.55742456  1
  O2-  O212  1  0.76806005  0.54628631  0.03582780  1
  O2-  O213  1  0.75540418  0.56823537  0.49930718  1
  O2-  O214  1  0.79127379  0.90811736  0.02453068  1
  O2-  O215  1  0.75708083  0.82099264  0.55402822  1
