# generated using pymatgen
data_H2O
_symmetry_space_group_name_H-M   'P 1'
_cell_length_a   13.52996934
_cell_length_b   13.52261482
_cell_length_c   14.70511745
_cell_angle_alpha   90.00745569
_cell_angle_beta   89.95682467
_cell_angle_gamma   119.96226088
_symmetry_Int_Tables_number   1
_chemical_formula_structural   H2O
_chemical_formula_sum   'H144 O72'
_cell_volume   2330.88854942
_cell_formula_units_Z   72
loop_
 _symmetry_equiv_pos_site_id
 _symmetry_equiv_pos_as_xyz
  1  'x, y, z'
loop_
 _atom_type_symbol
 _atom_type_oxidation_number
  H+  1.0
  O2-  -2.0
loop_
 _atom_site_type_symbol
 _atom_site_label
 _atom_site_symmetry_multiplicity
 _atom_site_fract_x
 _atom_site_fract_y
 _atom_site_fract_z
 _atom_site_occupancy
  H+  H0  1  0.16872820  0.18986517  0.71754498  1
  H+  H1  1  0.14613034  0.62837038  0.71909386  1
  H+  H2  1  0.53975555  0.06816503  0.42669065  1
  H+  H3  1  0.84886570  0.02517207  0.49041367  1
  H+  H4  1  0.32601069  0.17331009  0.74286320  1
  H+  H5  1  0.47751658  -0.03813271  0.74176850  1
  H+  H6  1  0.19929231  0.35756150  0.27960386  1
  H+  H7  1  0.09219934  0.88951096  0.81472472  1
  H+  H8  1  0.49344042  0.79764702  0.26348850  1
  H+  H9  1  0.28914312  0.80433612  0.25789157  1
  H+  H10  1  0.52082783  0.80728088  0.98988656  1
  H+  H11  1  0.02637750  0.17783762  0.50337262  1
  H+  H12  1  0.50378920  0.30584274  0.74000444  1
  H+  H13  1  0.07304024  0.54834519  0.58346549  1
  H+  H14  1  0.29798769  0.15705689  0.49426809  1
  H+  H15  1  0.69280953  0.52109768  0.24697188  1
  H+  H16  1  0.27170478  0.78187558  0.48975905  1
  H+  H17  1  0.50771145  0.15967785  1.00360146  1
  H+  H18  1  0.94248999  0.78782367  0.75819232  1
  H+  H19  1  0.69241519  0.50300470  0.72742254  1
  H+  H20  1  0.14514068  0.53523711  0.25840691  1
  H+  H21  1  0.36094498  0.18911201  1.00186151  1
  H+  H22  1  0.83391585  -0.01317420  0.99840565  1
  H+  H23  1  0.81587850  0.01818180  0.25505067  1
  H+  H24  1  0.70459505  0.84657062  0.50962955  1
  H+  H25  1  0.82014134  0.53325218  1.01166083  1
  H+  H26  1  0.19906253  0.02821210  1.00357209  1
  H+  H27  1  0.81746818  0.31144302  0.25133731  1
  H+  H28  1  0.52055641  0.69767331  0.75292140  1
  H+  H29  1  0.69545104  0.17205218  0.51236072  1
  H+  H30  1  1.02930110  0.51228630  0.72940896  1
  H+  H31  1  0.15818957  0.11369700  0.25493205  1
  H+  H32  1  0.48237036  0.84844056  0.72680898  1
  H+  H33  1  0.50953473  0.47684479  0.26430525  1
  H+  H34  1  0.69790838  0.84874771  0.73928416  1
  H+  H35  1  0.48891990  0.62650769  0.24701726  1
  H+  H36  1  0.81483796  0.18985273  0.24038439  1
  H+  H37  1  0.97990110  0.51179800  0.50231277  1
  H+  H38  1  0.37696594  0.52407297  0.74182070  1
  H+  H39  1  0.15756695  0.96864899  0.25949869  1
  H+  H40  1  0.04546699  0.84033073  0.98209257  1
  H+  H41  1  0.03500053  0.83632647  0.25917309  1
  H+  H42  1  0.46641191  0.29718804  0.24555980  1
  H+  H43  1  0.85708869  0.44675464  0.36648043  1
  H+  H44  1  0.82806020  0.58750618  0.50120362  1
  H+  H45  1  0.62527592  0.13093069  0.77484505  1
  H+  H46  1  0.46294612  0.61341412  1.02125299  1
  H+  H47  1  0.48709606  0.28673030  0.51213186  1
  H+  H48  1  0.36350688  0.52272621  0.51508031  1
  H+  H49  1  0.53692407  0.84272457  0.48786651  1
  H+  H50  1  0.70525529  0.27252156  0.69457723  1
  H+  H51  1  0.81874695  0.66679715  0.73232855  1
  H+  H52  1  0.85945392  0.03539742  0.75564915  1
  H+  H53  1  0.23116026  0.36978075  0.23478907  1
  H+  H54  1  0.92786194  0.72035618  0.97514698  1
  H+  H55  1  0.61769913  0.81706764  0.25207465  1
  H+  H56  1  0.77071452  0.82881300  0.21061764  1
  H+  H57  1  0.19694727  0.49452566  0.74363225  1
  H+  H58  1  0.43006556  0.54176428  0.16254649  1
  H+  H59  1  0.47584600  0.94038703  0.58368750  1
  H+  H60  1  0.33789992  0.50778712  1.02320082  1
  H+  H61  1  0.15402455  0.18970637  0.50122689  1
  H+  H62  1  0.20942369  0.05722586  0.73186528  1
  H+  H63  1  0.80954795  0.32746034  0.01380070  1
  H+  H64  1  0.47111349  0.18338992  0.24833610  1
  H+  H65  1  0.16220228  0.47927623  -0.01206733  1
  H+  H66  1  0.15577128  0.48677637  0.49606270  1
  H+  H67  1  0.51927865  0.47401156  0.49638531  1
  H+  H68  1  0.52921859  0.36134762  -0.02111487  1
  H+  H69  1  0.21234848  0.76848712  0.35183982  1
  H+  H70  1  0.86726799  0.15646105  0.75807750  1
  H+  H71  1  0.77245301  0.22931529  0.63953063  1
  H+  H72  1  0.11396925  0.62772317  0.24250219  1
  H+  H73  1  0.80791445  0.51616262  0.24849488  1
  H+  H74  1  0.20659208  0.83616530  1.00071742  1
  H+  H75  1  0.38511203  0.85812927  -0.00101054  1
  H+  H76  1  0.47299772  0.16059781  0.51734144  1
  H+  H77  1  0.17547336  0.19401576  -0.00581446  1
  H+  H78  1  0.67836871  0.19853014  1.02045108  1
  H+  H79  1  0.85185645  0.68297907  0.27114794  1
  H+  H80  1  0.84874147  0.14459586  0.48772678  1
  H+  H81  1  0.32011991  0.54901803  0.28067461  1
  H+  H82  1  0.63516372  0.80499749  0.98307226  1
  H+  H83  1  0.17385121  0.36774793  0.97825308  1
  H+  H84  1  0.12797292  0.81617102  0.75728771  1
  H+  H85  1  0.30019824  0.81013333  0.74729469  1
  H+  H86  1  0.82465462  0.80206097  0.74096887  1
  H+  H87  1  0.46524831  0.94771381  0.23802188  1
  H+  H88  1  0.63316614  0.46343335  0.49049918  1
  H+  H89  1  0.60674447  0.23497561  0.34868188  1
  H+  H90  1  0.04052043  0.18031342  0.72568344  1
  H+  H91  1  0.85337853  0.48818937  0.75947614  1
  H+  H92  1  0.14468370  0.67444489  0.48139145  1
  H+  H93  1  0.13638978  0.83229715  0.52437429  1
  H+  H94  1  0.13063298  0.62722315  1.02571799  1
  H+  H95  1  0.94910784  0.48109778  0.28254371  1
  H+  H96  1  0.83004553  0.86576541  0.00304278  1
  H+  H97  1  0.64794650  0.17861118  0.27801163  1
  H+  H98  1  -0.01049613  0.15291826  -0.01138561  1
  H+  H99  1  0.86960904  0.09596747  0.34492506  1
  H+  H100  1  0.64101402  0.48600902  0.98013315  1
  H+  H101  1  0.87194771  0.80750043  0.30031027  1
  H+  H102  1  0.16205112  0.83717222  0.25784938  1
  H+  H103  1  0.51453130  0.14201321  0.77221200  1
  H+  H104  1  0.52581316  0.48304736  0.75346550  1
  H+  H105  1  0.95918693  0.48275540  0.99865959  1
  H+  H106  1  -0.00690997  0.12624559  0.23100022  1
  H+  H107  1  0.95947243  0.78891411  0.51765399  1
  H+  H108  1  0.79648392  0.30386057  0.50481440  1
  H+  H109  1  0.43733501  0.22483038  0.09566377  1
  H+  H110  1  0.21970934  0.11589621  0.40530681  1
  H+  H111  1  0.11225364  0.23594909  0.22744524  1
  H+  H112  1  0.28881855  0.13581417  0.25835940  1
  H+  H113  1  0.48408032  0.63583944  0.51036865  1
  H+  H114  1  0.11092895  0.74678861  0.94633769  1
  H+  H115  1  0.22660529  0.75949732  0.83831029  1
  H+  H116  1  0.45489076  0.55812969  0.65251321  1
  H+  H117  1  0.89195048  0.74844058  0.42523633  1
  H+  H118  1  0.16995949  0.37703466  0.49215234  1
  H+  H119  1  0.55619587  0.77587364  0.84130737  1
  H+  H120  1  0.77961989  0.88925681  0.65037390  1
  H+  H121  1  0.46148973  0.22017506  0.65371752  1
  H+  H122  1  0.15316762  0.94458906  0.09647293  1
  H+  H123  1  0.88461720  0.44573492  0.90558738  1
  H+  H124  1  0.77745871  0.53077710  0.63920014  1
  H+  H125  1  0.49490459  0.97951442  0.01472135  1
  H+  H126  1  0.24335902  0.13353957  0.90157977  1
  H+  H127  1  0.10927398  0.21794145  0.61810335  1
  H+  H128  1  0.90530773  0.11782688  0.90513783  1
  H+  H129  1  0.78338560  0.57853764  0.09646235  1
  H+  H130  1  0.55990035  0.78446475  0.40332956  1
  H+  H131  1  0.43401438  0.87747551  0.14625519  1
  H+  H132  1  0.55043708  0.43492716  0.35146505  1
  H+  H133  1  0.24624269  0.51984294  0.37059169  1
  H+  H134  1  0.81775697  0.83627826  0.51626169  1
  H+  H135  1  0.08727735  0.54249034  0.11188673  1
  H+  H136  1  0.55572860  0.11844812  0.91836834  1
  H+  H137  1  0.76212299  0.89503972  0.12667513  1
  H+  H138  1  0.12033497  0.21983386  0.08180737  1
  H+  H139  1  0.76988008  0.24432551  0.11211949  1
  H+  H140  1  0.85559552  0.37264808  0.76079533  1
  H+  H141  1  0.57221217  0.44174218  0.83954770  1
  H+  H142  1  0.09979265  0.86588696  0.61637966  1
  H+  H143  1  0.23050279  0.46666766  0.84018970  1
  O2-  O144  1  0.07289876  0.15577219  0.20788139  1
  O2-  O145  1  0.11648095  0.21879575  0.69367411  1
  O2-  O146  1  0.08245054  0.54555822  0.22966178  1
  O2-  O147  1  0.10233317  0.54930028  0.69490830  1
  O2-  O148  1  0.11703680  0.88188224  0.23694940  1
  O2-  O149  1  0.08325994  0.85737343  0.75357282  1
  O2-  O150  1  0.42459744  0.21536701  0.22450444  1
  O2-  O151  1  0.46331719  0.22256997  0.72195149  1
  O2-  O152  1  0.44244480  0.54458185  0.23101713  1
  O2-  O153  1  0.45939494  0.55979066  0.72013636  1
  O2-  O154  1  0.42438149  0.86992042  0.21434714  1
  O2-  O155  1  0.44217031  0.88948060  0.70608780  1
  O2-  O156  1  0.77714345  0.23395804  0.22077859  1
  O2-  O157  1  0.75463997  0.23984431  0.70458073  1
  O2-  O158  1  0.77469673  0.56386793  0.22673550  1
  O2-  O159  1  0.77593080  0.54609591  0.70560344  1
  O2-  O160  1  0.75049217  0.88646432  0.19534552  1
  O2-  O161  1  0.78060825  0.88651064  0.71883442  1
  O2-  O162  1  0.20850750  0.08603159  0.28227743  1
  O2-  O163  1  0.24100759  0.13503538  0.75477239  1
  O2-  O164  1  0.26296596  0.56228938  0.31236228  1
  O2-  O165  1  0.24584769  0.46969281  0.77382116  1
  O2-  O166  1  0.21024135  0.77417068  0.28294539  1
  O2-  O167  1  0.22041948  0.76487160  0.77170050  1
  O2-  O168  1  0.57957884  0.16331211  0.31548973  1
  O2-  O169  1  0.54699422  0.09598054  0.79935490  1
  O2-  O170  1  0.55179112  0.43601122  0.28367202  1
  O2-  O171  1  0.56928063  0.44322757  0.76969150  1
  O2-  O172  1  0.54558266  0.77141951  0.28627266  1
  O2-  O173  1  0.55970258  0.78013787  0.77345743  1
  O2-  O174  1  0.86471885  0.09774465  0.27702595  1
  O2-  O175  1  0.90879985  0.11695930  0.77391361  1
  O2-  O176  1  0.86584494  0.44126648  0.29795180  1
  O2-  O177  1  0.89485556  0.45121217  0.78603838  1
  O2-  O178  1  0.90797821  0.76063787  0.30099019  1
  O2-  O179  1  0.85599974  0.74913390  0.76055391  1
  O2-  O180  1  0.22054534  0.13248910  0.47072198  1
  O2-  O181  1  0.24316708  0.13741328  0.96794268  1
  O2-  O182  1  0.21076703  0.46035184  0.48177515  1
  O2-  O183  1  0.20841362  0.44949860  0.95943805  1
  O2-  O184  1  0.19768528  0.75783975  0.46177535  1
  O2-  O185  1  0.18904585  0.76488071  0.96703344  1
  O2-  O186  1  0.54055433  0.06798871  0.49430022  1
  O2-  O187  1  0.55670279  0.12259982  0.98625577  1
  O2-  O188  1  0.55164789  0.42733114  0.47230816  1
  O2-  O189  1  0.57266767  0.43412249  0.94481424  1
  O2-  O190  1  0.56575075  0.79080213  0.47117567  1
  O2-  O191  1  0.55418976  0.76315799  0.96390757  1
  O2-  O192  1  0.88804527  0.10426718  0.46425808  1
  O2-  O193  1  0.90588041  0.11095097  0.97166873  1
  O2-  O194  1  0.84223867  0.44664932  0.47929536  1
  O2-  O195  1  0.87858678  0.44347065  0.97351506  1
  O2-  O196  1  0.87938079  0.74384651  0.49160326  1
  O2-  O197  1  0.99635977  0.77468483  0.94074988  1
  O2-  O198  1  0.12568274  0.22945686  0.01554017  1
  O2-  O199  1  0.10610079  0.22353833  0.52785434  1
  O2-  O200  1  0.08740155  0.54552331  0.04364836  1
  O2-  O201  1  0.06521658  0.54825798  0.51558708  1
  O2-  O202  1  0.16717961  0.94216549  0.03173907  1
  O2-  O203  1  0.09069234  0.86415932  0.55050498  1
  O2-  O204  1  0.44483390  0.22336143  0.02891664  1
  O2-  O205  1  0.44153778  0.20844678  0.53888570  1
  O2-  O206  1  0.41298939  0.54254460  0.05450258  1
  O2-  O207  1  0.44527963  0.55545292  0.53133799  1
  O2-  O208  1  0.45727195  0.89645802  0.03227930  1
  O2-  O209  1  0.48193402  0.94363396  0.51563642  1
  O2-  O210  1  0.76253390  0.24584651  0.04291229  1
  O2-  O211  1  0.77715584  0.22443694  0.52557068  1
  O2-  O212  1  0.79112658  0.58482040  0.02946158  1
  O2-  O213  1  0.78180587  0.50577494  0.52050405  1
  O2-  O214  1  0.78425537  0.90102672  0.01774115  1
  O2-  O215  1  0.78467221  0.88514603  0.53376981  1
