# generated using pymatgen
data_H2O
_symmetry_space_group_name_H-M   'P 1'
_cell_length_a   13.51217499
_cell_length_b   13.51141864
_cell_length_c   14.67547052
_cell_angle_alpha   90.05060463
_cell_angle_beta   89.98337915
_cell_angle_gamma   120.01614997
_symmetry_Int_Tables_number   1
_chemical_formula_structural   H2O
_chemical_formula_sum   'H144 O72'
_cell_volume   2319.94667418
_cell_formula_units_Z   72
loop_
 _symmetry_equiv_pos_site_id
 _symmetry_equiv_pos_as_xyz
  1  'x, y, z'
loop_
 _atom_type_symbol
 _atom_type_oxidation_number
  H+  1.0
  O2-  -2.0
loop_
 _atom_site_type_symbol
 _atom_site_label
 _atom_site_symmetry_multiplicity
 _atom_site_fract_x
 _atom_site_fract_y
 _atom_site_fract_z
 _atom_site_occupancy
  H+  H0  1  0.51108116  0.24602161  0.25037221  1
  H+  H1  1  0.30736785  0.15705336  -0.00840813  1
  H+  H2  1  0.85019990  1.03488900  0.49428727  1
  H+  H3  1  0.53839769  0.71884414  0.74712082  1
  H+  H4  1  0.26687465  0.80707485  0.50175480  1
  H+  H5  1  0.85537724  0.36981719  1.00681216  1
  H+  H6  1  0.48553578  0.97496016  -0.01645167  1
  H+  H7  1  0.41465405  0.80732941  0.53220506  1
  H+  H8  1  0.53133955  0.34729667  0.76979093  1
  H+  H9  1  0.81970140  0.94781224  0.25330833  1
  H+  H10  1  0.91280646  0.18805449  0.23823921  1
  H+  H11  1  0.30245458  0.48198430  0.48392396  1
  H+  H12  1  0.16074713  0.51867511  0.99470347  1
  H+  H13  1  0.16852713  0.02336236  0.24991682  1
  H+  H14  1  0.85036347  0.82241756  0.99513093  1
  H+  H15  1  0.85392749  0.48180452  0.24926875  1
  H+  H16  1  0.52479660  0.17057667  -0.01764392  1
  H+  H17  1  0.84817324  0.80389334  0.76016708  1
  H+  H18  1  0.13609331  0.84662375  0.53298582  1
  H+  H19  1  0.36621505  0.17137974  0.75396746  1
  H+  H20  1  0.48117009  0.63117937  0.02252357  1
  H+  H21  1  0.14798707  0.32163628  0.52503290  1
  H+  H22  1  0.85065503  0.35407392  0.48912849  1
  H+  H23  1  0.81969616  0.62583840  0.73478358  1
  H+  H24  1  0.17204008  0.80841539  0.99297637  1
  H+  H25  1  0.18255078  0.48264457  0.48871638  1
  H+  H26  1  0.55635319  0.82308314  0.48405330  1
  H+  H27  1  0.49480735  0.31712121  1.00600958  1
  H+  H28  1  0.02495920  0.51471586  0.73913024  1
  H+  H29  1  0.81803875  0.48737825  0.50761590  1
  H+  H30  1  0.52024849  0.45671816  0.75641787  1
  H+  H31  1  0.71439601  0.51749221  0.06381906  1
  H+  H32  1  0.96629723  0.15900005  0.99738708  1
  H+  H33  1  0.69440681  0.49484336  0.50223806  1
  H+  H34  1  1.02232979  0.85550567  0.75013957  1
  H+  H35  1  0.71670157  0.86752316  0.74085700  1
  H+  H36  1  0.52970384  0.49207191  0.99340813  1
  H+  H37  1  0.18429488  0.13198326  0.46570974  1
  H+  H38  1  0.69712855  0.19058278  0.01058849  1
  H+  H39  1  0.82181876  0.04758631  0.78704826  1
  H+  H40  1  0.18704464  0.36929352  0.99384890  1
  H+  H41  1  0.69077867  0.84155666  0.24362090  1
  H+  H42  1  0.14516046  0.20622525  0.54367571  1
  H+  H43  1  0.80834338  0.30743836  0.23829883  1
  H+  H44  1  0.47497010  0.90073153  0.14428907  1
  H+  H45  1  0.36050407  0.49789247  0.23718109  1
  H+  H46  1  0.32371111  0.80770704  0.21497494  1
  H+  H47  1  0.15470620  0.97113618  0.51518216  1
  H+  H48  1  0.49281485  0.63059761  0.49887946  1
  H+  H49  1  0.52746971  0.14365838  0.83460662  1
  H+  H50  1  0.51197955  0.85280505  0.23839079  1
  H+  H51  1  0.83773019  0.17585132  0.51760514  1
  H+  H52  1  0.59301681  0.93299462  0.78600019  1
  H+  H53  1  0.84582760  0.79531628  0.25016880  1
  H+  H54  1  1.03370270  0.85325674  1.00693935  1
  H+  H55  1  0.52373361  0.71623961  0.25860355  1
  H+  H56  1  0.88980064  0.75859350  0.33703973  1
  H+  H57  1  0.18974732  0.03474708  0.99447309  1
  H+  H58  1  0.43414088  0.79726570  0.74467585  1
  H+  H59  1  0.51715364  0.36872797  0.48202415  1
  H+  H60  1  0.30990502  0.48758688  -0.00709156  1
  H+  H61  1  0.84914178  0.03842181  1.00032215  1
  H+  H62  1  0.81394758  0.18505281  0.01755277  1
  H+  H63  1  0.15483512  0.61724919  0.22309954  1
  H+  H64  1  -0.03499340  0.47361002  0.48712466  1
  H+  H65  1  0.55438915  0.78367734  1.11136766  1
  H+  H66  1  0.61668033  0.11449671  0.46315175  1
  H+  H67  1  0.13101684  0.61255003  0.51039598  1
  H+  H68  1  0.50364568  0.11157061  0.47929294  1
  H+  H69  1  0.70604443  0.85782663  0.02788075  1
  H+  H70  1  1.02513065  0.50120461  0.24553101  1
  H+  H71  1  0.46535768  0.58108114  0.72538149  1
  H+  H72  1  0.16165056  0.35229863  0.25899687  1
  H+  H73  1  0.81727110  0.62066859  0.21565009  1
  H+  H74  1  0.69930442  0.50574520  0.73857256  1
  H+  H75  1  0.84179753  0.47855087  0.76691052  1
  H+  H76  1  0.36765163  0.85556176  -0.00820422  1
  H+  H77  1  -0.03457209  0.15804099  0.50056551  1
  H+  H78  1  1.02157646  0.17570783  0.76091800  1
  H+  H79  1  0.15686970  0.64690878  -0.00650265  1
  H+  H80  1  0.48575380  0.21175011  0.52681167  1
  H+  H81  1  0.85677101  0.81668006  0.47178715  1
  H+  H82  1  0.36113324  0.18657566  0.50477713  1
  H+  H83  1  0.02884238  0.83479014  0.23649848  1
  H+  H84  1  0.15264317  0.84373865  0.22768722  1
  H+  H85  1  0.56620473  0.43484529  0.38810238  1
  H+  H86  1  0.47409551  0.49115092  0.23233023  1
  H+  H87  1  0.17415552  0.33620194  0.77505117  1
  H+  H88  1  0.17833394  0.82454461  0.76303328  1
  H+  H89  1  0.69176888  0.75599071  0.68952047  1
  H+  H90  1  0.52314341  0.02906818  0.24199310  1
  H+  H91  1  0.72360940  0.18800707  0.54307359  1
  H+  H92  1  0.82986225  0.31879296  0.75190092  1
  H+  H93  1  0.83571289  0.19554729  0.75619963  1
  H+  H94  1  0.17199069  0.14243040  0.77105285  1
  H+  H95  1  0.03196368  0.51344824  0.00367332  1
  H+  H96  1  0.15287645  0.99604375  0.75911889  1
  H+  H97  1  0.57557301  0.78538573  0.38404331  1
  H+  H98  1  0.29434925  0.82002919  0.76717513  1
  H+  H99  1  0.15016926  0.18522490  0.01390752  1
  H+  H100  1  0.48543377  0.94303617  0.51356161  1
  H+  H101  1  0.45682783  0.24659302  0.09625249  1
  H+  H102  1  0.71664758  0.85018812  0.49169658  1
  H+  H103  1  -0.03004686  0.81402865  0.47990724  1
  H+  H104  1  0.48966851  0.51248324  0.49228573  1
  H+  H105  1  0.30456279  0.45256713  0.75823249  1
  H+  H106  1  0.62095795  0.44424953  0.23124680  1
  H+  H107  1  0.48532186  0.70475681  0.77529772  1
  H+  H108  1  0.20881142  0.43190406  0.34928585  1
  H+  H109  1  0.26727927  0.15462395  0.24516601  1
  H+  H110  1  0.23558167  0.43538524  0.86220468  1
  H+  H111  1  0.85266202  0.70639753  1.00556474  1
  H+  H112  1  0.77256301  0.53256858  0.60218872  1
  H+  H113  1  0.44163118  0.21246495  0.66601328  1
  H+  H114  1  0.18069395  0.77542871  0.42237350  1
  H+  H115  1  0.09634430  0.53605556  0.59902592  1
  H+  H116  1  0.45304085  0.88971455  0.67365957  1
  H+  H117  1  0.10014281  0.22570565  0.67114662  1
  H+  H118  1  0.14982590  0.48747491  0.25101620  1
  H+  H119  1  0.43696896  0.53728702  0.09857343  1
  H+  H120  1  0.78746890  0.88450506  0.58471057  1
  H+  H121  1  0.88404127  0.43955305  0.34419374  1
  H+  H122  1  0.22729478  0.09509939  0.38342700  1
  H+  H123  1  0.21610108  0.10239002  0.86117341  1
  H+  H124  1  0.76659129  0.22626896  0.14132768  1
  H+  H125  1  0.58170796  0.45476540  0.91157695  1
  H+  H126  1  0.55340540  0.10489530  0.33092292  1
  H+  H127  1  0.09984027  0.22243910  0.09790811  1
  H+  H128  1  0.89182070  0.77320990  0.85259171  1
  H+  H129  1  0.20723058  0.77058751  0.89922012  1
  H+  H130  1  0.25210082  0.76096465  0.30115495  1
  H+  H131  1  0.88206139  0.44350469  0.85952856  1
  H+  H132  1  0.51552607  0.82205587  1.02383140  1
  H+  H133  1  0.10712966  0.90721282  0.65715545  1
  H+  H134  1  0.13925619  0.63366335  0.73162884  1
  H+  H135  1  0.86382102  0.49031193  1.02250444  1
  H+  H136  1  0.08502897  0.16085219  0.24871419  1
  H+  H137  1  0.11167333  0.88852104  0.09582485  1
  H+  H138  1  0.67645513  0.17817101  0.23696864  1
  H+  H139  1  0.42817331  0.51238163  0.63398034  1
  H+  H140  1  0.80976557  0.23887518  0.65481162  1
  H+  H141  1  0.88761406  0.12804398  0.86862381  1
  H+  H142  1  0.64631502  0.90439325  0.86944989  1
  H+  H143  1  0.79452597  0.89776747  0.10631892  1
  O2-  O144  1  0.06905698  0.21940954  0.22295635  1
  O2-  O145  1  0.10301075  0.21459029  0.73877145  1
  O2-  O146  1  0.10611020  0.53098079  0.22155661  1
  O2-  O147  1  0.09984865  0.55447384  0.70808261  1
  O2-  O148  1  0.11007746  0.88373757  0.21379803  1
  O2-  O149  1  0.10582644  0.90531486  0.72749369  1
  O2-  O150  1  0.47728103  0.28932573  0.22279222  1
  O2-  O151  1  0.44593898  0.20785114  0.73273938  1
  O2-  O152  1  0.43876748  0.53638665  0.21220054  1
  O2-  O153  1  0.42427703  0.50174714  0.70222150  1
  O2-  O154  1  0.46523473  0.89430159  0.21096713  1
  O2-  O155  1  0.44062857  0.87278651  0.73986589  1
  O2-  O156  1  0.76349651  0.22646595  0.21264923  1
  O2-  O157  1  0.79955536  0.23774532  0.72432058  1
  O2-  O158  1  0.77951792  0.53941205  0.19040153  1
  O2-  O159  1  0.77944152  0.54595000  0.71149066  1
  O2-  O160  1  0.77641976  0.87488278  0.22168224  1
  O2-  O161  1  0.75397840  0.83295415  0.70344732  1
  O2-  O162  1  0.19675354  0.10134907  0.27711719  1
  O2-  O163  1  0.20904760  0.09738466  0.79106734  1
  O2-  O164  1  0.20610026  0.43399031  0.28075804  1
  O2-  O165  1  0.22877790  0.42099054  0.79232512  1
  O2-  O166  1  0.24032281  0.76052072  0.23555765  1
  O2-  O167  1  0.21211942  0.77905449  0.78527861  1
  O2-  O168  1  0.56030570  0.11193292  0.26401495  1
  O2-  O169  1  0.59918761  0.16223804  0.86622552  1
  O2-  O170  1  0.54633131  0.40706092  0.26486169  1
  O2-  O171  1  0.57104260  0.43138932  0.78336172  1
  O2-  O172  1  0.56910905  0.79794922  0.27275260  1
  O2-  O173  1  0.66381118  0.93542869  0.80759947  1
  O2-  O174  1  0.97476627  0.20829784  0.28252477  1
  O2-  O175  1  0.88605518  0.12527013  0.79890882  1
  O2-  O176  1  0.88955246  0.43851112  0.27597345  1
  O2-  O177  1  0.88113621  0.43808657  0.79189570  1
  O2-  O178  1  0.88849266  0.75561749  0.26806060  1
  O2-  O179  1  0.89793581  0.77446546  0.78431184  1
  O2-  O180  1  0.23251180  0.09885600  0.45290684  1
  O2-  O181  1  0.22616841  0.11441768  0.96925764  1
  O2-  O182  1  0.22008408  0.43926434  0.46559885  1
  O2-  O183  1  0.22833951  0.44824558  0.96686928  1
  O2-  O184  1  0.18547431  0.76202736  0.48715030  1
  O2-  O185  1  0.20959511  0.76564759  0.96769028  1
  O2-  O186  1  0.53498600  0.06818900  0.44995681  1
  O2-  O187  1  0.56380255  0.12688348  0.96199548  1
  O2-  O188  1  0.56949872  0.44560078  0.45545252  1
  O2-  O189  1  0.57608254  0.45526036  0.97892471  1
  O2-  O190  1  0.58075878  0.77430502  0.45303646  1
  O2-  O191  1  0.55700470  0.78142133  1.04442696  1
  O2-  O192  1  0.88515509  0.11873951  0.47935144  1
  O2-  O193  1  0.88458062  0.11954358  0.97745481  1
  O2-  O194  1  0.88329409  0.43361263  0.46407623  1
  O2-  O195  1  0.89840202  0.45193417  0.98736153  1
  O2-  O196  1  0.89465352  0.77399458  0.45056596  1
  O2-  O197  1  0.88859588  0.77952498  0.97223295  1
  O2-  O198  1  0.10997216  0.22773653  0.03086311  1
  O2-  O199  1  0.10274917  0.24516975  0.55757594  1
  O2-  O200  1  0.11885726  0.55980518  0.01534676  1
  O2-  O201  1  0.09644351  0.53183849  0.52945000  1
  O2-  O202  1  0.11505121  0.88994748  0.02752067  1
  O2-  O203  1  0.10823754  0.89953718  0.55081918  1
  O2-  O204  1  0.45135311  0.23593401  0.02933095  1
  O2-  O205  1  0.43337780  0.24041921  0.53823801  1
  O2-  O206  1  0.43972818  0.54647004  0.03003751  1
  O2-  O207  1  0.44828388  0.54909224  0.51941398  1
  O2-  O208  1  0.44905663  0.89686114  0.00993390  1
  O2-  O209  1  0.47641537  0.88025328  0.55460448  1
  O2-  O210  1  0.77501422  0.22745497  0.03996781  1
  O2-  O211  1  0.80654036  0.23116623  0.54816711  1
  O2-  O212  1  0.79503560  0.55726763  0.08650409  1
  O2-  O213  1  0.77257159  0.52516701  0.53258237  1
  O2-  O214  1  0.79049647  0.90030130  0.03775018  1
  O2-  O215  1  0.79557805  0.89726722  0.51813902  1
