# generated using pymatgen
data_H2O
_symmetry_space_group_name_H-M   'P 1'
_cell_length_a   13.50855398
_cell_length_b   13.50873021
_cell_length_c   14.70467348
_cell_angle_alpha   89.92423777
_cell_angle_beta   90.09773009
_cell_angle_gamma   119.99156345
_symmetry_Int_Tables_number   1
_chemical_formula_structural   H2O
_chemical_formula_sum   'H144 O72'
_cell_volume   2324.05085038
_cell_formula_units_Z   72
loop_
 _symmetry_equiv_pos_site_id
 _symmetry_equiv_pos_as_xyz
  1  'x, y, z'
loop_
 _atom_type_symbol
 _atom_type_oxidation_number
  H+  1.0
  O2-  -2.0
loop_
 _atom_site_type_symbol
 _atom_site_label
 _atom_site_symmetry_multiplicity
 _atom_site_fract_x
 _atom_site_fract_y
 _atom_site_fract_z
 _atom_site_occupancy
  H+  H0  1  0.85121654  0.48877355  0.25964585  1
  H+  H1  1  0.28381134  0.47174425  0.80805372  1
  H+  H2  1  0.14360958  0.86256614  0.24070418  1
  H+  H3  1  0.64997021  0.83678862  0.49875245  1
  H+  H4  1  1.03147221  0.51725096  0.24621672  1
  H+  H5  1  0.82160207  0.51487448  0.50247159  1
  H+  H6  1  0.34136375  0.84671829  0.71675659  1
  H+  H7  1  0.18118358  0.46153865  0.86590462  1
  H+  H8  1  0.19183540  0.37419305  0.49514037  1
  H+  H9  1  0.98038101  0.81813874  0.98771022  1
  H+  H10  1  0.19598702  0.16154633  0.76138860  1
  H+  H11  1  0.72079333  0.51916310  1.01328594  1
  H+  H12  1  0.04300043  0.86224043  0.74344460  1
  H+  H13  1  0.70496562  0.15470466  0.24143502  1
  H+  H14  1  0.85406013  0.86282291  0.00181456  1
  H+  H15  1  0.21498771  0.44565940  0.40170853  1
  H+  H16  1  0.41736364  0.57346496  -0.01086500  1
  H+  H17  1  0.15236045  0.84823160  0.00566337  1
  H+  H18  1  0.19929782  0.15380057  0.99433063  1
  H+  H19  1  0.03623119  0.52998146  0.01337819  1
  H+  H20  1  0.50434983  0.70665433  0.72721748  1
  H+  H21  1  0.70506845  0.81616569  0.72327972  1
  H+  H22  1  0.30498487  0.16131071  0.48133370  1
  H+  H23  1  0.45713103  0.59753625  0.22911764  1
  H+  H24  1  0.41418463  0.77720526  1.03819036  1
  H+  H25  1  0.03700567  0.18170633  0.74705748  1
  H+  H26  1  0.84988953  0.82223664  0.26162051  1
  H+  H27  1  0.15357833  0.52939513  0.73984197  1
  H+  H28  1  0.52511281  0.15224709  0.27001113  1
  H+  H29  1  0.64371077  0.91529497  0.79616137  1
  H+  H30  1  0.52264213  0.47402427  1.03869036  1
  H+  H31  1  0.85093750  0.47533869  0.75172808  1
  H+  H32  1  0.85892149  0.02708498  0.76545957  1
  H+  H33  1  0.49303980  0.98009628  0.50082624  1
  H+  H34  1  0.82461475  0.85330359  0.50965810  1
  H+  H35  1  0.49274979  0.53631036  0.46084634  1
  H+  H36  1  0.56057023  0.43722280  0.39975208  1
  H+  H37  1  0.78936667  0.88860236  0.64416580  1
  H+  H38  1  0.78833695  0.20882064  0.15646140  1
  H+  H39  1  0.75187932  0.88854156  -0.00638511  1
  H+  H40  1  0.54206490  0.16629449  1.00328870  1
  H+  H41  1  0.36571111  0.16417216  0.01805478  1
  H+  H42  1  0.63073274  0.13862545  0.49077543  1
  H+  H43  1  0.53768726  0.33034281  0.74926392  1
  H+  H44  1  0.67323218  0.19227721  0.00138508  1
  H+  H45  1  0.97482994  0.15672821  0.49757857  1
  H+  H46  1  0.50305752  0.85712041  0.50611014  1
  H+  H47  1  0.52959431  0.71918828  0.47693312  1
  H+  H48  1  0.88606099  1.04350276  0.26686879  1
  H+  H49  1  0.85805070  0.70144789  0.99171499  1
  H+  H50  1  0.14899601  0.50834098  0.50648630  1
  H+  H51  1  0.81373951  0.17288378  0.50557531  1
  H+  H52  1  0.33804283  0.43658741  -0.00577532  1
  H+  H53  1  0.48812566  0.30027794  0.50804462  1
  H+  H54  1  0.85988438  0.81162984  0.75792013  1
  H+  H55  1  0.03121795  0.51687540  0.73654230  1
  H+  H56  1  0.15587224  0.19250194  0.51195971  1
  H+  H57  1  0.05966135  0.16252677  0.25713174  1
  H+  H58  1  1.08037701  0.21577970  1.01527223  1
  H+  H59  1  0.34236621  0.33792211  0.83802447  1
  H+  H60  1  0.71625354  0.51096023  0.73286202  1
  H+  H61  1  0.14553220  0.30569536  0.75239371  1
  H+  H62  1  0.89811412  0.07273647  0.99887772  1
  H+  H63  1  0.19230542  0.70623754  0.97464515  1
  H+  H64  1  0.72613208  0.90227980  0.21648023  1
  H+  H65  1  0.44046432  0.68082866  0.33926192  1
  H+  H66  1  0.15218316  0.96639744  0.00745280  1
  H+  H67  1  0.63766628  0.48350416  0.25901916  1
  H+  H68  1  0.51810475  0.03066218  0.26665084  1
  H+  H69  1  0.63753619  0.48322245  0.48918147  1
  H+  H70  1  0.85582561  0.34530557  1.02010301  1
  H+  H71  1  0.85481313  0.14314958  0.75869704  1
  H+  H72  1  0.85741716  0.22822153  1.01444850  1
  H+  H73  1  0.14196061  1.03661502  0.24441230  1
  H+  H74  1  0.19389603  0.04244928  0.76015476  1
  H+  H75  1  0.83353251  0.63298790  0.73933358  1
  H+  H76  1  0.81558611  0.64061441  0.24504778  1
  H+  H77  1  0.27283462  0.45758208  0.26685723  1
  H+  H78  1  0.84967550  0.70019581  0.49010237  1
  H+  H79  1  0.55835036  0.76049711  1.00706202  1
  H+  H80  1  0.96380363  0.47339019  0.48979961  1
  H+  H81  1  0.53110565  1.11724749  0.77675924  1
  H+  H82  1  0.47795387  0.28604757  0.02672046  1
  H+  H83  1  0.46487867  0.65576081  0.75582700  1
  H+  H84  1  0.37753295  0.17413119  0.73790083  1
  H+  H85  1  0.90334692  0.11570878  0.40521745  1
  H+  H86  1  0.02767489  0.86571367  0.51755934  1
  H+  H87  1  0.70833896  0.16936738  0.74824001  1
  H+  H88  1  0.96729834  0.82261456  0.25989953  1
  H+  H89  1  0.17487342  0.70597986  0.74879193  1
  H+  H90  1  0.18062303  0.82916481  0.74901992  1
  H+  H91  1  0.49431307  0.29266478  0.25136859  1
  H+  H92  1  0.17990177  0.68229984  0.47565269  1
  H+  H93  1  0.23171752  0.10946436  0.90346387  1
  H+  H94  1  0.21423581  0.49072596  1.02045531  1
  H+  H95  1  0.14373724  -0.01434134  0.51380604  1
  H+  H96  1  0.29851647  0.79909338  0.47481980  1
  H+  H97  1  0.48259210  0.17861290  0.50409159  1
  H+  H98  1  0.37281114  0.53339545  0.46664440  1
  H+  H99  1  0.14655402  0.63711831  0.24305082  1
  H+  H100  1  0.28875179  0.83108647  0.25175420  1
  H+  H101  1  0.46476468  0.42719394  0.80648995  1
  H+  H102  1  0.56345687  0.77169743  0.32567459  1
  H+  H103  1  0.82314175  0.28752722  0.73169550  1
  H+  H104  1  0.87399872  0.15161264  0.26238993  1
  H+  H105  1  0.17065613  0.48622808  0.27145550  1
  H+  H106  1  0.45736316  0.83817252  0.24412020  1
  H+  H107  1  0.83160471  0.97725090  0.51229742  1
  H+  H108  1  0.39534506  0.49948145  0.63356760  1
  H+  H109  1  0.88636689  0.44278341  0.34499463  1
  H+  H110  1  0.55305741  0.10088697  0.39886914  1
  H+  H111  1  0.44825462  0.20620412  0.16832072  1
  H+  H112  1  0.11533140  0.91007995  0.65087294  1
  H+  H113  1  0.45820608  0.51915242  0.63521988  1
  H+  H114  1  0.78949239  0.55836465  0.59186179  1
  H+  H115  1  0.89834664  0.77388009  0.84868563  1
  H+  H116  1  0.51050803  0.46570349  0.25768997  1
  H+  H117  1  0.84292080  0.35650101  0.49036780  1
  H+  H118  1  0.81225574  0.91396194  0.13985352  1
  H+  H119  1  0.47312330  0.88007926  0.73037126  1
  H+  H120  1  0.49758811  0.43506208  0.93852507  1
  H+  H121  1  0.52787952  0.77480031  0.90729244  1
  H+  H122  1  0.60774515  0.39792954  0.83657803  1
  H+  H123  1  0.22527864  0.79005940  0.88858403  1
  H+  H124  1  0.59074835  0.12733611  0.87607597  1
  H+  H125  1  0.21177021  0.78213099  0.34053093  1
  H+  H126  1  0.43678448  0.88762048  0.15233097  1
  H+  H127  1  0.40388557  0.51097418  0.14685656  1
  H+  H128  1  0.77071658  0.20501484  0.59547156  1
  H+  H129  1  0.92479163  0.14084073  0.90780826  1
  H+  H130  1  0.15206416  0.22465490  0.10294699  1
  H+  H131  1  0.36031528  0.84786739  0.00721142  1
  H+  H132  1  0.94349114  0.52382172  0.92897168  1
  H+  H133  1  0.10762384  0.55265832  0.59167325  1
  H+  H134  1  0.11795753  0.22970588  0.60330879  1
  H+  H135  1  0.57435723  0.97340237  0.82676124  1
  H+  H136  1  0.88868111  0.78238421  0.40302119  1
  H+  H137  1  0.87551818  0.41809992  0.83798396  1
  H+  H138  1  0.43821276  0.88928292  0.59786902  1
  H+  H139  1  0.10158028  0.89098589  0.14785602  1
  H+  H140  1  0.21723845  0.12858318  0.39712089  1
  H+  H141  1  0.45135899  0.20653191  0.64639474  1
  H+  H142  1  0.78287795  0.56528384  0.15446214  1
  H+  H143  1  0.84862359  0.53333645  0.02075131  1
  O2-  O144  1  0.13107830  0.17695877  0.22430205  1
  O2-  O145  1  0.11849000  0.22847041  0.72694595  1
  O2-  O146  1  0.11433462  0.55534067  0.22901466  1
  O2-  O147  1  0.11063257  0.56482592  0.71379951  1
  O2-  O148  1  0.09927109  0.89877020  0.21523324  1
  O2-  O149  1  0.12265857  0.90783422  0.72040699  1
  O2-  O150  1  0.45651201  0.21022112  0.23529486  1
  O2-  O151  1  0.45682983  0.20397693  0.71444671  1
  O2-  O152  1  0.42342004  0.51624588  0.21219127  1
  O2-  O153  1  0.39941144  0.41886099  0.84431049  1
  O2-  O154  1  0.43552450  0.89302782  0.22041943  1
  O2-  O155  1  0.42055080  0.88950722  0.68886160  1
  O2-  O156  1  0.77258154  0.16002569  0.21076713  1
  O2-  O157  1  0.78356898  0.20524202  0.71457441  1
  O2-  O158  1  0.77360900  0.56049389  0.22196950  1
  O2-  O159  1  0.79764859  0.55386591  0.71313943  1
  O2-  O160  1  0.80119075  0.91038733  0.20743739  1
  O2-  O161  1  0.78271574  0.87918823  0.71366413  1
  O2-  O162  1  0.17419661  0.11346407  0.27516359  1
  O2-  O163  1  0.23880129  0.12355278  0.78342218  1
  O2-  O164  1  0.20119703  0.43732196  0.29842082  1
  O2-  O165  1  0.20307773  0.45075676  0.80362264  1
  O2-  O166  1  0.20802148  0.79222478  0.27278097  1
  O2-  O167  1  0.22054198  0.78688903  0.77013466  1
  O2-  O168  1  0.56354422  0.10821673  0.29389123  1
  O2-  O169  1  0.58840482  0.10448782  0.80772308  1
  O2-  O170  1  0.55842036  0.43607858  0.28431393  1
  O2-  O171  1  0.58225737  0.41057202  0.77777103  1
  O2-  O172  1  0.49224718  0.72958198  0.29094770  1
  O2-  O173  1  0.56965474  0.89667276  0.82137030  1
  O2-  O174  1  0.92293212  0.12226572  0.29154625  1
  O2-  O175  1  0.89795859  0.10733476  0.78607813  1
  O2-  O176  1  0.89278467  0.44902025  0.27803297  1
  O2-  O177  1  0.88677703  0.42855080  0.77215636  1
  O2-  O178  1  0.88758036  0.78101113  0.28589295  1
  O2-  O179  1  0.89974438  0.77141528  0.78037119  1
  O2-  O180  1  0.22282508  0.12721369  0.46402906  1
  O2-  O181  1  0.22995467  0.10378919  0.97108635  1
  O2-  O182  1  0.22808534  0.45369665  0.47129419  1
  O2-  O183  1  0.15279265  0.48414163  0.98014979  1
  O2-  O184  1  0.22138765  0.76062959  0.44919868  1
  O2-  O185  1  0.22591824  0.78855956  0.95655257  1
  O2-  O186  1  0.54895969  0.09726511  0.46915363  1
  O2-  O187  1  0.59504228  0.14397576  0.97549097  1
  O2-  O188  1  0.55651243  0.44089647  0.46782497  1
  O2-  O189  1  0.54411658  0.43722460  0.99161469  1
  O2-  O190  1  0.57094127  0.80561684  0.47366526  1
  O2-  O191  1  0.52336687  0.71741298  0.95178184  1
  O2-  O192  1  0.89472754  0.11197688  0.47338758  1
  O2-  O193  1  0.93477599  0.15143418  0.97461553  1
  O2-  O194  1  0.88200867  0.43732908  0.46976157  1
  O2-  O195  1  0.92368423  0.48844057  0.98882433  1
  O2-  O196  1  0.88570498  0.78221992  0.47106820  1
  O2-  O197  1  0.89857186  0.78085992  0.96466443  1
  O2-  O198  1  0.15932107  0.24088624  0.03701923  1
  O2-  O199  1  0.11370658  0.23058911  0.53592583  1
  O2-  O200  1  0.13076241  0.57185316  0.01905848  1
  O2-  O201  1  0.10321421  0.54576054  0.52443922  1
  O2-  O202  1  0.10906983  0.88516127  0.02938357  1
  O2-  O203  1  0.10412513  0.91132435  0.54583143  1
  O2-  O204  1  0.44443103  0.20513616  0.04479836  1
  O2-  O205  1  0.44406465  0.21883903  0.52968151  1
  O2-  O206  1  0.36968608  0.50745895  0.02936510  1
  O2-  O207  1  0.45603366  0.58355628  0.45211891  1
  O2-  O208  1  0.42898046  0.85560320  0.03960702  1
  O2-  O209  1  0.45330979  0.89389817  0.52434472  1
  O2-  O210  1  0.81307825  0.26278122  0.03794328  1
  O2-  O211  1  0.76767769  0.20754324  0.52778015  1
  O2-  O212  1  0.79774012  0.56983197  0.03715337  1
  O2-  O213  1  0.78352299  0.55827989  0.52454729  1
  O2-  O214  1  0.82477890  0.91521314  0.02436110  1
  O2-  O215  1  0.78843929  0.89664178  0.53675852  1
