# generated using pymatgen
data_H2O
_symmetry_space_group_name_H-M   'P 1'
_cell_length_a   13.52163280
_cell_length_b   13.50794939
_cell_length_c   14.69783820
_cell_angle_alpha   90.04632522
_cell_angle_beta   89.98672268
_cell_angle_gamma   120.02081477
_symmetry_Int_Tables_number   1
_chemical_formula_structural   H2O
_chemical_formula_sum   'H144 O72'
_cell_volume   2324.40273254
_cell_formula_units_Z   72
loop_
 _symmetry_equiv_pos_site_id
 _symmetry_equiv_pos_as_xyz
  1  'x, y, z'
loop_
 _atom_type_symbol
 _atom_type_oxidation_number
  H+  1.0
  O2-  -2.0
loop_
 _atom_site_type_symbol
 _atom_site_label
 _atom_site_symmetry_multiplicity
 _atom_site_fract_x
 _atom_site_fract_y
 _atom_site_fract_z
 _atom_site_occupancy
  H+  H0  1  0.81145786  0.63107901  0.73171854  1
  H+  H1  1  0.17606489  0.38890957  0.74388174  1
  H+  H2  1  0.97439400  0.50790531  0.49524727  1
  H+  H3  1  0.48004646  0.52025558  0.24800054  1
  H+  H4  1  0.80926670  0.62832863  0.23546888  1
  H+  H5  1  0.37521560  0.08034225  0.05681884  1
  H+  H6  1  0.81749401  0.62446000  1.00470376  1
  H+  H7  1  0.84876774  0.14842814  0.49572152  1
  H+  H8  1  -0.02795085  0.15620749  0.49075106  1
  H+  H9  1  0.15853205  -0.01203188  0.97570368  1
  H+  H10  1  0.86098897  0.81778127  0.75169341  1
  H+  H11  1  0.48486387  0.18716881  0.24640907  1
  H+  H12  1  0.34026413  0.83000617  0.76043493  1
  H+  H13  1  0.51209406  0.37708728  0.74455652  1
  H+  H14  1  0.17981934  1.00528620  0.51254947  1
  H+  H15  1  0.15226568  0.37050716  0.95619742  1
  H+  H16  1  0.97336725  0.80516274  0.96955323  1
  H+  H17  1  0.02896178  0.83690406  0.51590837  1
  H+  H18  1  0.15987563  -0.04624720  0.74912476  1
  H+  H19  1  0.12018829  0.21428040  0.76492949  1
  H+  H20  1  0.54025365  1.04053813  -0.02028897  1
  H+  H21  1  0.72022898  0.84706245  0.75565872  1
  H+  H22  1  0.14652512  0.80276565  0.30063408  1
  H+  H23  1  0.82081166  0.97346897  0.74534236  1
  H+  H24  1  0.49712108  0.48914305  0.73085886  1
  H+  H25  1  0.83346083  0.35300269  0.27575266  1
  H+  H26  1  0.51272343  0.69547757  0.49377556  1
  H+  H27  1  0.48983700  0.81195379  0.76398784  1
  H+  H28  1  0.15173113  0.51254662  0.22784183  1
  H+  H29  1  0.13622059  0.18594338  0.20675094  1
  H+  H30  1  0.02328508  0.86602608  0.24999513  1
  H+  H31  1  0.50705305  0.36225421  0.49594088  1
  H+  H32  1  0.70476585  0.17375802  0.50784111  1
  H+  H33  1  0.52269849  0.03894537  0.48211885  1
  H+  H34  1  0.12991412  0.51904946  0.74000351  1
  H+  H35  1  0.69441605  0.84966824  0.24975509  1
  H+  H36  1  0.44997939  0.52073360  1.01332829  1
  H+  H37  1  0.16689102  0.79606317  0.77051096  1
  H+  H38  1  0.51491600  0.69624442  0.26372096  1
  H+  H39  1  0.49904778  0.18886462  0.74279797  1
  H+  H40  1  0.14817453  0.83316381  0.52614379  1
  H+  H41  1  0.15553864  0.52278180  -0.00745399  1
  H+  H42  1  0.81422355  0.30709575  0.73919760  1
  H+  H43  1  0.52721598  0.82565562  -0.02356025  1
  H+  H44  1  0.37492365  0.85804953  0.51178130  1
  H+  H45  1  0.19802169  0.82768271  0.98155890  1
  H+  H46  1  0.85000667  0.49927719  0.49107436  1
  H+  H47  1  0.88176664  0.45106290  0.87328422  1
  H+  H48  1  0.84426158  0.48322846  0.75131977  1
  H+  H49  1  0.37017678  0.19407570  0.24886078  1
  H+  H50  1  0.72018200  0.20228883  0.99195984  1
  H+  H51  1  0.49175943  0.85784705  0.49585590  1
  H+  H52  1  0.29373581  0.48784237  0.25872598  1
  H+  H53  1  0.37977141  0.85865733  -0.00067589  1
  H+  H54  1  0.56720770  0.45601086  -0.03022074  1
  H+  H55  1  -0.15226377  0.36408802  -0.02884256  1
  H+  H56  1  0.20275315  0.12340945  0.74539210  1
  H+  H57  1  0.62267797  0.48215378  0.49330324  1
  H+  H58  1  0.57755956  0.79364913  0.70866906  1
  H+  H59  1  0.17874776  0.39014870  0.48390576  1
  H+  H60  1  0.81696652  0.19693446  0.25790398  1
  H+  H61  1  0.94161521  0.15054236  0.75662480  1
  H+  H62  1  0.47772344  0.64679069  0.02539876  1
  H+  H63  1  0.12600409  0.61666248  0.23407320  1
  H+  H64  1  0.85076590  0.82296244  0.48965632  1
  H+  H65  1  0.30818605  0.49535191  0.73807573  1
  H+  H66  1  0.95126049  0.13862231  0.24973555  1
  H+  H67  1  0.80574272  0.18396719  0.74551979  1
  H+  H68  1  0.20612396  0.29486516  0.03928067  1
  H+  H69  1  0.83810072  0.48595876  -0.02402169  1
  H+  H70  1  0.17421399  0.65791442  0.00734269  1
  H+  H71  1  0.17148225  0.05304580  0.29403234  1
  H+  H72  1  0.51446911  0.45769101  0.87585831  1
  H+  H73  1  0.82501740  -0.02775582  0.50790503  1
  H+  H74  1  0.80396001  0.63188099  0.50918697  1
  H+  H75  1  0.45895641  0.95193237  0.75352622  1
  H+  H76  1  0.46739041  0.51728651  0.50721621  1
  H+  H77  1  0.97288539  0.80649753  0.75700390  1
  H+  H78  1  -0.02418512  0.49492673  0.75197274  1
  H+  H79  1  0.17556597  0.69281841  0.52746850  1
  H+  H80  1  0.83532332  0.48111825  0.27078934  1
  H+  H81  1  0.44033075  0.56334077  0.15942180  1
  H+  H82  1  0.70587590  0.87158179  0.00820234  1
  H+  H83  1  0.25594397  0.79135153  0.30076425  1
  H+  H84  1  0.51685704  0.36993612  0.26263689  1
  H+  H85  1  0.84205082  0.21003384  0.99205940  1
  H+  H86  1  0.17656321  0.17190177  0.52983014  1
  H+  H87  1  0.51638417  0.85766518  0.23596593  1
  H+  H88  1  -0.01959609  0.15978363  -0.01924729  1
  H+  H89  1  0.46187238  0.61748937  0.72418303  1
  H+  H90  1  0.55594296  0.77701945  0.35348345  1
  H+  H91  1  0.52738527  0.16033251  0.49211782  1
  H+  H92  1  0.37804384  0.17966415  0.74537132  1
  H+  H93  1  0.69062470  0.51145809  0.24610396  1
  H+  H94  1  0.63612080  0.81217951  0.49184928  1
  H+  H95  1  0.81017400  0.97454614  0.25133830  1
  H+  H96  1  0.14303384  0.52959042  0.52836111  1
  H+  H97  1  0.52786401  1.04444564  0.26126388  1
  H+  H98  1  0.29060537  0.14443032  0.97214068  1
  H+  H99  1  0.16980499  0.17879517  0.98046540  1
  H+  H100  1  0.40318649  0.85819897  0.21464200  1
  H+  H101  1  0.63170024  0.14854606  0.75138228  1
  H+  H102  1  0.84355558  0.83358065  0.22658849  1
  H+  H103  1  0.69776701  0.19705289  0.25823927  1
  H+  H104  1  0.37165660  0.17285220  0.52594051  1
  H+  H105  1  0.22513155  0.76963424  0.89753229  1
  H+  H106  1  0.88950492  0.78240829  0.15199118  1
  H+  H107  1  0.15431230  0.66990277  0.76529801  1
  H+  H108  1  0.47062885  0.89987853  0.08248854  1
  H+  H109  1  0.19392782  0.17523994  0.33082334  1
  H+  H110  1  0.55521584  0.11971780  0.35394834  1
  H+  H111  1  0.53286178  0.15292806  0.98748560  1
  H+  H112  1  0.43607175  0.19812829  0.10540599  1
  H+  H113  1  0.23455536  0.09425030  0.42838886  1
  H+  H114  1  0.07393034  0.17192501  0.11592633  1
  H+  H115  1  0.11091723  0.87604177  0.65902879  1
  H+  H116  1  0.10490830  0.90288973  0.06133896  1
  H+  H117  1  0.78646366  0.89289070  0.59681584  1
  H+  H118  1  0.87719853  0.10911900  0.85213722  1
  H+  H119  1  0.56147814  0.11460822  0.84365281  1
  H+  H120  1  0.22644353  0.10168461  0.85337632  1
  H+  H121  1  0.20768182  0.46209155  0.87493842  1
  H+  H122  1  0.56442433  0.77265943  0.89664760  1
  H+  H123  1  0.45767178  0.22627909  0.60902976  1
  H+  H124  1  0.87877064  0.75561272  0.89522326  1
  H+  H125  1  0.30153289  0.50436186  0.49135850  1
  H+  H126  1  0.77899793  0.21163718  0.59925739  1
  H+  H127  1  0.89281764  0.11807669  0.34975010  1
  H+  H128  1  0.55125888  0.44417659  0.35450258  1
  H+  H129  1  0.09370143  0.55879633  0.62436163  1
  H+  H130  1  0.77652548  0.54124540  0.09135783  1
  H+  H131  1  0.68649411  0.51841047  0.72945794  1
  H+  H132  1  0.21314413  0.46015554  0.34367863  1
  H+  H133  1  0.10464119  0.22203551  0.65749629  1
  H+  H134  1  0.23868837  0.29805126  0.56250829  1
  H+  H135  1  0.88566417  0.77597923  0.40296738  1
  H+  H136  1  0.76534764  0.55180536  0.59752058  1
  H+  H137  1  0.20461960  0.76166095  0.43516316  1
  H+  H138  1  0.14618554  0.92102179  0.20641402  1
  H+  H139  1  0.42717498  0.55244927  0.60401144  1
  H+  H140  1  0.77333430  0.91456450  0.10210437  1
  H+  H141  1  0.12789932  0.56693275  0.10113059  1
  H+  H142  1  0.88667305  0.45475210  0.36980079  1
  H+  H143  1  0.85525004  0.04749037  0.99412659  1
  O2-  O144  1  0.06003949  0.14534464  0.18041032  1
  O2-  O145  1  0.07889313  0.23154263  0.71924179  1
  O2-  O146  1  0.11336174  0.55152508  0.19623285  1
  O2-  O147  1  0.08557029  0.55569847  0.72125380  1
  O2-  O148  1  0.10818337  0.90808078  0.26521349  1
  O2-  O149  1  0.10981273  0.87336750  0.72698167  1
  O2-  O150  1  0.44623289  0.22841174  0.22023035  1
  O2-  O151  1  0.45674289  0.22839877  0.72084457  1
  O2-  O152  1  0.44103360  0.56275687  0.22900152  1
  O2-  O153  1  0.42227459  0.54038918  0.69763817  1
  O2-  O154  1  0.48509669  0.90430401  0.20525671  1
  O2-  O155  1  0.42176980  0.86930005  0.74016171  1
  O2-  O156  1  0.78035567  0.24292162  0.24217744  1
  O2-  O157  1  0.77046746  0.22579206  0.71709966  1
  O2-  O158  1  0.77141682  0.54571412  0.22249114  1
  O2-  O159  1  0.76794480  0.55061908  0.70855819  1
  O2-  O160  1  0.77457960  0.89492426  0.22562083  1
  O2-  O161  1  0.79021042  0.89324031  0.72054438  1
  O2-  O162  1  0.23078303  0.13258940  0.31105532  1
  O2-  O163  1  0.23941226  0.09076304  0.78139146  1
  O2-  O164  1  0.21183689  0.44974761  0.27683087  1
  O2-  O165  1  0.22673398  0.46564414  0.76801019  1
  O2-  O166  1  0.17467084  0.74904256  0.31423297  1
  O2-  O167  1  0.20259340  0.75200837  0.79417297  1
  O2-  O168  1  0.55408206  0.12249294  0.28442222  1
  O2-  O169  1  0.55183293  0.10860915  0.77610836  1
  O2-  O170  1  0.55666678  0.44985358  0.28613479  1
  O2-  O171  1  0.54745483  0.45964311  0.75953764  1
  O2-  O172  1  0.55877379  0.77890009  0.28490164  1
  O2-  O173  1  0.54286505  0.77649016  0.76890005  1
  O2-  O174  1  0.87813110  0.11304769  0.28283005  1
  O2-  O175  1  0.86474541  0.10241816  0.78398988  1
  O2-  O176  1  0.87566740  0.44193501  0.29713648  1
  O2-  O177  1  0.88601983  0.44635746  0.77703924  1
  O2-  O178  1  0.88964843  0.79155622  0.21812483  1
  O2-  O179  1  0.88952271  0.76714527  0.77345715  1
  O2-  O180  1  0.22621062  0.08981578  0.49528548  1
  O2-  O181  1  0.21295440  0.10919381  0.94674310  1
  O2-  O182  1  0.21948492  0.47099812  0.46760604  1
  O2-  O183  1  0.18722881  0.45216012  0.94215730  1
  O2-  O184  1  0.21884212  0.77490272  0.50105629  1
  O2-  O185  1  0.23795726  0.78445753  0.96669269  1
  O2-  O186  1  0.56557182  0.12210375  0.46195392  1
  O2-  O187  1  0.57878819  0.12211363  0.95933690  1
  O2-  O188  1  0.54219002  0.44106071  0.46990050  1
  O2-  O189  1  0.49674220  0.44529160  0.94242880  1
  O2-  O190  1  0.55717900  0.77521529  0.46753133  1
  O2-  O191  1  0.56747551  0.78231410  0.96321963  1
  O2-  O192  1  0.89403838  0.11103482  0.46819975  1
  O2-  O193  1  0.89991775  0.12551063  0.96275367  1
  O2-  O194  1  0.89865443  0.47121466  0.46323765  1
  O2-  O195  1  0.88099040  0.44918033  0.94636685  1
  O2-  O196  1  0.88945494  0.77901659  0.46912851  1
  O2-  O197  1  0.88985841  0.75666257  0.96219141  1
  O2-  O198  1  0.13908349  0.23208072  0.01027464  1
  O2-  O199  1  0.16155715  0.23457617  0.55156589  1
  O2-  O200  1  0.13070384  0.57497407  0.02866920  1
  O2-  O201  1  0.10054632  0.56659857  0.55145262  1
  O2-  O202  1  0.12321255  0.90205481  -0.00232436  1
  O2-  O203  1  0.10682679  0.87702661  0.54280378  1
  O2-  O204  1  0.42155094  0.16171436  0.04362170  1
  O2-  O205  1  0.45360894  0.22443264  0.54018722  1
  O2-  O206  1  0.43162546  0.56978501  0.05217231  1
  O2-  O207  1  0.42939864  0.55946222  0.52915064  1
  O2-  O208  1  0.46315014  0.90071540  0.01540427  1
  O2-  O209  1  0.45879022  0.90733181  0.50902255  1
  O2-  O210  1  0.80194687  0.25249801  0.00869903  1
  O2-  O211  1  0.78243210  0.20021414  0.53266796  1
  O2-  O212  1  0.77447743  0.54192712  0.02422785  1
  O2-  O213  1  0.76261811  0.55087298  0.52852477  1
  O2-  O214  1  0.78176368  0.92433214  0.03548711  1
  O2-  O215  1  0.78571122  0.89066529  0.52919103  1
