# generated using pymatgen
data_H2O
_symmetry_space_group_name_H-M   'P 1'
_cell_length_a   13.49139681
_cell_length_b   13.49018292
_cell_length_c   14.66964518
_cell_angle_alpha   89.98195136
_cell_angle_beta   90.05578029
_cell_angle_gamma   120.07397410
_symmetry_Int_Tables_number   1
_chemical_formula_structural   H2O
_chemical_formula_sum   'H144 O72'
_cell_volume   2310.47125627
_cell_formula_units_Z   72
loop_
 _symmetry_equiv_pos_site_id
 _symmetry_equiv_pos_as_xyz
  1  'x, y, z'
loop_
 _atom_type_symbol
 _atom_type_oxidation_number
  H+  1.0
  O2-  -2.0
loop_
 _atom_site_type_symbol
 _atom_site_label
 _atom_site_symmetry_multiplicity
 _atom_site_fract_x
 _atom_site_fract_y
 _atom_site_fract_z
 _atom_site_occupancy
  H+  H0  1  0.53048337  0.49919221  0.51362463  1
  H+  H1  1  0.90907797  0.76402789  0.48726801  1
  H+  H2  1  0.88047803  0.08021579  0.84832399  1
  H+  H3  1  0.82458902  0.84973948  0.24535824  1
  H+  H4  1  0.81586033  0.52784998  0.22709350  1
  H+  H5  1  0.67504081  0.21818810  0.97472863  1
  H+  H6  1  0.49807737  0.20227122  0.23556972  1
  H+  H7  1  0.58804791  0.81046173  0.75514244  1
  H+  H8  1  0.13664143  0.51099384  0.74260645  1
  H+  H9  1  0.87537415  0.85906912  0.94927517  1
  H+  H10  1  0.49552146  0.19188257  0.01046160  1
  H+  H11  1  0.80705648  0.65854039  0.99684893  1
  H+  H12  1  0.53410229  0.05210665  0.24424430  1
  H+  H13  1  0.52969996  0.36768820  0.98799227  1
  H+  H14  1  0.72824579  0.19785090  0.49180254  1
  H+  H15  1  0.80672115  0.30675019  0.07684844  1
  H+  H16  1  0.29753609  0.82359730  0.25683093  1
  H+  H17  1  0.15712085  0.31968839  0.25493354  1
  H+  H18  1  0.03502601  0.18833702  0.74250877  1
  H+  H19  1  0.03040556  0.18108168  0.48543792  1
  H+  H20  1  0.20270149  0.04201656  0.98616286  1
  H+  H21  1  0.94951513  0.43568627  -0.01077019  1
  H+  H22  1  0.20580399  0.76478493  0.85638789  1
  H+  H23  1  0.80447985  0.40611807  0.47632713  1
  H+  H24  1  0.49708208  1.01971451  0.75461537  1
  H+  H25  1  0.45345640  0.24126945  0.15093668  1
  H+  H26  1  0.16120976  0.34955427  0.99258555  1
  H+  H27  1  0.31468786  0.16947225  0.25569600  1
  H+  H28  1  0.11624922  0.89664472  0.08984102  1
  H+  H29  1  0.50816709  0.37508778  0.76565013  1
  H+  H30  1  0.80764767  0.84698174  0.49451672  1
  H+  H31  1  0.86834868  1.02850196  0.48613830  1
  H+  H32  1  0.33320797  0.47681595  0.52832239  1
  H+  H33  1  0.27957590  0.79190259  0.49053146  1
  H+  H34  1  0.72531548  0.55896420  0.57702843  1
  H+  H35  1  0.15409372  0.85625257  0.23557029  1
  H+  H36  1  0.86789660  0.14787368  0.48601402  1
  H+  H37  1  0.51882129  0.50378953  0.27395206  1
  H+  H38  1  0.37656559  0.19079792  0.00359232  1
  H+  H39  1  0.14826300  0.63615265  0.23100349  1
  H+  H40  1  0.16418257  0.68767079  0.76451167  1
  H+  H41  1  0.85598307  0.29838771  0.51723878  1
  H+  H42  1  0.49943324  0.49018700  0.77871590  1
  H+  H43  1  0.52382190  0.38883259  0.27374336  1
  H+  H44  1  0.12598968  0.60992488  0.00651447  1
  H+  H45  1  0.30942318  0.15901435  0.75188910  1
  H+  H46  1  0.68351426  0.16340276  0.73305017  1
  H+  H47  1  0.14746331  0.32585646  0.48693611  1
  H+  H48  1  0.34393363  0.52575480  0.02870285  1
  H+  H49  1  0.44054635  0.89590025  0.15114528  1
  H+  H50  1  0.52070223  0.84859145  0.49540247  1
  H+  H51  1  0.08052183  0.91033252  0.50146509  1
  H+  H52  1  1.01846478  0.51699730  0.51365341  1
  H+  H53  1  0.83902997  0.12249393  0.75614249  1
  H+  H54  1  0.03103207  0.18521113  0.25119340  1
  H+  H55  1  0.55770693  0.07012360  0.46535309  1
  H+  H56  1  0.83636834  0.20902191  0.21980057  1
  H+  H57  1  0.97237222  0.50016345  0.25308825  1
  H+  H58  1  0.10043630  0.54829543  0.14511903  1
  H+  H59  1  0.37710460  0.71050655  0.57482878  1
  H+  H60  1  0.82730142  0.34872441  0.74773104  1
  H+  H61  1  0.62653215  0.82409406  0.26533133  1
  H+  H62  1  0.82207767  0.51683663  0.71794935  1
  H+  H63  1  0.34536334  0.84133467  0.75103934  1
  H+  H64  1  0.15567933  0.19741071  0.74429562  1
  H+  H65  1  0.15342947  0.84465816  0.74415705  1
  H+  H66  1  0.12493735  0.82138180  0.50605216  1
  H+  H67  1  0.01535420  0.50649202  0.73546582  1
  H+  H68  1  0.35176114  0.21437459  0.48831316  1
  H+  H69  1  0.43124705  0.56820003  0.16848018  1
  H+  H70  1  0.04314306  0.86372529  -0.00276983  1
  H+  H71  1  0.40688199  -0.00854127  0.55097338  1
  H+  H72  1  0.70034112  0.53280847  0.23708032  1
  H+  H73  1  0.83120480  0.32388353  0.23370181  1
  H+  H74  1  0.49031954  0.85901174  1.00474901  1
  H+  H75  1  0.01818424  0.16073640  -0.01112372  1
  H+  H76  1  0.17448057  0.21527587  0.49037588  1
  H+  H77  1  0.56489510  0.67582809  0.49082159  1
  H+  H78  1  0.46193301  0.64419071  1.02583900  1
  H+  H79  1  0.18007176  0.81172208  0.99216876  1
  H+  H80  1  0.19216783  1.03923066  0.75754008  1
  H+  H81  1  0.16588527  0.48910861  0.48979562  1
  H+  H82  1  0.48509289  -0.02575936  1.01093714  1
  H+  H83  1  0.65002644  0.50222476  -0.01472206  1
  H+  H84  1  0.85495376  0.70582292  0.24595048  1
  H+  H85  1  0.87159909  0.81534361  0.73666761  1
  H+  H86  1  0.14368020  0.17802210  -0.00065875  1
  H+  H87  1  0.97583074  0.82603331  0.25110110  1
  H+  H88  1  0.52096493  0.22345110  0.49269603  1
  H+  H89  1  0.46852098  0.64608001  0.76239914  1
  H+  H90  1  0.55633950  0.11307577  0.83532482  1
  H+  H91  1  -0.00952753  0.81037086  0.74370828  1
  H+  H92  1  0.28864237  0.49371820  0.77456437  1
  H+  H93  1  0.47088257  0.64337196  0.26001467  1
  H+  H94  1  0.53079340  0.34726974  0.50807219  1
  H+  H95  1  0.15801892  -0.02302320  0.23613378  1
  H+  H96  1  0.85837814  0.03829222  0.25085046  1
  H+  H97  1  0.09989567  0.55238647  0.60228310  1
  H+  H98  1  0.39852818  0.97250001  0.50182824  1
  H+  H99  1  0.52526474  0.64986199  0.45087494  1
  H+  H100  1  0.23617697  0.10401619  0.51210878  1
  H+  H101  1  0.84983562  0.66592497  0.72791883  1
  H+  H102  1  0.48032989  0.86194002  0.24286643  1
  H+  H103  1  0.17518786  0.48485300  0.25345002  1
  H+  H104  1  0.46102999  0.83183512  0.75579732  1
  H+  H105  1  0.16393020  0.19374446  0.25435605  1
  H+  H106  1  0.74429113  0.84618212  0.74241427  1
  H+  H107  1  0.65260311  0.88523339  0.48425837  1
  H+  H108  1  0.21337440  0.45749196  0.39751713  1
  H+  H109  1  0.90452121  0.78618583  0.88163228  1
  H+  H110  1  0.13140209  0.49359913  0.01131941  1
  H+  H111  1  0.17245818  0.37155878  0.76579103  1
  H+  H112  1  0.86653011  0.76942682  0.38781491  1
  H+  H113  1  0.75990715  0.86825435  0.16356078  1
  H+  H114  1  0.85998660  0.52745627  0.51654491  1
  H+  H115  1  0.29864161  0.49053238  0.26338823  1
  H+  H116  1  0.77168884  0.20199422  0.65005596  1
  H+  H117  1  0.48602394  0.18840474  0.73260114  1
  H+  H118  1  0.84861905  0.97582296  0.73679489  1
  H+  H119  1  0.65609173  0.17153228  0.23601939  1
  H+  H120  1  0.40474245  0.82632962  0.62274257  1
  H+  H121  1  0.85024577  0.96957218  0.04038364  1
  H+  H122  1  0.55566586  0.44698185  0.88879749  1
  H+  H123  1  0.55870058  0.81986646  0.35404725  1
  H+  H124  1  0.77181936  0.57938463  0.08627806  1
  H+  H125  1  0.29568121  0.80751619  0.99106429  1
  H+  H126  1  0.24386268  0.13489022  0.34840688  1
  H+  H127  1  0.42798610  0.55025635  0.67932332  1
  H+  H128  1  0.59367996  0.14480100  0.37601535  1
  H+  H129  1  0.66156781  0.10232138  0.94666858  1
  H+  H130  1  0.86387821  0.42250692  0.83706215  1
  H+  H131  1  0.11176167  0.87908755  0.65135370  1
  H+  H132  1  0.21173667  0.77470286  0.34220982  1
  H+  H133  1  0.89329437  0.47541957  0.34099495  1
  H+  H134  1  0.20337066  0.43893576  0.90956222  1
  H+  H135  1  0.24142219  0.12301427  0.89829345  1
  H+  H136  1  0.35545322  0.39693403  0.59195449  1
  H+  H137  1  0.46229200  0.24295215  0.64492999  1
  H+  H138  1  0.79456481  0.89761518  0.59023438  1
  H+  H139  1  0.15940642  0.68575531  0.48406364  1
  H+  H140  1  0.89517474  0.11311203  0.34155941  1
  H+  H141  1  0.59311747  0.49297936  0.42413016  1
  H+  H142  1  0.54405384  0.78466326  0.89285618  1
  H+  H143  1  0.63973965  0.84229687  0.97207418  1
  O2-  O144  1  0.11800528  0.23305749  0.23772960  1
  O2-  O145  1  0.11584067  0.23801626  0.72356862  1
  O2-  O146  1  0.10663474  0.55323123  0.21400192  1
  O2-  O147  1  0.09614816  0.55038786  0.71464783  1
  O2-  O148  1  0.11520995  0.89809689  0.21177236  1
  O2-  O149  1  0.11442651  0.88660733  0.71909541  1
  O2-  O150  1  0.45226342  0.23924917  0.21892333  1
  O2-  O151  1  0.45056613  0.23438255  0.71181055  1
  O2-  O152  1  0.43290660  0.56259159  0.23782860  1
  O2-  O153  1  0.42991603  0.55826236  0.74614041  1
  O2-  O154  1  0.44128579  0.90336034  0.21905597  1
  O2-  O155  1  0.42439428  0.87726981  0.72565830  1
  O2-  O156  1  0.79622016  0.24954945  0.19972776  1
  O2-  O157  1  0.76708950  0.20480890  0.71715323  1
  O2-  O158  1  0.77707739  0.57060682  0.20703007  1
  O2-  O159  1  0.79299895  0.57077597  0.69793866  1
  O2-  O160  1  0.78126453  0.89058645  0.22684735  1
  O2-  O161  1  0.81649444  0.89108374  0.71000239  1
  O2-  O162  1  0.23421235  0.13110319  0.28136669  1
  O2-  O163  1  0.23129850  0.11926109  0.77965491  1
  O2-  O164  1  0.21406631  0.44503101  0.28210127  1
  O2-  O165  1  0.20474946  0.45212525  0.78983452  1
  O2-  O166  1  0.21459626  0.77886261  0.27418107  1
  O2-  O167  1  0.20400651  0.76811053  0.78781534  1
  O2-  O168  1  0.57777580  0.13395889  0.26441689  1
  O2-  O169  1  0.54281516  0.10433796  0.76851929  1
  O2-  O170  1  0.56531846  0.46925543  0.29554636  1
  O2-  O171  1  0.54421783  0.45132023  0.79539603  1
  O2-  O172  1  0.54766577  0.79241512  0.28852718  1
  O2-  O173  1  0.51777696  0.76832409  0.78987477  1
  O2-  O174  1  0.90084167  0.11919520  0.27362151  1
  O2-  O175  1  0.88529018  0.08756478  0.77477927  1
  O2-  O176  1  0.89043976  0.46264174  0.27481552  1
  O2-  O177  1  0.86347467  0.43021555  0.76982055  1
  O2-  O178  1  0.89425424  0.78545907  0.27244482  1
  O2-  O179  1  0.90337884  0.76476522  0.75913406  1
  O2-  O180  1  0.26606554  0.17151589  0.47300524  1
  O2-  O181  1  0.24543207  0.12386259  0.96639200  1
  O2-  O182  1  0.20701128  0.44896255  0.46583487  1
  O2-  O183  1  0.20136002  0.43417014  0.97756554  1
  O2-  O184  1  0.20367354  0.76678507  0.46204781  1
  O2-  O185  1  0.21451348  0.76517803  0.97067431  1
  O2-  O186  1  0.59931160  0.15013232  0.44520650  1
  O2-  O187  1  0.61585193  0.13987094  0.95156882  1
  O2-  O188  1  0.59222191  0.48556558  0.49166845  1
  O2-  O189  1  0.56516534  0.44752603  0.96221964  1
  O2-  O190  1  0.58761263  0.88681706  0.45395737  1
  O2-  O191  1  0.55683608  0.79567133  0.96298308  1
  O2-  O192  1  0.91060676  0.11092384  0.46068032  1
  O2-  O193  1  0.87872362  0.07714473  0.94560818  1
  O2-  O194  1  0.87692610  0.47837874  0.47601082  1
  O2-  O195  1  0.88021565  0.37288904  0.95735533  1
  O2-  O196  1  0.84333338  0.75709764  0.45322659  1
  O2-  O197  1  0.90325442  0.80349042  0.94703723  1
  O2-  O198  1  0.09497094  0.20995032  0.01761145  1
  O2-  O199  1  0.11641073  0.23967956  0.50423470  1
  O2-  O200  1  0.08556219  0.53127971  0.03225584  1
  O2-  O201  1  0.09955021  0.55236566  0.53296926  1
  O2-  O202  1  0.12232190  0.89731166  0.02209076  1
  O2-  O203  1  0.07307683  0.84548980  0.53622980  1
  O2-  O204  1  0.45794444  0.23457127  0.02914766  1
  O2-  O205  1  0.48188847  0.26193013  0.52014594  1
  O2-  O206  1  0.41872303  0.57205689  0.05980299  1
  O2-  O207  1  0.39320302  0.47345342  0.56537497  1
  O2-  O208  1  0.44524274  0.89423494  0.03124535  1
  O2-  O209  1  0.39085673  0.78688290  0.56062719  1
  O2-  O210  1  0.78476928  0.33687835  0.02304439  1
  O2-  O211  1  0.80108766  0.21717392  0.52590476  1
  O2-  O212  1  0.76499765  0.57839854  0.01872729  1
  O2-  O213  1  0.80497532  0.58358264  0.59826104  1
  O2-  O214  1  0.82374124  0.95578850  -0.02279569  1
  O2-  O215  1  0.78948086  0.90466616  0.52309285  1
