# generated using pymatgen
data_H2O
_symmetry_space_group_name_H-M   'P 1'
_cell_length_a   13.48912924
_cell_length_b   13.49699392
_cell_length_c   14.67790883
_cell_angle_alpha   89.98639087
_cell_angle_beta   90.04710415
_cell_angle_gamma   119.96172539
_symmetry_Int_Tables_number   1
_chemical_formula_structural   H2O
_chemical_formula_sum   'H144 O72'
_cell_volume   2315.17060504
_cell_formula_units_Z   72
loop_
 _symmetry_equiv_pos_site_id
 _symmetry_equiv_pos_as_xyz
  1  'x, y, z'
loop_
 _atom_type_symbol
 _atom_type_oxidation_number
  H+  1.0
  O2-  -2.0
loop_
 _atom_site_type_symbol
 _atom_site_label
 _atom_site_symmetry_multiplicity
 _atom_site_fract_x
 _atom_site_fract_y
 _atom_site_fract_z
 _atom_site_occupancy
  H+  H0  1  0.53870985  0.38921667  0.98219496  1
  H+  H1  1  0.84237590  0.00231061  0.26999323  1
  H+  H2  1  0.98967363  0.71307253  0.94392270  1
  H+  H3  1  0.09717448  0.87556651  0.60041042  1
  H+  H4  1  0.03198827  0.84602023  0.23411045  1
  H+  H5  1  0.56163780  0.15258352  0.25504389  1
  H+  H6  1  0.84638716  0.17838873  -0.01924309  1
  H+  H7  1  0.17784138  0.82163722  0.24835999  1
  H+  H8  1  0.67470187  0.88516302  0.01697566  1
  H+  H9  1  0.50639128  0.96898682  0.23691871  1
  H+  H10  1  0.48163553  -0.01343500  1.02744553  1
  H+  H11  1  0.52412459  0.37382907  0.26396886  1
  H+  H12  1  0.84936395  0.34205416  0.24027939  1
  H+  H13  1  0.97890270  0.49125494  0.99348888  1
  H+  H14  1  0.64288691  0.82442868  0.76842214  1
  H+  H15  1  0.97230443  0.17231354  0.75518016  1
  H+  H16  1  0.51726877  0.80802889  0.49008830  1
  H+  H17  1  0.14274813  0.50426346  0.50586570  1
  H+  H18  1  0.45808764  0.56135431  0.11673881  1
  H+  H19  1  0.58371174  0.12429709  0.79224103  1
  H+  H20  1  0.43690646  0.31095557  0.50151373  1
  H+  H21  1  0.85448741  0.50745762  0.49223185  1
  H+  H22  1  0.50210629  0.86857080  0.72748904  1
  H+  H23  1  0.84960972  0.80147725  0.77170257  1
  H+  H24  1  0.84452092  0.80823448  0.49210703  1
  H+  H25  1  0.68136237  0.82307867  0.24657762  1
  H+  H26  1  0.14718452  0.30843802  0.74235986  1
  H+  H27  1  1.02620794  0.83061464  0.73308556  1
  H+  H28  1  0.52635188  0.49443460  0.75589693  1
  H+  H29  1  0.14920906  0.00375830  0.49183613  1
  H+  H30  1  0.28382017  0.48319874  0.49940090  1
  H+  H31  1  0.55223993  0.78035397  0.85038624  1
  H+  H32  1  0.39569285  0.16235272  0.26214421  1
  H+  H33  1  0.05196699  0.86978652  0.01732411  1
  H+  H34  1  0.88512192  0.77598673  0.34476376  1
  H+  H35  1  0.71621202  0.14978497  0.49476221  1
  H+  H36  1  0.49785747  0.80817761  -0.01062234  1
  H+  H37  1  0.53054607  1.00746383  0.47969442  1
  H+  H38  1  0.89939287  0.26174821  0.21410439  1
  H+  H39  1  0.13146162  0.95618089  0.73486863  1
  H+  H40  1  0.50806384  0.69422369  0.99986009  1
  H+  H41  1  0.71596294  0.19787251  0.71052473  1
  H+  H42  1  0.44098683  0.87441764  0.58888411  1
  H+  H43  1  0.69066729  0.51020673  0.73744208  1
  H+  H44  1  0.62537504  0.48089500  0.48814336  1
  H+  H45  1  0.49746739  0.64515541  0.73485344  1
  H+  H46  1  0.14211314  0.37209021  0.26650592  1
  H+  H47  1  0.18498588  1.02826158  0.01114270  1
  H+  H48  1  0.69978056  0.52273070  0.23266127  1
  H+  H49  1  0.20991831  0.00282480  0.26302088  1
  H+  H50  1  0.10232972  0.54864763  0.11008229  1
  H+  H51  1  0.83829289  0.05948765  0.98642748  1
  H+  H52  1  0.98248963  0.50507385  0.48519933  1
  H+  H53  1  0.03443639  0.20171473  -0.00034632  1
  H+  H54  1  0.78094991  0.79338097  -0.02438261  1
  H+  H55  1  0.27539467  0.80538622  0.01313200  1
  H+  H56  1  0.17888779  0.69596106  0.47948599  1
  H+  H57  1  0.14091992  0.83999397  0.50870679  1
  H+  H58  1  0.81647873  0.63547051  0.50771350  1
  H+  H59  1  0.97537125  0.51594519  0.26755682  1
  H+  H60  1  0.81478011  0.62570625  0.74016001  1
  H+  H61  1  0.35920692  0.83320943  0.49929412  1
  H+  H62  1  0.84352080  0.19691945  0.73614751  1
  H+  H63  1  0.16889837  0.82648744  0.01926319  1
  H+  H64  1  0.19016486  0.09517880  0.85728936  1
  H+  H65  1  0.70521331  0.84273078  0.51696770  1
  H+  H66  1  0.90080806  0.45405255  0.90168660  1
  H+  H67  1  0.86323172  0.66502684  -0.01151128  1
  H+  H68  1  0.41667066  0.91611009  -0.05939730  1
  H+  H69  1  0.32337211  0.18544926  0.50549182  1
  H+  H70  1  0.34776303  0.19251157  0.02078661  1
  H+  H71  1  0.47305703  0.51515641  0.50314742  1
  H+  H72  1  0.45387448  0.24048893  0.63632542  1
  H+  H73  1  0.82736815  0.97220480  0.74464615  1
  H+  H74  1  0.30935817  0.48857041  0.75271840  1
  H+  H75  1  0.51955015  0.16178329  1.05566997  1
  H+  H76  1  0.82500128  0.47442585  0.75183035  1
  H+  H77  1  0.50203713  0.53437378  0.01872392  1
  H+  H78  1  0.24689490  0.21780631  0.25339039  1
  H+  H79  1  0.50569153  0.66802498  0.26028117  1
  H+  H80  1  0.67792592  0.15039996  0.24731608  1
  H+  H81  1  0.13982653  0.63742142  0.02754845  1
  H+  H82  1  0.51544556  0.31952279  0.72462289  1
  H+  H83  1  0.10293496  0.55691051  0.58834578  1
  H+  H84  1  0.94853997  0.48504477  0.75393551  1
  H+  H85  1  0.66215454  0.50807527  -0.00841551  1
  H+  H86  1  0.96217919  0.80627838  0.48704548  1
  H+  H87  1  0.51392513  -0.01199314  0.69937635  1
  H+  H88  1  0.85017912  0.51155776  0.25892263  1
  H+  H89  1  0.16659190  0.35500849  0.50990294  1
  H+  H90  1  0.51439805  0.49186384  0.25261489  1
  H+  H91  1  0.19632171  0.49638026  1.00012488  1
  H+  H92  1  0.47896980  0.63552352  0.50672382  1
  H+  H93  1  0.80695358  0.51433223  0.01922020  1
  H+  H94  1  0.83393466  0.32580468  0.73271682  1
  H+  H95  1  0.84743844  0.69468576  0.25647169  1
  H+  H96  1  0.19941322  0.24227918  0.54936295  1
  H+  H97  1  0.83440391  0.85060582  0.97267839  1
  H+  H98  1  0.21939284  0.25230066  0.23896989  1
  H+  H99  1  -0.00640503  0.14040500  0.50357299  1
  H+  H100  1  0.37578404  0.51279967  0.23430873  1
  H+  H101  1  0.55149243  0.18598221  0.71080063  1
  H+  H102  1  -0.01025025  0.18497182  0.23873602  1
  H+  H103  1  0.17898943  0.14770413  1.00528790  1
  H+  H104  1  0.90409401  0.07572088  0.36070740  1
  H+  H105  1  0.30049372  0.82550534  0.25605020  1
  H+  H106  1  0.15396491  0.13910914  0.76943053  1
  H+  H107  1  0.63743624  0.16263650  0.05007217  1
  H+  H108  1  0.15110785  0.64488363  0.24762007  1
  H+  H109  1  0.77899423  0.55449039  0.59811233  1
  H+  H110  1  0.15713529  0.31385374  0.00995992  1
  H+  H111  1  0.74999841  0.91364743  0.10651320  1
  H+  H112  1  0.45632641  0.56404546  0.64566917  1
  H+  H113  1  0.06141004  0.24685684  0.14658102  1
  H+  H114  1  0.55821436  0.45737815  0.39331300  1
  H+  H115  1  0.23849491  0.07485966  0.35500677  1
  H+  H116  1  0.41165981  0.30302974  0.08265317  1
  H+  H117  1  0.44921039  0.88117080  0.15625559  1
  H+  H118  1  0.55860229  0.76522474  0.40396803  1
  H+  H119  1  0.46166920  0.21677785  0.17056159  1
  H+  H120  1  0.80769256  0.22081260  0.57223548  1
  H+  H121  1  0.11469156  0.89254559  0.13972608  1
  H+  H122  1  0.77860380  0.56318281  0.13876404  1
  H+  H123  1  0.19845556  0.43760606  0.36103066  1
  H+  H124  1  0.83133966  0.95651718  0.51908805  1
  H+  H125  1  0.58550215  0.08752963  0.39328187  1
  H+  H126  1  0.78704119  0.88597462  0.66098948  1
  H+  H127  1  0.56994653  0.45762610  0.84625434  1
  H+  H128  1  0.88259345  0.13386695  0.84244531  1
  H+  H129  1  0.87054961  0.12885683  0.49037358  1
  H+  H130  1  0.82080597  0.32240457  0.00513713  1
  H+  H131  1  0.21711792  0.77961352  0.39295188  1
  H+  H132  1  0.47022655  0.11043114  0.88877339  1
  H+  H133  1  0.89704598  0.74810759  0.84984625  1
  H+  H134  1  0.14358056  0.52140893  0.25931282  1
  H+  H135  1  0.80518645  0.25743481  0.09913537  1
  H+  H136  1  0.50389069  0.78931394  0.26649379  1
  H+  H137  1  0.31562527  0.49727981  1.00166180  1
  H+  H138  1  0.13825497  0.11555104  0.47316368  1
  H+  H139  1  0.23817767  0.45403608  0.84388702  1
  H+  H140  1  0.53184453  0.12973764  0.90049565  1
  H+  H141  1  0.89638352  0.47759590  0.38803912  1
  H+  H142  1  0.10347499  0.23085478  0.65122631  1
  H+  H143  1  0.80284752  0.82838227  0.23582947  1
  O2-  O144  1  0.03566864  0.26090674  0.20622326  1
  O2-  O145  1  0.09666580  0.22740289  0.72153606  1
  O2-  O146  1  0.10353185  0.56146204  0.23192840  1
  O2-  O147  1  0.08773143  0.57056115  0.71602144  1
  O2-  O148  1  0.11224538  0.88133532  0.21235170  1
  O2-  O149  1  0.10258714  0.87970574  0.70571786  1
  O2-  O150  1  0.47460985  0.21863058  0.23662003  1
  O2-  O151  1  0.49121117  0.24379918  0.69622750  1
  O2-  O152  1  0.45654539  0.55319596  0.21636861  1
  O2-  O153  1  0.46161352  0.56421387  0.71392322  1
  O2-  O154  1  0.44933759  0.88684289  0.22234953  1
  O2-  O155  1  0.46245906  0.90440891  0.69655864  1
  O2-  O156  1  0.82934890  0.26844183  0.20982474  1
  O2-  O157  1  0.80572043  0.24401478  0.70337482  1
  O2-  O158  1  0.78083538  0.56171411  0.21082974  1
  O2-  O159  1  0.77246956  0.54539776  0.71354070  1
  O2-  O160  1  0.75934478  0.86783577  0.21875843  1
  O2-  O161  1  0.78759581  0.88996872  0.72929731  1
  O2-  O162  1  0.27165763  0.07025583  0.29612025  1
  O2-  O163  1  0.17873551  0.08516464  0.79073292  1
  O2-  O164  1  0.20086391  0.44684945  0.29346949  1
  O2-  O165  1  0.23016927  0.44797145  0.77697311  1
  O2-  O166  1  0.21969868  0.78303329  0.27670730  1
  O2-  O167  1  0.14320585  0.66480602  0.75689454  1
  O2-  O168  1  0.59851665  0.10634361  0.27023188  1
  O2-  O169  1  0.59439498  0.13833184  0.72669142  1
  O2-  O170  1  0.56203893  0.45599505  0.28000244  1
  O2-  O171  1  0.56595931  0.45236809  0.77760064  1
  O2-  O172  1  0.54432774  0.75039973  0.28963581  1
  O2-  O173  1  0.55959210  0.78611036  0.78242859  1
  O2-  O174  1  0.89108580  0.08066464  0.29468419  1
  O2-  O175  1  0.88646653  0.13392754  0.77331534  1
  O2-  O176  1  0.89345393  0.47680135  0.29111872  1
  O2-  O177  1  0.86843585  0.43427583  0.77440179  1
  O2-  O178  1  0.88763091  0.77667712  0.27684531  1
  O2-  O179  1  0.88436377  0.75289569  0.78170143  1
  O2-  O180  1  0.18672005  0.08162010  0.46167090  1
  O2-  O181  1  0.22493474  0.11295077  0.98500727  1
  O2-  O182  1  0.20167505  0.44011323  0.48133130  1
  O2-  O183  1  0.23625098  0.45675894  0.97579487  1
  O2-  O184  1  0.21838562  0.77779116  0.46137572  1
  O2-  O185  1  0.19340041  0.76756965  0.99959743  1
  O2-  O186  1  0.58381451  0.08758767  0.46071630  1
  O2-  O187  1  0.55460566  0.11467368  1.06699919  1
  O2-  O188  1  0.54839842  0.45116576  0.46169716  1
  O2-  O189  1  0.57993903  0.46858693  0.96021967  1
  O2-  O190  1  0.56354768  0.77109339  0.47237108  1
  O2-  O191  1  0.54157974  0.77161712  0.96875304  1
  O2-  O192  1  0.91486307  0.08700476  0.47967847  1
  O2-  O193  1  0.88337275  0.13555001  0.95496752  1
  O2-  O194  1  0.89969963  0.47321331  0.46056629  1
  O2-  O195  1  0.89822261  0.45279575  0.96864639  1
  O2-  O196  1  0.88084656  0.76600256  0.46398878  1
  O2-  O197  1  0.92957061  0.73243256  0.95021809  1
  O2-  O198  1  0.10852135  0.23357708  0.03262328  1
  O2-  O199  1  0.12695777  0.24206263  0.54481724  1
  O2-  O200  1  0.10699730  0.55277110  0.04231213  1
  O2-  O201  1  0.10259465  0.55176891  0.52142654  1
  O2-  O202  1  0.12884140  0.90980497  0.04436236  1
  O2-  O203  1  0.09391899  0.87355860  0.53021317  1
  O2-  O204  1  0.42713761  0.25020784  0.04858289  1
  O2-  O205  1  0.38545213  0.24712038  0.54187817  1
  O2-  O206  1  0.45578631  0.56629318  0.04436364  1
  O2-  O207  1  0.43400990  0.55468641  0.52998629  1
  O2-  O208  1  0.43661849  0.90553898  0.00235865  1
  O2-  O209  1  0.44001134  0.86672640  0.52025640  1
  O2-  O210  1  0.78193253  0.24340879  0.03297164  1
  O2-  O211  1  0.80076849  0.19359316  0.50967667  1
  O2-  O212  1  0.77498117  0.56306885  0.03682526  1
  O2-  O213  1  0.78117458  0.55362813  0.52966145  1
  O2-  O214  1  0.74165056  0.94725384  0.04867910  1
  O2-  O215  1  0.78395980  0.87585507  0.54313363  1
