# generated using pymatgen
data_H2O
_symmetry_space_group_name_H-M   'P 1'
_cell_length_a   13.48895599
_cell_length_b   13.49109644
_cell_length_c   14.67049277
_cell_angle_alpha   90.00809926
_cell_angle_beta   89.96519722
_cell_angle_gamma   119.97199203
_symmetry_Int_Tables_number   1
_chemical_formula_structural   H2O
_chemical_formula_sum   'H144 O72'
_cell_volume   2312.72146110
_cell_formula_units_Z   72
loop_
 _symmetry_equiv_pos_site_id
 _symmetry_equiv_pos_as_xyz
  1  'x, y, z'
loop_
 _atom_type_symbol
 _atom_type_oxidation_number
  H+  1.0
  O2-  -2.0
loop_
 _atom_site_type_symbol
 _atom_site_label
 _atom_site_symmetry_multiplicity
 _atom_site_fract_x
 _atom_site_fract_y
 _atom_site_fract_z
 _atom_site_occupancy
  H+  H0  1  0.70057650  0.85619782  0.50713620  1
  H+  H1  1  0.63853385  0.15216499  0.30271150  1
  H+  H2  1  0.14678940  0.34663538  0.26408866  1
  H+  H3  1  0.63646919  0.13951298  1.02332614  1
  H+  H4  1  0.85957774  0.41154897  0.47593482  1
  H+  H5  1  0.17772181  0.14391724  0.98684798  1
  H+  H6  1  0.75843135  0.54317392  0.60056081  1
  H+  H7  1  0.17242063  0.97823849  0.73077325  1
  H+  H8  1  0.80586905  0.50620598  0.25803971  1
  H+  H9  1  0.48853865  0.19489511  0.25988468  1
  H+  H10  1  0.55585921  0.78498456  0.39735421  1
  H+  H11  1  0.47111502  0.28990077  0.01695013  1
  H+  H12  1  0.86249334  0.71234104  0.71873355  1
  H+  H13  1  0.31722524  0.16226039  0.74908172  1
  H+  H14  1  0.14649496  0.19746200  0.24749954  1
  H+  H15  1  0.20115235  0.36849645  0.49384561  1
  H+  H16  1  0.13791266  0.89606450  0.24502339  1
  H+  H17  1  0.53356480  0.16848046  0.44760775  1
  H+  H18  1  0.82054281  0.29492121  0.02070164  1
  H+  H19  1  0.80382235  0.83314398  0.52309431  1
  H+  H20  1  0.96993335  0.48707532  0.23490631  1
  H+  H21  1  0.49548818  0.19204437  0.70046833  1
  H+  H22  1  1.01472816  0.17765727  0.24807432  1
  H+  H23  1  0.30540089  0.59371637  0.83957763  1
  H+  H24  1  0.86553447  0.81675782  1.03693334  1
  H+  H25  1  0.29791298  0.81154664  0.99302342  1
  H+  H26  1  -0.00212889  0.83044062  -0.00188355  1
  H+  H27  1  0.31406234  0.81722906  0.74483758  1
  H+  H28  1  0.14131540  0.90207270  0.35060237  1
  H+  H29  1  0.69088428  0.86803988  0.24223997  1
  H+  H30  1  0.22482986  0.06451121  0.48294296  1
  H+  H31  1  0.69300807  0.23131043  0.49627993  1
  H+  H32  1  0.16604875  0.63037452  0.51724502  1
  H+  H33  1  0.23634466  0.44899050  0.40690400  1
  H+  H34  1  0.98313345  0.86800469  0.21980978  1
  H+  H35  1  0.77375392  0.23874018  0.84478035  1
  H+  H36  1  0.68628193  0.51670626  0.49632403  1
  H+  H37  1  0.06809701  0.17453581  0.49105575  1
  H+  H38  1  0.16916899  0.85826272  0.72287324  1
  H+  H39  1  0.38018470  0.52407233  0.50729624  1
  H+  H40  1  0.15754752  0.52211746  0.21893500  1
  H+  H41  1  0.24009074  0.78525476  0.89491044  1
  H+  H42  1  0.85974436  0.38307816  0.76421597  1
  H+  H43  1  0.81745434  -0.01719154  0.24913439  1
  H+  H44  1  0.20804250  0.69219122  0.24950779  1
  H+  H45  1  0.52583345  0.36825976  0.74680294  1
  H+  H46  1  0.14001266  0.96644678  -0.04317916  1
  H+  H47  1  0.87808329  0.69682112  1.04529823  1
  H+  H48  1  0.48811413  0.94271984  0.04439265  1
  H+  H49  1  0.81711340  0.17376115  0.24078284  1
  H+  H50  1  0.11429890  0.91561448  0.58868939  1
  H+  H51  1  -0.04817921  0.79799388  0.49207603  1
  H+  H52  1  0.51445407  1.01771800  0.72844820  1
  H+  H53  1  0.37836501  0.52351241  0.74010728  1
  H+  H54  1  0.40140644  0.20527972  0.48511170  1
  H+  H55  1  0.83011616  1.00608436  0.76721421  1
  H+  H56  1  0.22027953  0.07820179  0.27754773  1
  H+  H57  1  0.51755594  0.32297651  0.47233136  1
  H+  H58  1  0.46429433  0.61749795  0.01856857  1
  H+  H59  1  -0.02231750  0.50037770  0.76112547  1
  H+  H60  1  0.16914787  0.51356191  0.51713225  1
  H+  H61  1  0.10799704  0.41913234  0.32463777  1
  H+  H62  1  -0.02111714  0.81015554  0.21717847  1
  H+  H63  1  0.68753951  0.50681911  0.27781330  1
  H+  H64  1  0.64442854  0.81850124  0.75767017  1
  H+  H65  1  0.52712749  0.69876890  0.75381829  1
  H+  H66  1  0.40111364  0.79835166  0.26692909  1
  H+  H67  1  0.47628762  0.17340789  0.02944132  1
  H+  H68  1  0.82744288  0.13209096  0.78411083  1
  H+  H69  1  0.69789720  0.51471603  0.73578869  1
  H+  H70  1  0.99003346  0.46586080  0.99322536  1
  H+  H71  1  0.81880939  0.29442587  0.24286924  1
  H+  H72  1  0.37284336  0.85981391  0.49769811  1
  H+  H73  1  0.52073338  0.80003298  0.99609517  1
  H+  H74  1  0.99442646  0.49487349  0.47666542  1
  H+  H75  1  0.83012309  1.00811347  0.00461856  1
  H+  H76  1  1.02147342  0.16176630  1.01214805  1
  H+  H77  1  0.15784614  0.53025837  0.75250460  1
  H+  H78  1  0.19497948  0.21021005  0.50803391  1
  H+  H79  1  0.33135848  0.19817902  0.26623193  1
  H+  H80  1  0.52124097  0.82752874  0.48548510  1
  H+  H81  1  0.89643950  0.99478425  0.47403609  1
  H+  H82  1  0.19085116  0.70337990  0.75032703  1
  H+  H83  1  0.29655866  0.14359269  0.99332845  1
  H+  H84  1  0.49939362  0.84775138  0.72559334  1
  H+  H85  1  0.05972943  0.96365917  0.51565629  1
  H+  H86  1  0.47979289  0.45638525  0.99031532  1
  H+  H87  1  0.98414778  0.83043673  0.71960229  1
  H+  H88  1  0.82040384  0.52051387  0.73112005  1
  H+  H89  1  0.52433171  0.48474166  0.75571784  1
  H+  H90  1  0.52535533  0.50523918  0.46699610  1
  H+  H91  1  0.48764438  0.52630599  0.28535640  1
  H+  H92  1  0.36447197  0.51254927  0.26599496  1
  H+  H93  1  0.79375369  0.67618217  0.28528679  1
  H+  H94  1  0.85144208  0.16519858  0.48455161  1
  H+  H95  1  0.49598224  0.64614773  0.50663839  1
  H+  H96  1  0.79336440  0.12484874  0.46475053  1
  H+  H97  1  0.14427191  0.84850912  -0.04160475  1
  H+  H98  1  0.70086269  0.82866634  0.02086755  1
  H+  H99  1  0.13648338  0.15681460  0.73028241  1
  H+  H100  1  0.81223216  0.63912845  0.51178408  1
  H+  H101  1  0.49697756  0.69491598  0.25901284  1
  H+  H102  1  0.83217401  0.85951558  0.72503149  1
  H+  H103  1  0.85036755  0.52708753  0.03751542  1
  H+  H104  1  0.18338331  0.80426206  0.48015193  1
  H+  H105  1  0.49131111  0.97822193  0.48467924  1
  H+  H106  1  0.83025469  0.13008639  1.00340330  1
  H+  H107  1  0.25292857  0.49072038  0.02127435  1
  H+  H108  1  0.85924341  0.07875340  0.87691686  1
  H+  H109  1  0.19604435  0.89496894  0.11542884  1
  H+  H110  1  0.54694108  0.07487436  0.94521186  1
  H+  H111  1  0.56130592  0.76467763  0.90521322  1
  H+  H112  1  0.78223843  0.72069265  0.88003402  1
  H+  H113  1  0.24484686  0.82210600  0.27741052  1
  H+  H114  1  0.81909795  0.69354527  0.88115202  1
  H+  H115  1  0.46057853  0.88785257  0.63327695  1
  H+  H116  1  0.22129642  0.47377257  0.87509133  1
  H+  H117  1  0.87274389  0.12676886  0.33937111  1
  H+  H118  1  0.10371521  0.20254329  0.64529519  1
  H+  H119  1  0.53352268  0.42681521  0.90521148  1
  H+  H120  1  0.50177508  0.09247014  0.80528810  1
  H+  H121  1  0.77633493  0.21630252  0.11159029  1
  H+  H122  1  0.45289520  0.84235698  0.11559739  1
  H+  H123  1  0.45192985  0.22697820  0.16489132  1
  H+  H124  1  0.75993698  0.26857979  0.58897659  1
  H+  H125  1  0.45260586  0.55667858  0.64676124  1
  H+  H126  1  0.77365219  0.88344760  0.11364116  1
  H+  H127  1  0.84895366  0.75486041  0.41334158  1
  H+  H128  1  0.11652345  0.55146781  0.65449241  1
  H+  H129  1  0.13227867  0.55903801  0.12287659  1
  H+  H130  1  0.78825902  0.55197596  0.12113320  1
  H+  H131  1  0.91208384  0.45428188  0.33428195  1
  H+  H132  1  0.42642103  0.54239574  0.10806506  1
  H+  H133  1  0.79784790  0.80005964  0.28494952  1
  H+  H134  1  0.90045551  0.44724423  0.91455952  1
  H+  H135  1  0.24223588  0.11975990  0.84226641  1
  H+  H136  1  0.14384302  0.90103871  0.12069635  1
  H+  H137  1  0.25976967  0.15228097  0.39757285  1
  H+  H138  1  0.09961397  0.20810327  0.09942707  1
  H+  H139  1  0.46795324  0.24862901  0.61848145  1
  H+  H140  1  0.77973757  0.90513800  0.65018752  1
  H+  H141  1  0.95186102  0.05125436  0.37915022  1
  H+  H142  1  0.68866727  0.17713775  0.76446967  1
  H+  H143  1  0.23288483  0.75820114  0.40154729  1
  O2-  O144  1  0.09827032  0.22814923  0.22375805  1
  O2-  O145  1  0.07809867  0.17390033  0.70741516  1
  O2-  O146  1  0.12892139  0.57021829  0.19170203  1
  O2-  O147  1  0.11234789  0.56056080  0.72214892  1
  O2-  O148  1  0.19058599  0.92323974  0.29690550  1
  O2-  O149  1  0.13265899  0.90180570  0.69920950  1
  O2-  O150  1  0.45339747  0.23639449  0.23244159  1
  O2-  O151  1  0.46069988  0.23949259  0.68620730  1
  O2-  O152  1  0.44455694  0.55563014  0.24715595  1
  O2-  O153  1  0.45667364  0.55818685  0.71509886  1
  O2-  O154  1  0.47763820  0.83197607  0.23602270  1
  O2-  O155  1  0.45947022  0.88837554  0.70138683  1
  O2-  O156  1  0.77065311  0.21171558  0.22593718  1
  O2-  O157  1  0.77250396  0.22015190  0.78023310  1
  O2-  O158  1  0.76035911  0.54299530  0.24097366  1
  O2-  O159  1  0.77431082  0.55250674  0.70356074  1
  O2-  O160  1  0.77187726  0.89855707  0.22549727  1
  O2-  O161  1  0.78369051  0.89890462  0.71835010  1
  O2-  O162  1  0.24834034  0.15944845  0.29057472  1
  O2-  O163  1  0.24034489  0.11134847  0.77435594  1
  O2-  O164  1  0.17601129  0.42670438  0.29452664  1
  O2-  O165  1  0.25977670  0.51526120  0.81760513  1
  O2-  O166  1  0.26021320  0.75903598  0.29005383  1
  O2-  O167  1  0.23569377  0.78541011  0.76985874  1
  O2-  O168  1  0.55917732  0.12076258  0.32740744  1
  O2-  O169  1  0.54565555  0.10048765  0.75026370  1
  O2-  O170  1  0.57233510  0.48821413  0.34148099  1
  O2-  O171  1  0.56446571  0.44423206  0.77802247  1
  O2-  O172  1  0.53800906  0.77884279  0.27853113  1
  O2-  O173  1  0.56257911  0.77873294  0.77794352  1
  O2-  O174  1  0.89081437  0.10718488  0.28012718  1
  O2-  O175  1  0.85902507  0.08256499  0.80493243  1
  O2-  O176  1  0.89554326  0.44189939  0.26621957  1
  O2-  O177  1  0.89626924  0.46348965  0.78369439  1
  O2-  O178  1  0.80587445  0.74309508  0.32259261  1
  O2-  O179  1  0.89968007  0.79645310  0.72084536  1
  O2-  O180  1  0.26846917  0.14619524  0.46612787  1
  O2-  O181  1  0.22287163  0.11010438  0.95910141  1
  O2-  O182  1  0.24356138  0.45199494  0.47431683  1
  O2-  O183  1  0.17525135  0.45178145  0.99343699  1
  O2-  O184  1  0.23073897  0.76941640  0.46944132  1
  O2-  O185  1  0.22600067  0.78923849  0.96061457  1
  O2-  O186  1  0.57222499  0.12337246  0.42777620  1
  O2-  O187  1  0.55166764  0.08924481  1.01044309  1
  O2-  O188  1  0.56768345  0.46741730  0.44098271  1
  O2-  O189  1  0.52157397  0.41697428  0.97173616  1
  O2-  O190  1  0.56049408  0.78510148  0.46510692  1
  O2-  O191  1  0.56114042  0.75969670  0.97274568  1
  O2-  O192  1  0.97129877  0.04079098  0.44224006  1
  O2-  O193  1  0.86406929  0.08597597  0.97506205  1
  O2-  O194  1  0.92395719  0.47365835  0.44155343  1
  O2-  O195  1  0.90479893  0.43409058  0.98037951  1
  O2-  O196  1  0.86814006  0.75519857  0.48330250  1
  O2-  O197  1  0.92029090  0.78694717  1.04238417  1
  O2-  O198  1  0.10088758  0.19499822  0.03319032  1
  O2-  O199  1  0.13874278  0.23612314  0.52049668  1
  O2-  O200  1  0.12862384  0.52701752  0.01512661  1
  O2-  O201  1  0.12488326  0.55019472  0.53972143  1
  O2-  O202  1  0.09238919  0.88129250  -0.05195803  1
  O2-  O203  1  0.10112145  0.92104258  0.52096862  1
  O2-  O204  1  0.43281779  0.21146158  0.04673094  1
  O2-  O205  1  0.48598356  0.24540030  0.49958677  1
  O2-  O206  1  0.41041485  0.53958347  0.04234880  1
  O2-  O207  1  0.46196482  0.56541285  0.52875493  1
  O2-  O208  1  0.44863087  0.85811153  0.05012867  1
  O2-  O209  1  0.45502006  0.90308433  0.51624361  1
  O2-  O210  1  0.77478487  0.21354050  0.04256879  1
  O2-  O211  1  0.74311813  0.29822731  0.53437116  1
  O2-  O212  1  0.81515535  0.57271636  0.05711725  1
  O2-  O213  1  0.76259772  0.55140892  0.52999608  1
  O2-  O214  1  0.78025209  0.87606680  0.04537403  1
  O2-  O215  1  0.77844961  0.88984034  0.53501082  1
