# generated using pymatgen
data_H2O
_symmetry_space_group_name_H-M   'P 1'
_cell_length_a   13.49354344
_cell_length_b   13.50595833
_cell_length_c   14.68045567
_cell_angle_alpha   90.04690469
_cell_angle_beta   89.98968974
_cell_angle_gamma   120.05380967
_symmetry_Int_Tables_number   1
_chemical_formula_structural   H2O
_chemical_formula_sum   'H144 O72'
_cell_volume   2315.71806907
_cell_formula_units_Z   72
loop_
 _symmetry_equiv_pos_site_id
 _symmetry_equiv_pos_as_xyz
  1  'x, y, z'
loop_
 _atom_type_symbol
 _atom_type_oxidation_number
  H+  1.0
  O2-  -2.0
loop_
 _atom_site_type_symbol
 _atom_site_label
 _atom_site_symmetry_multiplicity
 _atom_site_fract_x
 _atom_site_fract_y
 _atom_site_fract_z
 _atom_site_occupancy
  H+  H0  1  0.82083881  0.50702759  1.00237989  1
  H+  H1  1  0.64230792  0.50067181  0.49613534  1
  H+  H2  1  0.83273456  0.86520278  0.23861722  1
  H+  H3  1  0.82582145  0.29273693  0.50683499  1
  H+  H4  1  0.02494757  0.84470064  0.73694924  1
  H+  H5  1  0.50407058  0.81053111  0.77421243  1
  H+  H6  1  0.53073202  0.36689706  0.73674782  1
  H+  H7  1  0.70554915  0.51724105  0.72683338  1
  H+  H8  1  0.15770705  0.64907621  0.74491321  1
  H+  H9  1  0.04617390  0.19346658  0.23663265  1
  H+  H10  1  0.85556580  0.04856075  0.25122476  1
  H+  H11  1  0.20702749  1.00410150  0.46582202  1
  H+  H12  1  0.14113096  0.22032849  0.74435809  1
  H+  H13  1  0.42074708  0.89895082  0.25024028  1
  H+  H14  1  0.11352516  0.59160173  0.25311174  1
  H+  H15  1  0.84219713  0.29437119  0.72749460  1
  H+  H16  1  0.89916439  0.12011338  0.34449700  1
  H+  H17  1  0.53653300  0.12740586  0.50291248  1
  H+  H18  1  0.01238036  0.19458621  0.76553078  1
  H+  H19  1  0.69972718  0.84041481  0.48234604  1
  H+  H20  1  -0.13349657  0.37494812  0.33633432  1
  H+  H21  1  0.51864396  0.47905271  0.75249012  1
  H+  H22  1  0.63863380  0.80985290  0.99704975  1
  H+  H23  1  0.38753554  0.16304418  0.46916496  1
  H+  H24  1  0.15570148  -0.03309149  0.98794370  1
  H+  H25  1  -0.02746819  0.83756220  0.24309592  1
  H+  H26  1  0.37850551  0.53604495  0.50928889  1
  H+  H27  1  0.17871717  0.81960702  0.76943020  1
  H+  H28  1  0.81993438  0.62554515  0.00160183  1
  H+  H29  1  0.34601425  0.54037170  1.01329356  1
  H+  H30  1  -0.00164120  0.26073180  0.02374107  1
  H+  H31  1  -0.03351603  0.48420442  0.48161475  1
  H+  H32  1  0.16266469  0.84157463  0.51790288  1
  H+  H33  1  0.51073524  -0.02691588  0.53805095  1
  H+  H34  1  0.17630559  0.20636843  0.02417167  1
  H+  H35  1  0.19838416  0.84427193  0.99800627  1
  H+  H36  1  0.14776432  0.52085644  0.50965794  1
  H+  H37  1  0.65007033  0.46123378  -0.02288121  1
  H+  H38  1  0.20393634  0.70137947  0.50856539  1
  H+  H39  1  0.19021356  0.54948622  0.97861562  1
  H+  H40  1  0.08758561  0.36951306  0.43147660  1
  H+  H41  1  0.98233944  0.82219448  0.48265019  1
  H+  H42  1  0.73042104  0.52734479  0.25249304  1
  H+  H43  1  0.15337813  0.95609756  0.73305263  1
  H+  H44  1  0.84185863  0.34650393  0.98212954  1
  H+  H45  1  -0.04122528  0.46447417  -0.01829972  1
  H+  H46  1  0.83667196  0.85142911  0.48834954  1
  H+  H47  1  0.21371900  0.78553171  0.26696349  1
  H+  H48  1  0.80483889  0.21648207  0.59892455  1
  H+  H49  1  -0.02703888  0.14295177  0.48909085  1
  H+  H50  1  0.20428965  0.73110050  1.00486763  1
  H+  H51  1  0.85944678  0.71191712  0.25598743  1
  H+  H52  1  0.82338048  0.63908043  0.49677907  1
  H+  H53  1  0.48022158  0.64754704  0.00970262  1
  H+  H54  1  0.54795908  0.84208284  0.25926335  1
  H+  H55  1  0.53543646  0.36879598  0.26211178  1
  H+  H56  1  0.12463720  0.14650926  1.02629049  1
  H+  H57  1  0.14479071  0.28402854  0.52020585  1
  H+  H58  1  0.82401054  0.51678621  0.72731617  1
  H+  H59  1  0.97554782  0.48992286  0.75079522  1
  H+  H60  1  0.84402098  0.20883059  0.25659995  1
  H+  H61  1  0.51205955  0.24850358  0.43432811  1
  H+  H62  1  0.37121979  0.16689501  0.20699573  1
  H+  H63  1  0.17227512  0.02656042  0.20977228  1
  H+  H64  1  0.80438078  0.17031312  1.02309266  1
  H+  H65  1  0.49414676  0.65685913  0.22688295  1
  H+  H66  1  0.55318726  1.05999571  0.24513730  1
  H+  H67  1  0.54504802  0.15000512  0.76251695  1
  H+  H68  1  0.36314532  0.51482445  0.74572152  1
  H+  H69  1  0.62284441  0.18317281  1.01188284  1
  H+  H70  1  0.84592117  0.47538526  0.47405733  1
  H+  H71  1  0.03607259  0.62556109  0.04637594  1
  H+  H72  1  0.16184892  0.53301559  0.74110170  1
  H+  H73  1  0.53269972  0.29453486  -0.01879219  1
  H+  H74  1  0.84021974  0.81415736  0.75504088  1
  H+  H75  1  0.79243880  0.23610141  0.10852189  1
  H+  H76  1  0.20242238  0.37162878  0.24807062  1
  H+  H77  1  0.95737231  0.10480603  0.99909495  1
  H+  H78  1  0.23098577  0.10513227  0.29835504  1
  H+  H79  1  0.38186408  0.84873789  0.53459039  1
  H+  H80  1  0.35858289  0.85220211  0.75667199  1
  H+  H81  1  0.84492329  0.17801066  0.73864841  1
  H+  H82  1  0.37398937  0.53386917  0.23382663  1
  H+  H83  1  -0.03459853  0.81674745  -0.02202820  1
  H+  H84  1  0.12972403  0.86599165  0.19495457  1
  H+  H85  1  0.77712165  0.95551807  0.72917319  1
  H+  H86  1  0.17280325  0.38276765  0.76712406  1
  H+  H87  1  0.40920131  0.17490996  0.71050283  1
  H+  H88  1  0.67769988  0.83412294  0.75633493  1
  H+  H89  1  0.19242104  0.48348780  0.24826572  1
  H+  H90  1  0.49487637  0.84955967  0.02518676  1
  H+  H91  1  0.15691314  0.42353820  0.00247021  1
  H+  H92  1  0.54222774  0.70904652  0.48359510  1
  H+  H93  1  0.66499148  0.19422144  0.25570663  1
  H+  H94  1  0.24681102  0.14810578  0.73934881  1
  H+  H95  1  0.79284892  0.56592252  0.15829514  1
  H+  H96  1  0.65883876  0.83025835  0.25156971  1
  H+  H97  1  0.52190287  0.38407261  0.50404369  1
  H+  H98  1  0.35998928  0.13720371  0.96478316  1
  H+  H99  1  0.49194154  0.52799518  0.51460121  1
  H+  H100  1  0.38433858  0.86623253  0.02722836  1
  H+  H101  1  0.81110299  -0.04040411  1.00320884  1
  H+  H102  1  0.09595779  0.90189866  0.08414455  1
  H+  H103  1  0.48333251  0.96990010  0.76348637  1
  H+  H104  1  0.83019034  -0.02672686  0.48813710  1
  H+  H105  1  0.90737147  0.04288828  0.79184124  1
  H+  H106  1  0.81779269  0.84312096  0.00220317  1
  H+  H107  1  0.84719841  0.69871305  0.74816037  1
  H+  H108  1  0.58119255  0.78078992  0.38811432  1
  H+  H109  1  0.52531209  0.17252447  0.23424154  1
  H+  H110  1  0.79128510  0.89789007  0.14666416  1
  H+  H111  1  0.16115619  0.19275073  0.20945961  1
  H+  H112  1  0.57374730  0.41825002  0.88420129  1
  H+  H113  1  0.88901604  0.43626941  0.83424333  1
  H+  H114  1  0.22930468  0.79438310  0.86146548  1
  H+  H115  1  0.20608333  0.43492322  0.38491325  1
  H+  H116  1  0.88155882  0.77241930  0.89218951  1
  H+  H117  1  0.85539920  0.14563793  0.48664243  1
  H+  H118  1  0.49086124  0.22468346  0.62488731  1
  H+  H119  1  0.24482075  0.77832814  0.42154478  1
  H+  H120  1  0.43412557  0.57287343  0.11427043  1
  H+  H121  1  0.54547730  0.11158246  0.86475624  1
  H+  H122  1  0.29609247  0.00921631  0.39643970  1
  H+  H123  1  0.22151630  0.47010692  0.85285313  1
  H+  H124  1  0.46847719  0.21007826  0.12704795  1
  H+  H125  1  0.44333585  0.55840256  0.65705844  1
  H+  H126  1  0.44867356  0.89075743  0.63841759  1
  H+  H127  1  0.08283618  0.29034380  0.10753968  1
  H+  H128  1  0.27873682  0.10086897  0.82667878  1
  H+  H129  1  0.47828214  0.91398539  0.14890173  1
  H+  H130  1  0.08522092  0.22302898  0.61161273  1
  H+  H131  1  0.78546082  0.56135628  0.58687130  1
  H+  H132  1  0.08950822  0.56751335  0.10778013  1
  H+  H133  1  0.11643377  0.56573997  0.60174718  1
  H+  H134  1  0.65724633  0.13124506  0.51007913  1
  H+  H135  1  0.09469280  0.73742157  0.31269485  1
  H+  H136  1  0.55385983  0.77540678  0.91011314  1
  H+  H137  1  0.25320919  0.15405752  0.95774704  1
  H+  H138  1  0.11324749  0.88346929  0.59784420  1
  H+  H139  1  0.90663734  0.79036847  0.38974939  1
  H+  H140  1  0.01681999  0.46365127  0.23042814  1
  H+  H141  1  0.50509562  0.69115577  0.77008654  1
  H+  H142  1  0.90268731  0.11436395  0.89795475  1
  H+  H143  1  0.56644497  0.44390177  0.35264775  1
  O2-  O144  1  0.12184379  0.23886122  0.20632828  1
  O2-  O145  1  0.09213982  0.25144178  0.72882519  1
  O2-  O146  1  0.09565664  0.52554409  0.21327589  1
  O2-  O147  1  0.12015679  0.57152974  0.71637139  1
  O2-  O148  1  0.09018763  0.90826819  0.18401708  1
  O2-  O149  1  0.10530630  0.87531947  0.71357885  1
  O2-  O150  1  0.45679715  0.20812364  0.19486216  1
  O2-  O151  1  0.48948291  0.22918786  0.69155122  1
  O2-  O152  1  0.44847087  0.57807111  0.20032910  1
  O2-  O153  1  0.44474932  0.55313347  0.72461656  1
  O2-  O154  1  0.49523584  0.93211642  0.22065649  1
  O2-  O155  1  0.44072243  0.88892160  0.73561231  1
  O2-  O156  1  0.80497586  0.25483742  0.23774879  1
  O2-  O157  1  0.81171241  0.21633943  0.70252163  1
  O2-  O158  1  0.80665762  0.57805024  0.22444072  1
  O2-  O159  1  0.78617105  0.55937089  0.70377154  1
  O2-  O160  1  0.79297910  0.90637845  0.21446400  1
  O2-  O161  1  0.75759713  0.87571979  0.73137779  1
  O2-  O162  1  0.23106535  0.11189471  0.23173197  1
  O2-  O163  1  0.27222200  0.09516008  0.75761590  1
  O2-  O164  1  0.23950557  0.45173201  0.27360590  1
  O2-  O165  1  0.22604620  0.46491379  0.78534460  1
  O2-  O166  1  0.16188554  0.72786836  0.31013763  1
  O2-  O167  1  0.22511221  0.78626213  0.79359992  1
  O2-  O168  1  0.57983452  0.14286440  0.26604302  1
  O2-  O169  1  0.55124376  0.09324310  0.80042618  1
  O2-  O170  1  0.58991826  0.44236982  0.28938010  1
  O2-  O171  1  0.56550350  0.44275499  0.76749115  1
  O2-  O172  1  0.57721366  0.78966009  0.27467086  1
  O2-  O173  1  0.54382908  0.76986207  0.79698530  1
  O2-  O174  1  0.89825492  0.12836463  0.27643861  1
  O2-  O175  1  0.91147133  0.11522606  0.80704067  1
  O2-  O176  1  0.88128669  0.37305767  0.26970701  1
  O2-  O177  1  0.89272296  0.44295970  0.76664598  1
  O2-  O178  1  0.89748667  0.79435473  0.27814430  1
  O2-  O179  1  0.88632888  0.77814991  0.77375863  1
  O2-  O180  1  0.26800198  0.05731512  0.42208553  1
  O2-  O181  1  0.28064042  0.10305674  0.93723934  1
  O2-  O182  1  0.16839965  0.41834571  0.44692664  1
  O2-  O183  1  0.21738508  0.49514620  0.96939897  1
  O2-  O184  1  0.25199472  0.78445578  0.48834032  1
  O2-  O185  1  0.24730217  0.80970563  0.98037445  1
  O2-  O186  1  0.57305452  0.08059811  0.49469892  1
  O2-  O187  1  0.54556239  0.14443676  0.98297939  1
  O2-  O188  1  0.55791680  0.46224795  0.47969064  1
  O2-  O189  1  0.57357544  0.40478560  0.95101848  1
  O2-  O190  1  0.58989319  0.78621587  0.45628817  1
  O2-  O191  1  0.55563173  0.77309861  0.97863560  1
  O2-  O192  1  0.89460447  0.10502881  0.45940083  1
  O2-  O193  1  0.89278228  0.11009727  0.97503306  1
  O2-  O194  1  0.88840418  0.43556983  0.45650213  1
  O2-  O195  1  0.88147130  0.42496151  0.95501437  1
  O2-  O196  1  0.90238775  0.78613038  0.45881054  1
  O2-  O197  1  0.88257193  0.77222166  0.96040987  1
  O2-  O198  1  0.05725846  0.32475913  0.05984515  1
  O2-  O199  1  0.09517997  0.20802469  0.54664167  1
  O2-  O200  1  0.08613704  0.59269657  0.04357197  1
  O2-  O201  1  0.11669838  0.56897897  0.53300234  1
  O2-  O202  1  0.10649102  0.89028292  0.01407259  1
  O2-  O203  1  0.12098534  0.88383190  0.52963169  1
  O2-  O204  1  0.48898974  0.20836848  0.01272044  1
  O2-  O205  1  0.46771038  0.21935991  0.49045293  1
  O2-  O206  1  0.42641172  0.56741395  0.03603164  1
  O2-  O207  1  0.45515552  0.57368593  0.53574183  1
  O2-  O208  1  0.46175014  0.89354713  0.05377610  1
  O2-  O209  1  0.45854040  0.88941404  0.56638131  1
  O2-  O210  1  0.77254914  0.21881301  0.04340506  1
  O2-  O211  1  0.79342984  0.21302093  0.52911379  1
  O2-  O212  1  0.78131869  0.54667289  0.02721461  1
  O2-  O213  1  0.77975414  0.55838121  0.51848967  1
  O2-  O214  1  0.77576067  0.88066725  0.02872549  1
  O2-  O215  1  0.78968087  0.88880211  0.50671666  1
