# generated using pymatgen
data_H2O
_symmetry_space_group_name_H-M   'P 1'
_cell_length_a   13.52618461
_cell_length_b   13.52252266
_cell_length_c   14.72756467
_cell_angle_alpha   90.01712435
_cell_angle_beta   90.02184156
_cell_angle_gamma   119.89604961
_symmetry_Int_Tables_number   1
_chemical_formula_structural   H2O
_chemical_formula_sum   'H144 O72'
_cell_volume   2335.33106931
_cell_formula_units_Z   72
loop_
 _symmetry_equiv_pos_site_id
 _symmetry_equiv_pos_as_xyz
  1  'x, y, z'
loop_
 _atom_type_symbol
 _atom_type_oxidation_number
  H+  1.0
  O2-  -2.0
loop_
 _atom_site_type_symbol
 _atom_site_label
 _atom_site_symmetry_multiplicity
 _atom_site_fract_x
 _atom_site_fract_y
 _atom_site_fract_z
 _atom_site_occupancy
  H+  H0  1  0.46610183  0.93754887  0.51444407  1
  H+  H1  1  0.02375639  0.17795280  0.74038267  1
  H+  H2  1  0.82673951  0.47601559  0.74831219  1
  H+  H3  1  0.39182233  0.86181304  0.74613288  1
  H+  H4  1  0.51589612  0.14827171  0.24291492  1
  H+  H5  1  0.18189015  0.47722846  0.26452302  1
  H+  H6  1  1.01950129  0.49974246  1.01884870  1
  H+  H7  1  0.36427616  0.83470888  0.25298413  1
  H+  H8  1  0.95866374  0.13576110  0.98917530  1
  H+  H9  1  0.21320505  0.39388497  1.02405602  1
  H+  H10  1  0.11867505  0.26126508  -0.05554391  1
  H+  H11  1  0.38704355  0.19591632  0.73010688  1
  H+  H12  1  0.86667649  0.69891646  0.27491859  1
  H+  H13  1  0.18485439  0.80271876  0.27459939  1
  H+  H14  1  0.81412319  0.63562360  0.73932592  1
  H+  H15  1  0.80986506  0.16949112  1.01048238  1
  H+  H16  1  0.83262914  0.13119534  0.76290303  1
  H+  H17  1  0.50491996  0.20779472  0.72213110  1
  H+  H18  1  0.22276671  1.02346993  0.76562496  1
  H+  H19  1  0.13990499  0.97446011  0.51140608  1
  H+  H20  1  0.31065637  0.82602619  0.49883665  1
  H+  H21  1  0.21916646  0.83941048  -0.01191999  1
  H+  H22  1  0.80386972  0.91967090  0.24695170  1
  H+  H23  1  0.14246341  0.63126209  0.52474934  1
  H+  H24  1  -0.00812946  0.80978873  0.28637870  1
  H+  H25  1  0.69505209  0.52946291  0.50312282  1
  H+  H26  1  0.52129609  0.36905862  0.76417903  1
  H+  H27  1  0.85835281  0.69238941  0.98193319  1
  H+  H28  1  0.85394018  0.14453806  0.49782664  1
  H+  H29  1  0.77638138  0.58633642  0.13576725  1
  H+  H30  1  0.31330415  0.50050990  0.49116237  1
  H+  H31  1  0.47630990  0.49720881  0.75539853  1
  H+  H32  1  0.82565484  0.95653956  0.01007748  1
  H+  H33  1  -0.02390273  0.14920173  0.50051050  1
  H+  H34  1  0.15968179  0.18125425  -0.01214450  1
  H+  H35  1  0.51351516  0.15730846  1.00294984  1
  H+  H36  1  0.62874311  0.13942732  0.25912130  1
  H+  H37  1  0.06104620  0.54627493  0.76610992  1
  H+  H38  1  0.64403156  0.82574715  0.48038871  1
  H+  H39  1  0.18687017  0.48106890  0.78899004  1
  H+  H40  1  0.82402146  0.97404777  0.51450446  1
  H+  H41  1  0.69116848  0.51943445  0.74350142  1
  H+  H42  1  0.45437174  0.24500850  -0.05129669  1
  H+  H43  1  0.15299653  0.86423454  0.51366286  1
  H+  H44  1  0.20715669  0.72186466  0.75957477  1
  H+  H45  1  0.09932793  0.54163658  0.15999450  1
  H+  H46  1  0.76437114  0.56522529  0.60324086  1
  H+  H47  1  0.81837577  0.28489783  0.50871252  1
  H+  H48  1  0.14066995  0.29295388  0.75238921  1
  H+  H49  1  0.16891034  0.30587895  0.23454007  1
  H+  H50  1  0.40423210  0.86305716  -0.00677874  1
  H+  H51  1  0.14751569  0.52527714  1.02562818  1
  H+  H52  1  0.49908301  0.02250584  0.77686371  1
  H+  H53  1  0.15866238  0.31125545  0.51552790  1
  H+  H54  1  0.88385543  0.07132584  0.35982370  1
  H+  H55  1  0.50877676  0.86180457  0.75901026  1
  H+  H56  1  0.70073741  0.83810294  0.73934800  1
  H+  H57  1  0.14294355  0.61760580  0.25194947  1
  H+  H58  1  0.55069104  0.12219683  0.91157312  1
  H+  H59  1  0.48363288  0.30714047  0.49250083  1
  H+  H60  1  0.39192102  0.53782231  0.02030959  1
  H+  H61  1  0.85372641  0.80986805  0.98463798  1
  H+  H62  1  0.81618892  0.27529106  0.24722125  1
  H+  H63  1  0.18872685  0.15009897  0.25115622  1
  H+  H64  1  0.52902782  0.49600400  0.47381574  1
  H+  H65  1  0.84949426  0.46369930  0.25903919  1
  H+  H66  1  0.51676960  0.36360739  0.24702025  1
  H+  H67  1  0.31416168  0.16246941  0.98990949  1
  H+  H68  1  0.17700231  0.15480803  0.48965462  1
  H+  H69  1  0.70880733  0.51418374  0.00567849  1
  H+  H70  1  0.74303244  0.66808774  0.18876176  1
  H+  H71  1  0.82663194  0.66887780  0.51186241  1
  H+  H72  1  0.47845519  0.95602137  0.24578324  1
  H+  H73  1  0.48441058  0.63774305  0.24650151  1
  H+  H74  1  0.19774119  0.83499009  0.75328069  1
  H+  H75  1  0.96277331  0.46787787  0.49511736  1
  H+  H76  1  0.84632967  0.10501949  0.26993382  1
  H+  H77  1  0.62803138  0.80314743  0.25292509  1
  H+  H78  1  0.16703611  0.97682860  0.25782868  1
  H+  H79  1  0.51093433  0.81274217  0.26103542  1
  H+  H80  1  0.53881833  0.70882770  0.99110074  1
  H+  H81  1  0.90862729  0.43359692  0.71186908  1
  H+  H82  1  0.70973399  0.83885481  0.00291361  1
  H+  H83  1  0.82456988  0.50841506  1.00793511  1
  H+  H84  1  1.03570994  0.85256302  0.74301914  1
  H+  H85  1  0.66901257  0.15078614  0.73913695  1
  H+  H86  1  0.42655084  0.08181622  0.80385162  1
  H+  H87  1  0.52135295  0.37466088  1.00570210  1
  H+  H88  1  0.54534754  0.83197857  0.97824681  1
  H+  H89  1  0.69672449  0.18108935  0.01427568  1
  H+  H90  1  0.48298329  0.51678661  0.24342135  1
  H+  H91  1  0.77845715  0.27170394  0.74557584  1
  H+  H92  1  0.44828180  0.11447231  0.46816754  1
  H+  H93  1  0.30612841  0.91770394  0.44402452  1
  H+  H94  1  0.84296124  0.01875490  0.75996780  1
  H+  H95  1  0.84993077  0.81193084  0.75316565  1
  H+  H96  1  0.51682250  0.69084567  0.76269321  1
  H+  H97  1  0.81676977  0.85186616  0.51185372  1
  H+  H98  1  0.30495086  0.48649545  0.26257962  1
  H+  H99  1  0.23025190  0.45499939  0.40549613  1
  H+  H100  1  0.50832952  0.65752109  0.48994201  1
  H+  H101  1  0.62961047  0.48944502  0.24413809  1
  H+  H102  1  0.97066770  0.47028729  0.26089567  1
  H+  H103  1  0.03068259  0.84742436  -0.01741837  1
  H+  H104  1  0.48028443  0.82961048  0.50498488  1
  H+  H105  1  0.96786479  0.81430948  0.50747119  1
  H+  H106  1  0.18929521  0.04099653  0.97395308  1
  H+  H107  1  0.36669600  0.18488978  0.22794953  1
  H+  H108  1  0.76864695  0.86278057  0.14912129  1
  H+  H109  1  0.77563260  0.20083963  0.15837148  1
  H+  H110  1  0.51960113  -0.01903140  0.99944318  1
  H+  H111  1  0.29766071  0.46990624  0.79041785  1
  H+  H112  1  0.13866720  0.88225610  0.18096555  1
  H+  H113  1  0.23729582  0.45723638  0.92964311  1
  H+  H114  1  0.22289581  0.11489282  0.34596016  1
  H+  H115  1  0.87774238  0.09468337  0.90197847  1
  H+  H116  1  0.26537022  0.10827877  0.85171459  1
  H+  H117  1  0.12808147  0.23183512  0.14390271  1
  H+  H118  1  0.43949949  0.22596368  0.13634945  1
  H+  H119  1  0.15882999  0.52328534  0.52106105  1
  H+  H120  1  0.88785916  0.42638369  0.40606917  1
  H+  H121  1  0.57082875  0.77003304  0.85105607  1
  H+  H122  1  0.44747998  0.23570039  0.58404202  1
  H+  H123  1  0.88035161  0.42425230  0.89944582  1
  H+  H124  1  0.09552723  0.92048260  0.06627964  1
  H+  H125  1  0.22856234  0.77076348  0.36053703  1
  H+  H126  1  0.77068389  0.20145165  0.59361603  1
  H+  H127  1  0.89666305  0.76807910  0.41224983  1
  H+  H128  1  0.77808982  0.88446006  0.64939665  1
  H+  H129  1  0.56419129  0.78139113  0.38787038  1
  H+  H130  1  0.88858287  0.77046405  0.84213711  1
  H+  H131  1  0.25780091  0.80965006  0.89670386  1
  H+  H132  1  0.55763934  0.44371616  0.85884462  1
  H+  H133  1  0.49986392  0.59275931  0.58076404  1
  H+  H134  1  0.53246717  0.49856607  1.00164810  1
  H+  H135  1  0.48596818  0.06945542  0.38201074  1
  H+  H136  1  0.12236617  0.56014142  0.66988299  1
  H+  H137  1  0.39730704  0.49695245  0.67462045  1
  H+  H138  1  0.56882839  0.45049850  0.38837029  1
  H+  H139  1  0.29326520  0.15276310  0.48586387  1
  H+  H140  1  0.46804105  0.57285047  0.10830878  1
  H+  H141  1  0.11775156  0.23094616  0.60426851  1
  H+  H142  1  0.84223746  0.34648362  -0.01067725  1
  H+  H143  1  0.11141308  0.89736985  0.65338967  1
  O2-  O144  1  0.14036196  0.22831446  0.20884758  1
  O2-  O145  1  0.10348260  0.22090408  0.71798455  1
  O2-  O146  1  0.10205938  0.53736139  0.22899367  1
  O2-  O147  1  0.13418097  0.56745896  0.73736597  1
  O2-  O148  1  0.12886956  0.89069971  0.24528965  1
  O2-  O149  1  0.11612727  0.89459776  0.72099770  1
  O2-  O150  1  0.44595199  0.22754412  0.20336808  1
  O2-  O151  1  0.46444455  0.24857039  0.70259688  1
  O2-  O152  1  0.44359783  0.55741419  0.22034217  1
  O2-  O153  1  0.42815419  0.53123804  0.73363300  1
  O2-  O154  1  0.44419812  0.87361088  0.23174072  1
  O2-  O155  1  0.47575686  0.90959861  0.74027453  1
  O2-  O156  1  0.77229258  0.19527233  0.22573735  1
  O2-  O157  1  0.75006108  0.19320514  0.72332532  1
  O2-  O158  1  0.75736557  0.60430207  0.19759798  1
  O2-  O159  1  0.76863380  0.55475210  0.71483099  1
  O2-  O160  1  0.75587429  0.84483817  0.21493299  1
  O2-  O161  1  0.78182920  0.88115795  0.71747204  1
  O2-  O162  1  0.22685791  0.10856660  0.27848629  1
  O2-  O163  1  0.29020781  0.09090546  0.79257389  1
  O2-  O164  1  0.22647049  0.44201388  0.28887586  1
  O2-  O165  1  0.21877372  0.43519828  0.81545338  1
  O2-  O166  1  0.21794141  0.75500446  0.29381555  1
  O2-  O167  1  0.24634204  0.80354688  0.77564307  1
  O2-  O168  1  0.54564843  0.10329676  0.27382468  1
  O2-  O169  1  0.50700568  0.09984084  0.79762555  1
  O2-  O170  1  0.55465954  0.44218891  0.27440999  1
  O2-  O171  1  0.55684015  0.44821591  0.79081779  1
  O2-  O172  1  0.55005643  0.76828047  0.28230977  1
  O2-  O173  1  0.56669417  0.77024106  0.78207887  1
  O2-  O174  1  0.87345568  0.05468901  0.29374717  1
  O2-  O175  1  0.87889382  0.09790586  0.78573387  1
  O2-  O176  1  0.88838356  0.42513678  0.28293110  1
  O2-  O177  1  0.86559235  0.43125488  0.76574545  1
  O2-  O178  1  0.91656352  0.76242096  0.31561898  1
  O2-  O179  1  0.88932551  0.76927231  0.77392816  1
  O2-  O180  1  0.21212494  0.11000635  0.46514237  1
  O2-  O181  1  0.23037535  0.12380746  0.95996700  1
  O2-  O182  1  0.23177913  0.46078052  0.47382610  1
  O2-  O183  1  0.24806993  0.47039254  0.99688161  1
  O2-  O184  1  0.25152984  0.83770501  0.46419331  1
  O2-  O185  1  0.26521742  0.80824647  0.96357080  1
  O2-  O186  1  0.44227596  0.04511938  0.44001483  1
  O2-  O187  1  0.56321508  0.12685368  0.97861099  1
  O2-  O188  1  0.57050032  0.45482329  0.45670960  1
  O2-  O189  1  0.56687122  0.45238315  0.97761813  1
  O2-  O190  1  0.56401830  0.77983519  0.45738062  1
  O2-  O191  1  0.58266956  0.78388192  0.95990361  1
  O2-  O192  1  0.89570951  0.10221246  0.47971378  1
  O2-  O193  1  0.87751526  0.09464520  0.97028790  1
  O2-  O194  1  0.88376999  0.42392804  0.47326807  1
  O2-  O195  1  0.88140679  0.42770988  0.96604572  1
  O2-  O196  1  0.88712594  0.77115049  0.48284368  1
  O2-  O197  1  0.89492191  0.77167673  0.95682704  1
  O2-  O198  1  0.11512358  0.22316916  0.00156726  1
  O2-  O199  1  0.11992078  0.23066015  0.53591263  1
  O2-  O200  1  0.09254966  0.54520747  0.05150456  1
  O2-  O201  1  0.11394844  0.55543462  0.55088748  1
  O2-  O202  1  0.11040353  0.89788849  0.00744294  1
  O2-  O203  1  0.10328382  0.89463321  0.53644101  1
  O2-  O204  1  0.43435780  0.22377165  0.01216035  1
  O2-  O205  1  0.43627327  0.22878774  0.51703154  1
  O2-  O206  1  0.47326238  0.57383347  0.03995673  1
  O2-  O207  1  0.47193091  0.57635737  0.51845889  1
  O2-  O208  1  0.48744058  0.89774602  0.00653840  1
  O2-  O209  1  0.43390438  0.85823903  0.53565637  1
  O2-  O210  1  0.77839439  0.21685506  0.03517424  1
  O2-  O211  1  0.78139250  0.20302222  0.52756438  1
  O2-  O212  1  0.79019048  0.55599353  0.02663405  1
  O2-  O213  1  0.77157395  0.57608431  0.53512097  1
  O2-  O214  1  0.78980483  0.87484559  0.02890432  1
  O2-  O215  1  0.77577887  0.89070323  0.53398745  1
