# generated using pymatgen
data_H2O
_symmetry_space_group_name_H-M   'P 1'
_cell_length_a   13.50525693
_cell_length_b   13.51146384
_cell_length_c   14.71072436
_cell_angle_alpha   90.00104702
_cell_angle_beta   89.97860950
_cell_angle_gamma   120.00913778
_symmetry_Int_Tables_number   1
_chemical_formula_structural   H2O
_chemical_formula_sum   'H144 O72'
_cell_volume   2324.50191887
_cell_formula_units_Z   72
loop_
 _symmetry_equiv_pos_site_id
 _symmetry_equiv_pos_as_xyz
  1  'x, y, z'
loop_
 _atom_type_symbol
 _atom_type_oxidation_number
  H+  1.0
  O2-  -2.0
loop_
 _atom_site_type_symbol
 _atom_site_label
 _atom_site_symmetry_multiplicity
 _atom_site_fract_x
 _atom_site_fract_y
 _atom_site_fract_z
 _atom_site_occupancy
  H+  H0  1  0.19543866  0.49270182  0.48550115  1
  H+  H1  1  0.20295325  0.36902887  0.25546971  1
  H+  H2  1  0.98036422  0.80681856  0.75925015  1
  H+  H3  1  0.31640445  0.49452846  0.26055572  1
  H+  H4  1  0.19103614  0.70012514  0.49787867  1
  H+  H5  1  0.15329701  1.00486662  0.75237207  1
  H+  H6  1  0.54276917  0.38794292  0.80767760  1
  H+  H7  1  0.81435013  0.17744542  0.73417679  1
  H+  H8  1  0.16471441  0.02413471  1.00049872  1
  H+  H9  1  0.53478656  0.49453835  0.27203498  1
  H+  H10  1  0.48652978  0.96725084  0.51164249  1
  H+  H11  1  0.84652916  0.47888233  0.75700066  1
  H+  H12  1  0.12564550  0.49326125  0.01887754  1
  H+  H13  1  0.69641789  0.18583005  0.49860200  1
  H+  H14  1  0.63975456  0.47868673  0.49338051  1
  H+  H15  1  0.50653603  0.66545505  0.25893332  1
  H+  H16  1  0.94237017  0.43413603  0.27339031  1
  H+  H17  1  0.18087110  0.68987969  0.00017500  1
  H+  H18  1  0.80675349  0.82131618  0.00605826  1
  H+  H19  1  0.85751611  0.22406043  0.02720186  1
  H+  H20  1  0.65455670  0.94951823  0.71711064  1
  H+  H21  1  0.84141229  0.37042509  0.99496948  1
  H+  H22  1  0.82077661  0.64278057  0.50311318  1
  H+  H23  1  0.86353307  0.38264283  0.48726370  1
  H+  H24  1  0.64983423  0.50886417  0.01906882  1
  H+  H25  1  0.29287835  0.13879299  0.26145098  1
  H+  H26  1  0.27033712  0.45296669  0.99207141  1
  H+  H27  1  0.86868423  1.03249659  0.74470470  1
  H+  H28  1  0.34643568  0.16750423  0.49664435  1
  H+  H29  1  0.83655185  0.65262704  0.24252848  1
  H+  H30  1  0.85016181  0.16139722  0.48823460  1
  H+  H31  1  0.18500023  0.08819111  0.90401410  1
  H+  H32  1  0.27359814  0.11677346  0.75626756  1
  H+  H33  1  0.85354471  0.69346678  0.00001263  1
  H+  H34  1  0.83428404  -0.01179156  0.50113203  1
  H+  H35  1  0.71261784  0.52685313  0.74307482  1
  H+  H36  1  0.52300487  0.48040975  0.48353619  1
  H+  H37  1  1.01630546  0.50856998  1.01712477  1
  H+  H38  1  0.04525638  0.52250706  0.50815069  1
  H+  H39  1  0.79950088  0.93448027  -0.00143185  1
  H+  H40  1  0.36810168  0.84855345  0.51462278  1
  H+  H41  1  0.16245421  0.67975071  0.73806459  1
  H+  H42  1  0.83467116  0.63882278  0.74265721  1
  H+  H43  1  0.12923376  0.16141946  1.00552685  1
  H+  H44  1  0.99572727  0.83758660  0.25816550  1
  H+  H45  1  0.47231879  0.50018195  0.02639122  1
  H+  H46  1  0.28705880  0.48814693  0.79703622  1
  H+  H47  1  0.48322490  0.30267748  0.24512881  1
  H+  H48  1  0.50694980  0.13776726  0.48055307  1
  H+  H49  1  0.36535045  0.47619449  0.69269845  1
  H+  H50  1  0.56517617  0.76975666  0.77827964  1
  H+  H51  1  0.86687567  0.81035515  0.75972501  1
  H+  H52  1  0.16009439  0.31128248  0.50032430  1
  H+  H53  1  0.48141176  0.85163323  0.02214467  1
  H+  H54  1  0.44607018  0.82261270  0.75085201  1
  H+  H55  1  0.86253668  0.82663288  0.47849825  1
  H+  H56  1  0.61546218  0.78550937  0.99151585  1
  H+  H57  1  0.83238033  1.03011513  0.25519189  1
  H+  H58  1  0.14587844  0.16888804  0.73287712  1
  H+  H59  1  0.55616283  0.11046729  0.39156212  1
  H+  H60  1  0.17971437  0.69217829  0.26505719  1
  H+  H61  1  0.81320835  0.51896863  0.02025613  1
  H+  H62  1  0.45292483  0.89681198  0.16320900  1
  H+  H63  1  0.74177963  0.85388734  0.71484005  1
  H+  H64  1  0.81091518  0.18400566  0.23992906  1
  H+  H65  1  0.51426696  0.15840103  0.25658497  1
  H+  H66  1  0.13893480  0.83302106  0.72429949  1
  H+  H67  1  0.16687196  0.18751821  0.24180054  1
  H+  H68  1  0.49086555  0.67478218  0.00687313  1
  H+  H69  1  1.01789840  0.49676478  0.73869808  1
  H+  H70  1  0.37552897  0.52607717  0.49006324  1
  H+  H71  1  0.13440731  0.49410238  0.74559496  1
  H+  H72  1  0.51774260  0.04086072  0.25629617  1
  H+  H73  1  0.56930586  0.44091824  0.35338394  1
  H+  H74  1  0.44836098  0.22710878  0.15496015  1
  H+  H75  1  0.65679506  0.94231307  0.76773059  1
  H+  H76  1  0.17885083  0.14712648  0.47864272  1
  H+  H77  1  0.50746601  0.19874443  0.01847759  1
  H+  H78  1  0.97920002  0.15435046  0.75186301  1
  H+  H79  1  0.83914090  0.35623841  0.75984983  1
  H+  H80  1  0.50340333  0.97947692  0.02305852  1
  H+  H81  1  0.14881343  0.86119742  0.24543995  1
  H+  H82  1  1.03241114  0.84571392  0.49881596  1
  H+  H83  1  0.36641040  0.85103025  0.24953578  1
  H+  H84  1  0.71977068  0.53100622  0.24534657  1
  H+  H85  1  0.70079019  0.85144024  0.23946353  1
  H+  H86  1  0.14613403  0.50887778  0.24720056  1
  H+  H87  1  0.69289736  0.17148507  0.74003077  1
  H+  H88  1  0.16897671  0.01336949  0.25773315  1
  H+  H89  1  0.45170695  0.60014291  0.73730975  1
  H+  H90  1  0.27744762  0.80213070  0.74531886  1
  H+  H91  1  0.65303643  0.15924455  0.99159475  1
  H+  H92  1  0.57456013  0.48165842  0.92870430  1
  H+  H93  1  0.52727408  0.82986080  0.49767993  1
  H+  H94  1  0.50725873  0.13205356  0.75830341  1
  H+  H95  1  0.86558870  0.50078249  0.49267356  1
  H+  H96  1  0.52219274  0.48570850  0.76719006  1
  H+  H97  1  -0.02824924  0.16519612  0.48380653  1
  H+  H98  1  1.04342828  0.85192332  1.02715719  1
  H+  H99  1  0.50913569  0.31766075  1.02285170  1
  H+  H100  1  0.01079359  0.16371481  0.01415704  1
  H+  H101  1  0.51880440  0.83422817  0.26607710  1
  H+  H102  1  0.15438874  0.29218604  0.74032983  1
  H+  H103  1  0.86668552  0.82585278  0.25990197  1
  H+  H104  1  0.20056678  0.81317527  0.00018314  1
  H+  H105  1  0.47070335  0.28264790  0.50551621  1
  H+  H106  1  0.44263795  0.25746825  0.71653189  1
  H+  H107  1  0.70001354  0.19891225  0.23620738  1
  H+  H108  1  0.23315841  0.45158160  0.39487213  1
  H+  H109  1  0.87985549  0.09034926  0.88489594  1
  H+  H110  1  0.51009403  0.01755389  0.76725958  1
  H+  H111  1  0.38649055  0.50126418  0.10159048  1
  H+  H112  1  0.09420881  0.54064392  0.16334491  1
  H+  H113  1  0.21408481  0.10139907  0.38848558  1
  H+  H114  1  0.46105917  0.56473419  0.57462223  1
  H+  H115  1  0.56791420  0.11461105  0.90566214  1
  H+  H116  1  0.19140168  0.41510870  0.86643097  1
  H+  H117  1  0.11717646  0.22928072  0.58761395  1
  H+  H118  1  0.77005371  0.22387642  0.58979768  1
  H+  H119  1  0.86969408  0.10917885  0.34386188  1
  H+  H120  1  0.53165739  0.71389916  0.48496212  1
  H+  H121  1  0.11983975  0.54953551  0.59760444  1
  H+  H122  1  0.78730840  0.23578335  0.11101606  1
  H+  H123  1  0.51329433  0.60283591  0.17196424  1
  H+  H124  1  0.87826646  0.44507870  0.90356870  1
  H+  H125  1  0.90114107  0.78328668  0.38986400  1
  H+  H126  1  0.14914382  0.96610820  0.50103085  1
  H+  H127  1  0.11731425  0.90000521  0.11843087  1
  H+  H128  1  0.43864095  0.88117321  0.65768088  1
  H+  H129  1  0.56867324  0.80226126  0.35487476  1
  H+  H130  1  0.77326318  0.87793617  0.14829560  1
  H+  H131  1  0.79426578  0.08423761  0.96056735  1
  H+  H132  1  0.15131862  0.33190557  0.99564126  1
  H+  H133  1  0.49988377  0.72446362  0.86965115  1
  H+  H134  1  0.81771082  0.90067160  0.62767173  1
  H+  H135  1  0.09815493  0.88126910  0.64048859  1
  H+  H136  1  0.12363796  0.22679239  0.15491948  1
  H+  H137  1  0.78624206  0.56740270  0.59458525  1
  H+  H138  1  0.78782981  0.56798212  0.11509581  1
  H+  H139  1  0.71637757  0.86708680  0.50542424  1
  H+  H140  1  0.18780499  0.81770379  0.49431073  1
  H+  H141  1  0.41595578  0.17780029  0.63326377  1
  H+  H142  1  0.89835078  0.77017395  0.90922734  1
  H+  H143  1  0.22475748  0.77278728  0.35193787  1
  O2-  O144  1  0.14549800  0.24428268  0.21933626  1
  O2-  O145  1  0.11303268  0.21697301  0.70959131  1
  O2-  O146  1  0.09695736  0.54167017  0.23128862  1
  O2-  O147  1  0.09822372  0.53328071  0.71516035  1
  O2-  O148  1  0.10837060  0.90085341  0.22514933  1
  O2-  O149  1  0.09845358  0.87824004  0.70867904  1
  O2-  O150  1  0.44103815  0.22218973  0.22345983  1
  O2-  O151  1  0.41664446  0.17787427  0.70259181  1
  O2-  O152  1  0.47749890  0.58554151  0.23189948  1
  O2-  O153  1  0.44576409  0.53300993  0.70226424  1
  O2-  O154  1  0.44944802  0.89545259  0.23228906  1
  O2-  O155  1  0.42982819  0.88047361  0.72547479  1
  O2-  O156  1  0.77978153  0.23277693  0.21194334  1
  O2-  O157  1  0.77234540  0.21697301  0.71546983  1
  O2-  O158  1  0.79582421  0.57355614  0.21628527  1
  O2-  O159  1  0.78942814  0.55909731  0.71591301  1
  O2-  O160  1  0.78026722  0.88710053  0.21532386  1
  O2-  O161  1  0.82181997  0.89619292  0.69733992  1
  O2-  O162  1  0.21306843  0.10028269  0.28446873  1
  O2-  O163  1  0.19359868  0.08647152  0.77589875  1
  O2-  O164  1  0.23635039  0.45054458  0.28070823  1
  O2-  O165  1  0.20757047  0.42716619  0.79739135  1
  O2-  O166  1  0.22596283  0.77358188  0.28445250  1
  O2-  O167  1  0.19333253  0.76236100  0.74933390  1
  O2-  O168  1  0.56018857  0.12226423  0.27731467  1
  O2-  O169  1  0.55326763  0.10039762  0.78453229  1
  O2-  O170  1  0.56975868  0.44705094  0.28561248  1
  O2-  O171  1  0.57504025  0.47046120  0.80430522  1
  O2-  O172  1  0.56296302  0.79524456  0.28718171  1
  O2-  O173  1  0.48835291  0.71717399  0.80034150  1
  O2-  O174  1  0.85595401  0.10794684  0.27770272  1
  O2-  O175  1  0.89745106  0.10910426  0.77311835  1
  O2-  O176  1  0.86674747  0.38830764  0.30497166  1
  O2-  O177  1  0.88218883  0.43599904  0.78388919  1
  O2-  O178  1  0.90845501  0.78855378  0.28383152  1
  O2-  O179  1  0.90026376  0.76662511  0.78701344  1
  O2-  O180  1  0.21673971  0.10374866  0.45910781  1
  O2-  O181  1  0.18656413  0.09959368  0.97023294  1
  O2-  O182  1  0.23774919  0.45355638  0.46338374  1
  O2-  O183  1  0.18992057  0.41422866  0.97103524  1
  O2-  O184  1  0.23286742  0.78087815  0.47511195  1
  O2-  O185  1  0.22651999  0.76473157  0.97061426  1
  O2-  O186  1  0.55325975  0.10332816  0.46011453  1
  O2-  O187  1  0.57149760  0.11800673  0.97316540  1
  O2-  O188  1  0.55871307  0.43285244  0.47116877  1
  O2-  O189  1  0.56706548  0.47088492  0.99511477  1
  O2-  O190  1  0.57377930  0.79752972  0.47141330  1
  O2-  O191  1  0.53242605  0.74877882  0.97419145  1
  O2-  O192  1  0.88954862  0.11943711  0.46639061  1
  O2-  O193  1  0.86348405  0.07950311  0.95253859  1
  O2-  O194  1  0.91304611  0.46574025  0.47793068  1
  O2-  O195  1  0.87863980  0.45028618  0.97123268  1
  O2-  O196  1  0.89718462  0.78005933  0.45983921  1
  O2-  O197  1  0.89231529  0.77423454  0.97631997  1
  O2-  O198  1  0.09187327  0.20749105  0.03112754  1
  O2-  O199  1  0.11569722  0.22946148  0.52005610  1
  O2-  O200  1  0.09298529  0.53795790  0.04553537  1
  O2-  O201  1  0.12728446  0.55857583  0.53030226  1
  O2-  O202  1  0.12290004  0.89869862  0.04845230  1
  O2-  O203  1  0.11158733  0.88627594  0.52573737  1
  O2-  O204  1  0.46859581  0.23793483  0.04433449  1
  O2-  O205  1  0.42635804  0.20080843  0.52373310  1
  O2-  O206  1  0.41482180  0.52662428  0.03998522  1
  O2-  O207  1  0.45954479  0.56746623  0.50786292  1
  O2-  O208  1  0.47064651  0.90693144  0.05756541  1
  O2-  O209  1  0.44878937  0.88891081  0.53927373  1
  O2-  O210  1  0.79375016  0.23653543  0.03991808  1
  O2-  O211  1  0.77634318  0.22705284  0.52264716  1
  O2-  O212  1  0.77808631  0.56342856  0.04446163  1
  O2-  O213  1  0.77981614  0.56250812  0.52717708  1
  O2-  O214  1  0.75822432  0.85629656  0.02418180  1
  O2-  O215  1  0.79885610  0.90609374  0.52323681  1
