# generated using pymatgen
data_H2O
_symmetry_space_group_name_H-M   'P 1'
_cell_length_a   13.53530610
_cell_length_b   13.55077441
_cell_length_c   14.71264858
_cell_angle_alpha   90.00335504
_cell_angle_beta   89.98888556
_cell_angle_gamma   120.05290223
_symmetry_Int_Tables_number   1
_chemical_formula_structural   H2O
_chemical_formula_sum   'H144 O72'
_cell_volume   2335.72614527
_cell_formula_units_Z   72
loop_
 _symmetry_equiv_pos_site_id
 _symmetry_equiv_pos_as_xyz
  1  'x, y, z'
loop_
 _atom_type_symbol
 _atom_type_oxidation_number
  H+  1.0
  O2-  -2.0
loop_
 _atom_site_type_symbol
 _atom_site_label
 _atom_site_symmetry_multiplicity
 _atom_site_fract_x
 _atom_site_fract_y
 _atom_site_fract_z
 _atom_site_occupancy
  H+  H0  1  0.46781874  0.51451844  0.20073411  1
  H+  H1  1  0.81790834  0.95598436  0.22206986  1
  H+  H2  1  0.67809120  0.82446174  0.48041754  1
  H+  H3  1  0.80253048  0.16525120  0.01437521  1
  H+  H4  1  0.76427377  0.54735409  0.33676486  1
  H+  H5  1  0.50421568  0.15995002  0.76096918  1
  H+  H6  1  0.49093216  0.77310893  0.98431945  1
  H+  H7  1  0.04667927  0.17159483  0.51012682  1
  H+  H8  1  0.52109620  0.48607990  0.77384679  1
  H+  H9  1  0.51660447  0.36427624  -0.00726347  1
  H+  H10  1  0.85609403  0.34901846  0.99707064  1
  H+  H11  1  0.18496945  0.36108554  0.49110191  1
  H+  H12  1  0.37853398  0.52143662  0.75989338  1
  H+  H13  1  0.64021733  0.15240131  0.26542741  1
  H+  H14  1  0.84556116  0.78449318  0.00761971  1
  H+  H15  1  0.18933393  0.50079720  0.77426104  1
  H+  H16  1  0.83677140  0.33986969  0.76533473  1
  H+  H17  1  0.15841767  0.31157094  0.24143082  1
  H+  H18  1  0.83831543  1.01906129  -0.01502219  1
  H+  H19  1  0.50779353  0.66638634  -0.02358520  1
  H+  H20  1  0.12939093  0.79550183  0.34605354  1
  H+  H21  1  0.17611194  0.15444726  -0.01119260  1
  H+  H22  1  0.86421939  0.50088971  0.49017305  1
  H+  H23  1  0.51537277  0.48470096  0.51166890  1
  H+  H24  1  0.52761054  0.82637120  0.75630287  1
  H+  H25  1  0.84096378  0.80753767  0.48324508  1
  H+  H26  1  0.48815518  0.50014910  -0.00775849  1
  H+  H27  1  0.07667829  0.20508186  0.73002290  1
  H+  H28  1  0.81752038  0.49904973  0.75397225  1
  H+  H29  1  0.36609272  0.17112763  0.23242090  1
  H+  H30  1  -0.02468512  0.47094991  -0.00933510  1
  H+  H31  1  0.13743255  0.84620817  0.74536821  1
  H+  H32  1  0.62152353  0.15354490  0.75648701  1
  H+  H33  1  0.02822522  0.51024596  0.51373255  1
  H+  H34  1  0.84526880  1.00566809  0.49229845  1
  H+  H35  1  0.35098524  0.83085503  0.52628977  1
  H+  H36  1  0.48460535  0.30320182  0.75533706  1
  H+  H37  1  0.82241535  0.63808156  0.26029770  1
  H+  H38  1  0.04230060  0.19064627  0.23254669  1
  H+  H39  1  0.49805363  0.63082381  0.48049699  1
  H+  H40  1  0.31368606  0.82696952  -0.00521667  1
  H+  H41  1  0.53202276  0.80297489  0.44507093  1
  H+  H42  1  0.81009417  0.15259363  0.51614293  1
  H+  H43  1  0.48701603  0.97246187  0.75557612  1
  H+  H44  1  0.17985816  1.03915016  0.25089152  1
  H+  H45  1  0.81744558  0.61873703  0.75247901  1
  H+  H46  1  0.48311813  0.63131362  0.23911033  1
  H+  H47  1  0.84716830  0.81259796  0.24851263  1
  H+  H48  1  0.70259780  0.51522043  0.53340049  1
  H+  H49  1  0.19201995  0.71163491  1.00723565  1
  H+  H50  1  0.01809103  0.86365141  0.21731086  1
  H+  H51  1  0.74585270  0.86087620  0.58056154  1
  H+  H52  1  0.74616281  0.11526499  0.73282496  1
  H+  H53  1  0.19783232  0.17022757  0.48397186  1
  H+  H54  1  0.12939416  0.85822213  0.22017965  1
  H+  H55  1  0.54668545  0.93168455  -0.00912540  1
  H+  H56  1  -0.04109770  0.13719601  -0.00192718  1
  H+  H57  1  0.81956922  0.30366361  0.24426146  1
  H+  H58  1  0.30174943  0.16333454  -0.01443786  1
  H+  H59  1  -0.02798348  0.48059371  0.24673291  1
  H+  H60  1  0.56668443  0.44397443  0.90434101  1
  H+  H61  1  0.40606847  0.86122186  0.21674508  1
  H+  H62  1  0.14427606  0.50042006  0.52050891  1
  H+  H63  1  0.02544338  0.85496821  0.73929758  1
  H+  H64  1  0.84541373  0.69191173  0.49128099  1
  H+  H65  1  0.19269486  0.16254299  0.25505082  1
  H+  H66  1  0.17812422  0.66129648  0.51559210  1
  H+  H67  1  0.15931850  0.69131823  0.76960052  1
  H+  H68  1  0.47894126  0.18979364  0.99443416  1
  H+  H69  1  0.70064853  0.83432214  0.22938262  1
  H+  H70  1  0.54265459  0.81783295  0.24744715  1
  H+  H71  1  0.69234565  0.18237779  1.00871971  1
  H+  H72  1  0.71226309  0.87357198  0.77534341  1
  H+  H73  1  0.85717213  0.76778885  0.68196240  1
  H+  H74  1  0.13087115  0.29028203  0.01513055  1
  H+  H75  1  0.02795194  0.82048668  0.45174438  1
  H+  H76  1  0.85634465  0.48331701  0.26340977  1
  H+  H77  1  0.48706540  0.28424654  0.21446426  1
  H+  H78  1  0.26217607  0.45714600  1.03796961  1
  H+  H79  1  0.13399915  0.63525412  0.22378019  1
  H+  H80  1  0.17816745  0.48479427  0.25518441  1
  H+  H81  1  0.24331151  0.82508353  0.29428287  1
  H+  H82  1  0.17734083  0.17757568  0.72361491  1
  H+  H83  1  0.90647094  0.20059311  0.76723813  1
  H+  H84  1  0.63919463  0.47535783  0.22303066  1
  H+  H85  1  0.76821480  0.22215629  0.15609431  1
  H+  H86  1  0.84940707  0.67336318  0.03200242  1
  H+  H87  1  0.12747525  0.57800443  -0.05406873  1
  H+  H88  1  0.50419441  1.02092964  0.49584934  1
  H+  H89  1  0.90570635  0.46062975  0.40132060  1
  H+  H90  1  0.17902246  1.01868812  0.75367701  1
  H+  H91  1  0.29594411  0.48511175  0.26332951  1
  H+  H92  1  0.84107015  0.82144276  0.76992047  1
  H+  H93  1  0.51402802  0.98466911  0.23442043  1
  H+  H94  1  0.14126348  0.81585288  0.47547578  1
  H+  H95  1  0.89293575  0.11100740  0.15014871  1
  H+  H96  1  0.15864072  0.47962707  1.00888370  1
  H+  H97  1  0.17601333  0.00485664  0.99715399  1
  H+  H98  1  0.68946151  0.83344860  0.99777259  1
  H+  H99  1  0.69256420  0.15549794  0.51294654  1
  H+  H100  1  0.17780844  0.87401639  1.00641158  1
  H+  H101  1  0.51604577  0.14068918  0.25772083  1
  H+  H102  1  0.47231656  0.84475500  0.54687146  1
  H+  H103  1  0.01882538  0.50083971  0.74813992  1
  H+  H104  1  0.63751195  0.47868044  0.76914444  1
  H+  H105  1  0.51208723  0.05692756  0.97924274  1
  H+  H106  1  0.48119695  0.29167980  0.52455254  1
  H+  H107  1  0.70251096  0.49507817  0.02045241  1
  H+  H108  1  0.23731807  0.12815799  0.38890724  1
  H+  H109  1  0.55636899  0.13230189  0.88871760  1
  H+  H110  1  0.47833324  0.17159498  0.50277955  1
  H+  H111  1  0.84825400  0.15365079  0.22957013  1
  H+  H112  1  0.13476375  0.21921426  0.59625881  1
  H+  H113  1  0.81759187  0.49163820  1.01771453  1
  H+  H114  1  0.89480532  0.09283205  0.41032428  1
  H+  H115  1  0.10965973  0.21195264  0.10047669  1
  H+  H116  1  0.36699755  0.18291574  0.74451269  1
  H+  H117  1  0.55716163  0.77191337  0.84034664  1
  H+  H118  1  0.54992713  0.09698432  0.40498920  1
  H+  H119  1  0.89213508  0.78230988  0.34028514  1
  H+  H120  1  0.48632551  0.91633837  0.08724426  1
  H+  H121  1  0.20575690  0.77608868  0.85389928  1
  H+  H122  1  0.76523588  0.19095380  0.64358161  1
  H+  H123  1  0.43413619  0.20945913  0.08939376  1
  H+  H124  1  0.37514762  0.51761613  0.49731493  1
  H+  H125  1  0.53308385  0.43791594  0.28336580  1
  H+  H126  1  0.33384471  0.17051079  0.48466961  1
  H+  H127  1  0.43797996  0.89046065  0.67140438  1
  H+  H128  1  0.49859202  0.63305534  0.74505231  1
  H+  H129  1  0.38267757  0.50379541  0.94899943  1
  H+  H130  1  0.10104310  0.54610390  0.66192280  1
  H+  H131  1  0.11234640  0.56338180  0.13292249  1
  H+  H132  1  0.23655756  0.72986676  0.42482903  1
  H+  H133  1  0.21257279  0.44537447  0.86069549  1
  H+  H134  1  0.11391424  0.90971646  0.08809036  1
  H+  H135  1  0.77044147  0.87408714  0.08521267  1
  H+  H136  1  0.21299980  0.44178853  0.40457838  1
  H+  H137  1  0.79386585  0.55639572  0.61185377  1
  H+  H138  1  0.56612614  0.43250718  0.44168607  1
  H+  H139  1  0.88224600  0.41632860  0.85632374  1
  H+  H140  1  0.21909820  0.10482808  0.84011012  1
  H+  H141  1  0.57759205  0.76794716  0.33793390  1
  H+  H142  1  0.92143378  0.14327088  0.85598692  1
  H+  H143  1  0.83785899  0.98961597  0.76979196  1
  O2-  O144  1  0.12524412  0.23065493  0.21855523  1
  O2-  O145  1  0.14672097  0.22480160  0.69584928  1
  O2-  O146  1  0.10898115  0.55818264  0.20033385  1
  O2-  O147  1  0.10010749  0.54922736  0.72966869  1
  O2-  O148  1  0.09943051  0.90650190  0.19493137  1
  O2-  O149  1  0.10615905  0.89393751  0.72010217  1
  O2-  O150  1  0.44399104  0.19953635  0.20597229  1
  O2-  O151  1  0.45006391  0.22485348  0.72954822  1
  O2-  O152  1  0.42622388  0.54969250  0.22642160  1
  O2-  O153  1  0.45816767  0.54913137  0.73927124  1
  O2-  O154  1  0.48607522  0.90902950  0.20057079  1
  O2-  O155  1  0.45993827  0.89303004  0.73547795  1
  O2-  O156  1  0.77408862  0.22144448  0.22405020  1
  O2-  O157  1  0.76264850  0.19122730  0.71468461  1
  O2-  O158  1  0.77734833  0.55273203  0.27133484  1
  O2-  O159  1  0.77903214  0.53960288  0.72843778  1
  O2-  O160  1  0.78199022  0.87494603  0.20427451  1
  O2-  O161  1  0.79643554  0.90820143  0.78487016  1
  O2-  O162  1  0.22920194  0.11750656  0.27598541  1
  O2-  O163  1  0.22638219  0.10260711  0.77359608  1
  O2-  O164  1  0.21324115  0.44300454  0.28299654  1
  O2-  O165  1  0.24207864  0.47714564  0.80047614  1
  O2-  O166  1  0.16134445  0.77368778  0.28975300  1
  O2-  O167  1  0.19354695  0.77235168  0.78808340  1
  O2-  O168  1  0.55790143  0.10363643  0.28415986  1
  O2-  O169  1  0.54517664  0.11666566  0.78513998  1
  O2-  O170  1  0.55388552  0.42959354  0.22167332  1
  O2-  O171  1  0.55957185  0.44169955  0.79593650  1
  O2-  O172  1  0.57526316  0.77001457  0.26526154  1
  O2-  O173  1  0.57038582  0.78559816  0.77401428  1
  O2-  O174  1  0.89134664  0.11190963  0.21667518  1
  O2-  O175  1  0.93771026  0.15360382  0.78952109  1
  O2-  O176  1  0.89598745  0.43982108  0.27732987  1
  O2-  O177  1  0.87832227  0.41889617  0.78771157  1
  O2-  O178  1  0.89355938  0.77859846  0.27253234  1
  O2-  O179  1  0.86941610  0.76876742  0.74722127  1
  O2-  O180  1  0.24311473  0.13356560  0.45720815  1
  O2-  O181  1  0.21962150  0.11740272  0.96475948  1
  O2-  O182  1  0.21844263  0.44251948  0.47213290  1
  O2-  O183  1  0.19331477  0.42464309  1.00039897  1
  O2-  O184  1  0.22741327  0.74328780  0.48859729  1
  O2-  O185  1  0.23109654  0.79344281  0.98600032  1
  O2-  O186  1  0.54881604  0.10061475  0.47254383  1
  O2-  O187  1  0.55835758  0.13674891  0.95891394  1
  O2-  O188  1  0.55864630  0.43825550  0.50689524  1
  O2-  O189  1  0.56369041  0.44527337  0.97345446  1
  O2-  O190  1  0.57573251  0.76477951  0.43565796  1
  O2-  O191  1  0.54454725  0.75105460  0.96070886  1
  O2-  O192  1  0.89424258  0.08957236  0.47645260  1
  O2-  O193  1  0.87914269  0.10432533  0.97441269  1
  O2-  O194  1  0.91133687  0.46856195  0.46817244  1
  O2-  O195  1  0.89386227  0.42524769  0.96772821  1
  O2-  O196  1  0.88060572  0.76721770  0.45942521  1
  O2-  O197  1  0.89787323  0.75707023  1.02331505  1
  O2-  O198  1  0.09845419  0.20700199  0.03317990  1
  O2-  O199  1  0.12884610  0.21897538  0.52490482  1
  O2-  O200  1  0.11544079  0.55983296  0.01071799  1
  O2-  O201  1  0.10578433  0.54147454  0.54553261  1
  O2-  O202  1  0.13866346  0.91940669  0.02135932  1
  O2-  O203  1  0.10783553  0.84699179  0.43251709  1
  O2-  O204  1  0.43281849  0.22172558  0.02253490  1
  O2-  O205  1  0.43194975  0.20708280  0.52131016  1
  O2-  O206  1  0.43696540  0.53546998  -0.00081656  1
  O2-  O207  1  0.45790478  0.55346109  0.50955337  1
  O2-  O208  1  0.47406561  0.91258288  0.01950227  1
  O2-  O209  1  0.43174222  0.88722802  0.54684463  1
  O2-  O210  1  0.76687739  0.20861279  0.04012690  1
  O2-  O211  1  0.76903407  0.18956861  0.54167686  1
  O2-  O212  1  0.77647680  0.52299302  0.05196628  1
  O2-  O213  1  0.78682601  0.55969827  0.54410893  1
  O2-  O214  1  0.76958137  0.88256336  0.01801063  1
  O2-  O215  1  0.76193452  0.86976221  0.51552986  1
