# generated using pymatgen
data_H2O
_symmetry_space_group_name_H-M   'P 1'
_cell_length_a   13.53387796
_cell_length_b   13.52261989
_cell_length_c   14.69290478
_cell_angle_alpha   89.95620047
_cell_angle_beta   90.00280486
_cell_angle_gamma   120.06053125
_symmetry_Int_Tables_number   1
_chemical_formula_structural   H2O
_chemical_formula_sum   'H144 O72'
_cell_volume   2327.31951086
_cell_formula_units_Z   72
loop_
 _symmetry_equiv_pos_site_id
 _symmetry_equiv_pos_as_xyz
  1  'x, y, z'
loop_
 _atom_type_symbol
 _atom_type_oxidation_number
  H+  1.0
  O2-  -2.0
loop_
 _atom_site_type_symbol
 _atom_site_label
 _atom_site_symmetry_multiplicity
 _atom_site_fract_x
 _atom_site_fract_y
 _atom_site_fract_z
 _atom_site_occupancy
  H+  H0  1  0.02140491  0.17732187  0.24717867  1
  H+  H1  1  0.47349213  0.85402837  0.23834822  1
  H+  H2  1  0.46593248  0.84562351  0.50735981  1
  H+  H3  1  0.48016207  0.97075487  0.51200781  1
  H+  H4  1  0.15366830  0.62734731  0.24391028  1
  H+  H5  1  0.83934103  0.51422585  0.51338701  1
  H+  H6  1  0.49426455  0.69279616  0.25228418  1
  H+  H7  1  0.62886072  0.82973855  0.99791742  1
  H+  H8  1  0.47645057  0.29890606  0.50104857  1
  H+  H9  1  0.50313611  0.81964008  0.76604629  1
  H+  H10  1  0.03207991  0.51031085  0.24369114  1
  H+  H11  1  0.17978710  0.01435321  1.00473093  1
  H+  H12  1  0.14734700  0.19096884  0.49836604  1
  H+  H13  1  0.14086260  0.63316789  0.74465437  1
  H+  H14  1  0.63193351  0.48649280  0.75397858  1
  H+  H15  1  0.35720251  0.84710183  0.01260220  1
  H+  H16  1  0.45886548  0.62571809  0.50926175  1
  H+  H17  1  0.85282750  0.71921272  0.97312252  1
  H+  H18  1  0.22531605  0.76733107  0.90520904  1
  H+  H19  1  0.81429073  0.85695536  0.74469083  1
  H+  H20  1  0.78415124  0.89406275  0.52739044  1
  H+  H21  1  0.83305707  0.62288953  0.23765001  1
  H+  H22  1  0.35968029  0.51894694  0.74379580  1
  H+  H23  1  0.49968940  0.47819271  0.49168870  1
  H+  H24  1  0.17620460  0.03587917  0.48005630  1
  H+  H25  1  0.85338744  0.36375341  0.49091818  1
  H+  H26  1  0.22494847  0.45315771  0.84981243  1
  H+  H27  1  0.15125303  0.12329171  0.76559559  1
  H+  H28  1  0.71699194  0.50435134  0.23301672  1
  H+  H29  1  0.61478784  0.14625590  0.99586593  1
  H+  H30  1  0.59569368  0.79114202  0.47406501  1
  H+  H31  1  0.47893990  0.63456627  0.74333117  1
  H+  H32  1  0.14981255  0.51877846  0.51243817  1
  H+  H33  1  0.17245715  0.81799203  0.48809380  1
  H+  H34  1  0.29376521  0.13994808  -0.00232552  1
  H+  H35  1  0.84405407  0.83194424  0.97601635  1
  H+  H36  1  0.18434146  0.49448696  0.76320125  1
  H+  H37  1  0.81581666  0.30569669  0.25034382  1
  H+  H38  1  0.18370295  0.35545614  0.99274524  1
  H+  H39  1  0.45388219  0.22273668  0.64117537  1
  H+  H40  1  0.81459455  -0.01216627  1.02361130  1
  H+  H41  1  0.29320140  0.82222870  0.49544029  1
  H+  H42  1  0.48742274  0.18709617  0.23993834  1
  H+  H43  1  0.13694388  0.29804029  0.24448376  1
  H+  H44  1  0.86755181  0.07495210  0.49053746  1
  H+  H45  1  0.33853668  0.50831949  0.24793156  1
  H+  H46  1  0.14903713  0.50420013  1.01195467  1
  H+  H47  1  0.69477928  0.18427005  0.73948754  1
  H+  H48  1  0.29916578  0.81194929  0.76401530  1
  H+  H49  1  0.15829840  0.82748096  0.23691042  1
  H+  H50  1  0.18291761  0.81365904  0.76653594  1
  H+  H51  1  0.45430117  0.50979224  0.26412219  1
  H+  H52  1  0.88345866  0.79179686  0.83687716  1
  H+  H53  1  0.81930431  0.52012810  0.74530810  1
  H+  H54  1  0.89606494  0.44414670  0.35404001  1
  H+  H55  1  0.43109930  0.55511279  0.09995881  1
  H+  H56  1  0.80006201  0.56580197  0.08790807  1
  H+  H57  1  0.50213860  0.30638711  0.01072476  1
  H+  H58  1  -0.03796043  0.83062043  0.74687580  1
  H+  H59  1  0.84177365  0.36549770  0.75966342  1
  H+  H60  1  0.81997406  0.63953891  0.73731308  1
  H+  H61  1  0.61024397  0.81825802  0.25564820  1
  H+  H62  1  0.51430055  0.76287610  0.38907830  1
  H+  H63  1  0.51711965  0.15476736  0.74973435  1
  H+  H64  1  0.16272223  0.84889413  0.01181042  1
  H+  H65  1  0.47799103  0.97095676  0.74116890  1
  H+  H66  1  0.48100149  0.85851987  0.01537923  1
  H+  H67  1  -0.00605789  0.16662788  -0.00009794  1
  H+  H68  1  -0.03043339  0.47000602  -0.00862385  1
  H+  H69  1  0.01802652  0.83826917  0.49848812  1
  H+  H70  1  0.15596296  0.97316303  0.74719939  1
  H+  H71  1  0.51188491  0.48145403  0.76053867  1
  H+  H72  1  0.14754350  0.63699885  0.51293446  1
  H+  H73  1  0.83353506  0.77453787  0.47332786  1
  H+  H74  1  0.80347712  0.29630564  0.01057824  1
  H+  H75  1  0.15185851  0.16450350  1.01843017  1
  H+  H76  1  0.20113959  0.17780035  0.25911986  1
  H+  H77  1  0.48288968  0.17093310  0.01611663  1
  H+  H78  1  0.47047726  0.63876480  0.01543633  1
  H+  H79  1  0.84245560  0.15502310  0.26886877  1
  H+  H80  1  0.02873763  0.17751826  0.73209563  1
  H+  H81  1  0.64581289  0.46981360  0.98819943  1
  H+  H82  1  0.88220967  0.80240557  0.26367657  1
  H+  H83  1  0.85497505  0.66680779  0.49303548  1
  H+  H84  1  0.84529610  0.04068123  0.77636488  1
  H+  H85  1  -0.02469046  0.48260561  0.49262568  1
  H+  H86  1  0.56649164  0.49196312  0.20942271  1
  H+  H87  1  0.63816002  0.15226483  0.49280945  1
  H+  H88  1  0.49222476  0.30033309  0.73076862  1
  H+  H89  1  0.18647428  0.68764438  0.99440567  1
  H+  H90  1  0.29685941  0.47921697  0.99388721  1
  H+  H91  1  0.10676079  0.20760998  0.64373228  1
  H+  H92  1  1.03076576  0.19870971  0.49738365  1
  H+  H93  1  0.17087821  0.47832951  0.26126451  1
  H+  H94  1  0.51064297  0.03817558  0.26150480  1
  H+  H95  1  0.86015823  0.48172455  0.25997559  1
  H+  H96  1  0.56310396  0.42132296  0.89993596  1
  H+  H97  1  0.78635709  0.17102832  0.02142168  1
  H+  H98  1  -0.03813644  0.48340788  0.76096948  1
  H+  H99  1  0.82955452  0.19728754  0.50058236  1
  H+  H100  1  0.77799656  0.86338839  0.27333544  1
  H+  H101  1  0.81551679  0.18959205  0.74319022  1
  H+  H102  1  0.30446397  0.81131139  0.26498331  1
  H+  H103  1  0.63066638  0.15685553  0.26448810  1
  H+  H104  1  0.12055913  0.88022375  0.10285204  1
  H+  H105  1  0.17267301  0.36575476  0.49013564  1
  H+  H106  1  0.83277716  0.52669663  0.99785024  1
  H+  H107  1  0.88982946  0.43343894  0.90126042  1
  H+  H108  1  0.21085650  0.44104894  0.35303535  1
  H+  H109  1  0.52428852  0.36646499  0.24503516  1
  H+  H110  1  0.49594622  0.02520983  0.99570330  1
  H+  H111  1  0.76719112  0.22728535  0.16111487  1
  H+  H112  1  0.45250351  0.22499255  0.11446883  1
  H+  H113  1  0.09652598  0.88698077  0.58772206  1
  H+  H114  1  0.43477346  0.89864478  0.15238271  1
  H+  H115  1  0.54702993  0.78663166  0.91013072  1
  H+  H116  1  0.48153792  0.18196454  0.50242875  1
  H+  H117  1  0.88770009  0.12588576  0.36504822  1
  H+  H118  1  0.90083465  0.13207322  0.85539547  1
  H+  H119  1  0.11036393  0.54712650  0.09984237  1
  H+  H120  1  0.55609723  0.11141787  0.40542565  1
  H+  H121  1  0.43217265  0.55320316  0.60263990  1
  H+  H122  1  1.03784507  0.81593823  0.23831237  1
  H+  H123  1  0.77288582  0.91960406  0.67360408  1
  H+  H124  1  0.93675007  0.23592650  0.97029826  1
  H+  H125  1  0.80353366  -0.00881473  0.26011271  1
  H+  H126  1  0.71515422  0.77513521  0.57682046  1
  H+  H127  1  0.18849891  0.08508321  0.86110825  1
  H+  H128  1  0.29151255  0.48329361  0.49292288  1
  H+  H129  1  0.77374300  0.90599490  0.10876757  1
  H+  H130  1  0.22295880  0.76760365  0.35401488  1
  H+  H131  1  0.62193323  0.82165539  0.77191191  1
  H+  H132  1  0.55224140  0.45141671  0.40530658  1
  H+  H133  1  0.10210789  0.55552937  0.65462379  1
  H+  H134  1  0.89505416  0.74622480  0.35776769  1
  H+  H135  1  0.43697117  0.88896343  0.65338252  1
  H+  H136  1  0.78218668  0.22779413  0.59311703  1
  H+  H137  1  0.54549555  0.11167439  0.84362244  1
  H+  H138  1  0.24530541  0.14182201  0.34740902  1
  H+  H139  1  0.22273679  0.94121822  0.67517284  1
  H+  H140  1  0.37132883  0.19998947  0.23974730  1
  H+  H141  1  0.29777654  0.15070271  0.48840116  1
  H+  H142  1  0.80058514  0.56003564  0.60254287  1
  H+  H143  1  0.11140662  0.21106228  0.10579978  1
  O2-  O144  1  0.10044239  0.21776064  0.22146489  1
  O2-  O145  1  0.10473270  0.19533524  0.71051572  1
  O2-  O146  1  0.11153135  0.54785396  0.21804011  1
  O2-  O147  1  0.09703308  0.55258727  0.72257535  1
  O2-  O148  1  0.11501799  0.86345046  0.21309853  1
  O2-  O149  1  0.14848825  0.90412268  0.70533621  1
  O2-  O150  1  0.45366509  0.23190541  0.21153470  1
  O2-  O151  1  0.46148960  0.22107855  0.70849731  1
  O2-  O152  1  0.42275372  0.54946272  0.22940804  1
  O2-  O153  1  0.44110355  0.55587286  0.71842588  1
  O2-  O154  1  0.43741131  0.90009682  0.22069517  1
  O2-  O155  1  0.43657340  0.88855088  0.72153518  1
  O2-  O156  1  0.76871388  0.22425230  0.22849036  1
  O2-  O157  1  0.77550379  0.22831202  0.71727556  1
  O2-  O158  1  0.79580504  0.54507066  0.20854429  1
  O2-  O159  1  0.78011541  0.55879581  0.71689313  1
  O2-  O160  1  0.75569056  0.90728008  0.23468464  1
  O2-  O161  1  0.76799769  0.89711357  0.73701835  1
  O2-  O162  1  0.25992803  0.16014965  0.28118512  1
  O2-  O163  1  0.17390204  0.07013986  0.79504859  1
  O2-  O164  1  0.21121864  0.43746100  0.28441887  1
  O2-  O165  1  0.23488894  0.46540620  0.78323783  1
  O2-  O166  1  0.22454576  0.75973022  0.28645553  1
  O2-  O167  1  0.21953947  0.76996608  0.78901702  1
  O2-  O168  1  0.54896839  0.11840509  0.28530302  1
  O2-  O169  1  0.55295431  0.10958650  0.77688541  1
  O2-  O170  1  0.56843408  0.45019270  0.26294709  1
  O2-  O171  1  0.55414342  0.44227937  0.78071319  1
  O2-  O172  1  0.52898025  0.77310469  0.27557921  1
  O2-  O173  1  0.54158746  0.77920120  0.79274557  1
  O2-  O174  1  0.87900926  0.11169386  0.29196764  1
  O2-  O175  1  0.88753955  0.12387714  0.78864682  1
  O2-  O176  1  0.89746940  0.43970317  0.28547529  1
  O2-  O177  1  0.88190773  0.44448098  0.78626297  1
  O2-  O178  1  0.89942081  0.74580161  0.28717468  1
  O2-  O179  1  0.88232580  0.79017827  0.76657975  1
  O2-  O180  1  0.21909179  0.11739309  0.46173523  1
  O2-  O181  1  0.21282275  0.09783797  0.98076679  1
  O2-  O182  1  0.21222392  0.44780590  0.46753574  1
  O2-  O183  1  0.21534197  0.43548801  0.97172452  1
  O2-  O184  1  0.21393346  0.77686913  0.47066533  1
  O2-  O185  1  0.22895380  0.76882927  0.97322273  1
  O2-  O186  1  0.55593582  0.10881014  0.47327455  1
  O2-  O187  1  0.53414637  0.10772181  0.97359806  1
  O2-  O188  1  0.53843889  0.43643723  0.47035867  1
  O2-  O189  1  0.56813199  0.41142713  0.96703531  1
  O2-  O190  1  0.51520147  0.76192570  0.45757524  1
  O2-  O191  1  0.54776777  0.78928544  0.97834743  1
  O2-  O192  1  0.90243362  0.14852960  0.46021088  1
  O2-  O193  1  0.91733619  0.15606072  0.97466113  1
  O2-  O194  1  0.89604002  0.44459849  0.46672870  1
  O2-  O195  1  0.88823152  0.42809434  0.96961255  1
  O2-  O196  1  0.88869078  0.74959659  0.45918726  1
  O2-  O197  1  0.87591167  0.79209346  0.94144787  1
  O2-  O198  1  0.11383652  0.20989466  0.03763240  1
  O2-  O199  1  0.11114357  0.23331282  0.52404443  1
  O2-  O200  1  0.10831969  0.54575171  0.03176883  1
  O2-  O201  1  0.10792238  0.55708584  0.53690706  1
  O2-  O202  1  0.12680769  0.89211325  0.03491542  1
  O2-  O203  1  0.09881892  0.88725754  0.52026119  1
  O2-  O204  1  0.45119248  0.22233501  0.04137104  1
  O2-  O205  1  0.43630142  0.21742558  0.52318150  1
  O2-  O206  1  0.42957610  0.55705181  0.03305520  1
  O2-  O207  1  0.42760788  0.54738681  0.53422069  1
  O2-  O208  1  0.43785893  0.89708633  0.03629716  1
  O2-  O209  1  0.43323539  0.89027151  0.53520712  1
  O2-  O210  1  0.75239591  0.21789505  0.03807188  1
  O2-  O211  1  0.77982937  0.22982877  0.52558769  1
  O2-  O212  1  0.79357435  0.56737705  0.02046604  1
  O2-  O213  1  0.80673361  0.56261780  0.53475396  1
  O2-  O214  1  0.77452441  0.90705449  0.04119869  1
  O2-  O215  1  0.73101305  0.81297025  0.51765346  1
