# generated using pymatgen
data_H2O
_symmetry_space_group_name_H-M   'P 1'
_cell_length_a   13.53204686
_cell_length_b   13.51877053
_cell_length_c   14.70132866
_cell_angle_alpha   90.04364474
_cell_angle_beta   89.96377665
_cell_angle_gamma   119.95921617
_symmetry_Int_Tables_number   1
_chemical_formula_structural   H2O
_chemical_formula_sum   'H144 O72'
_cell_volume   2330.05459313
_cell_formula_units_Z   72
loop_
 _symmetry_equiv_pos_site_id
 _symmetry_equiv_pos_as_xyz
  1  'x, y, z'
loop_
 _atom_type_symbol
 _atom_type_oxidation_number
  H+  1.0
  O2-  -2.0
loop_
 _atom_site_type_symbol
 _atom_site_label
 _atom_site_symmetry_multiplicity
 _atom_site_fract_x
 _atom_site_fract_y
 _atom_site_fract_z
 _atom_site_occupancy
  H+  H0  1  0.12209348  0.91210338  1.08653867  1
  H+  H1  1  0.24717779  0.65640242  0.71584254  1
  H+  H2  1  0.64129516  0.48267769  -0.02090407  1
  H+  H3  1  0.18054495  1.04215602  0.75332860  1
  H+  H4  1  0.04403849  0.84768497  0.23079970  1
  H+  H5  1  0.28922787  0.82680960  1.00441814  1
  H+  H6  1  0.36460695  0.84746531  0.74558001  1
  H+  H7  1  0.82076436  0.62459029  1.01222335  1
  H+  H8  1  0.01896427  0.86082715  0.74885837  1
  H+  H9  1  0.86641948  0.11860786  0.89734340  1
  H+  H10  1  0.98419176  0.46354178  0.79019656  1
  H+  H11  1  0.84918510  0.81196397  -0.00072617  1
  H+  H12  1  0.03643774  0.87235922  0.00603923  1
  H+  H13  1  0.45634301  0.87919335  0.02477228  1
  H+  H14  1  0.48936099  0.60690241  0.00628757  1
  H+  H15  1  0.67928552  0.17307778  0.23120520  1
  H+  H16  1  0.18121161  0.35777967  0.26248400  1
  H+  H17  1  0.61342084  0.15235125  0.72530997  1
  H+  H18  1  0.47998736  0.83907552  0.24529129  1
  H+  H19  1  0.51416160  1.04920970  0.00686671  1
  H+  H20  1  0.03734204  0.50656566  0.76568911  1
  H+  H21  1  0.85179350  0.70545478  0.24420195  1
  H+  H22  1  0.60348825  0.46870264  0.50066056  1
  H+  H23  1  0.14463541  0.29464850  0.76650066  1
  H+  H24  1  0.12946745  0.62844227  0.50762941  1
  H+  H25  1  0.80397697  0.91374608  0.66725926  1
  H+  H26  1  0.13860687  0.87220117  0.73042180  1
  H+  H27  1  0.15531791  0.72986929  0.77444319  1
  H+  H28  1  0.64628831  0.13140847  0.99396239  1
  H+  H29  1  0.23415786  0.44704418  0.85714542  1
  H+  H30  1  0.82438829  -0.01755859  0.76257196  1
  H+  H31  1  0.20862180  0.76799944  0.40416692  1
  H+  H32  1  0.84274624  0.13559418  0.48559107  1
  H+  H33  1  0.54150455  0.78527391  0.97318909  1
  H+  H34  1  0.96532966  0.14099023  0.48563823  1
  H+  H35  1  -0.03278486  0.46242296  0.00469937  1
  H+  H36  1  0.86409833  0.51386018  0.26230245  1
  H+  H37  1  0.48174208  0.29459875  0.25432810  1
  H+  H38  1  0.50153820  1.03433161  0.74029231  1
  H+  H39  1  0.29644022  0.14906089  0.47619896  1
  H+  H40  1  0.85969242  1.02890514  0.25477693  1
  H+  H41  1  0.13485785  0.28911766  0.49712033  1
  H+  H42  1  1.03255202  0.17681395  0.78926950  1
  H+  H43  1  0.16215118  0.96444892  0.23640929  1
  H+  H44  1  0.29941778  0.47669054  0.99696955  1
  H+  H45  1  0.43004313  0.21882618  0.59255671  1
  H+  H46  1  0.50846214  0.02943442  0.49146438  1
  H+  H47  1  0.18272248  0.68970542  0.26702042  1
  H+  H48  1  0.84368622  0.26072876  0.01497348  1
  H+  H49  1  0.50507921  0.84239322  0.99019806  1
  H+  H50  1  0.55431855  0.44032339  0.83854966  1
  H+  H51  1  0.14044959  0.85507925  0.49189830  1
  H+  H52  1  0.35123035  0.18989061  0.72819736  1
  H+  H53  1  0.48726728  0.64391146  0.50858079  1
  H+  H54  1  0.51104285  0.30840142  0.02328834  1
  H+  H55  1  0.35919427  0.50600215  0.24295359  1
  H+  H56  1  0.03833940  0.52650604  0.24929400  1
  H+  H57  1  0.76748626  0.62023911  0.52654472  1
  H+  H58  1  0.31810876  0.47513492  0.77047535  1
  H+  H59  1  0.35728130  0.83264584  0.25707044  1
  H+  H60  1  0.83549498  0.96932672  0.51623490  1
  H+  H61  1  0.47599089  0.17983826  0.50536186  1
  H+  H62  1  0.18474800  0.48610466  -0.00204299  1
  H+  H63  1  0.79512926  0.50459021  0.74980564  1
  H+  H64  1  0.69064175  0.17654234  0.49566998  1
  H+  H65  1  0.83072778  0.47643135  0.49652237  1
  H+  H66  1  0.50847449  0.36133972  0.74664346  1
  H+  H67  1  0.54178646  0.20966971  0.03152068  1
  H+  H68  1  0.64365354  0.82489438  0.75374619  1
  H+  H69  1  0.21734454  0.43961006  0.35067767  1
  H+  H70  1  0.67495620  0.82469055  0.49684092  1
  H+  H71  1  0.43609256  0.81755622  0.51457271  1
  H+  H72  1  0.04100576  0.17957300  0.24932439  1
  H+  H73  1  0.84189536  0.85369845  0.51801170  1
  H+  H74  1  0.81746663  0.84785345  0.22864392  1
  H+  H75  1  0.13961555  0.17411121  0.48865061  1
  H+  H76  1  0.14633364  0.97819990  0.48160474  1
  H+  H77  1  0.28572363  0.48794348  0.49471077  1
  H+  H78  1  0.20412945  0.11075464  0.99036170  1
  H+  H79  1  0.83838301  0.69776484  0.76565127  1
  H+  H80  1  0.69554728  0.51990346  0.24353419  1
  H+  H81  1  0.49586329  0.51861077  0.73402281  1
  H+  H82  1  0.80899227  0.29680777  0.49704013  1
  H+  H83  1  0.76553818  0.14385394  0.71107059  1
  H+  H84  1  0.51798440  0.47241648  0.98156030  1
  H+  H85  1  0.46596362  0.22885572  0.16139909  1
  H+  H86  1  0.78093541  0.31949660  0.77250448  1
  H+  H87  1  0.81745568  0.50312962  1.01980395  1
  H+  H88  1  0.48611095  0.35223966  0.49112907  1
  H+  H89  1  0.18252288  0.16014951  0.76211967  1
  H+  H90  1  0.18385471  0.14765254  0.24957038  1
  H+  H91  1  0.15110882  0.51091633  0.24685796  1
  H+  H92  1  0.46931528  0.51800137  0.50775930  1
  H+  H93  1  0.80644882  0.97777990  0.01513314  1
  H+  H94  1  0.98701739  0.83472978  0.46891362  1
  H+  H95  1  0.95125885  0.48037395  0.49945391  1
  H+  H96  1  0.16397844  0.47942323  0.48875603  1
  H+  H97  1  0.88198133  0.18448793  0.80232529  1
  H+  H98  1  0.70980363  0.84519420  0.99842720  1
  H+  H99  1  0.84182966  0.81863157  0.77272691  1
  H+  H100  1  0.63843723  0.81184577  0.24710808  1
  H+  H101  1  0.13818526  0.62638320  1.02317165  1
  H+  H102  1  0.58975362  0.86517288  0.47082872  1
  H+  H103  1  0.27730078  0.81108328  0.49779769  1
  H+  H104  1  0.21294992  0.52646576  0.72637899  1
  H+  H105  1  0.13382177  0.29724951  1.01839934  1
  H+  H106  1  0.89198140  0.70453462  0.44785467  1
  H+  H107  1  0.30354833  0.14794171  0.25030726  1
  H+  H108  1  0.76727180  0.21611185  0.62414378  1
  H+  H109  1  0.52781286  0.70019108  0.74713246  1
  H+  H110  1  0.42927758  0.87749688  0.60488918  1
  H+  H111  1  0.76973799  0.55228856  0.15152309  1
  H+  H112  1  0.48272509  0.84275351  0.74107089  1
  H+  H113  1  0.54755080  0.44233416  0.35449953  1
  H+  H114  1  0.89765953  0.79087563  0.32867076  1
  H+  H115  1  0.41885518  0.90292163  0.12359551  1
  H+  H116  1  0.10936491  0.54973377  0.11305224  1
  H+  H117  1  0.47925269  0.62356012  0.23847660  1
  H+  H118  1  0.22320448  0.11184074  0.38260410  1
  H+  H119  1  0.54299912  0.10294996  0.39901542  1
  H+  H120  1  0.88028026  0.76816228  0.90980962  1
  H+  H121  1  0.44237236  0.53527958  0.09925378  1
  H+  H122  1  0.11157626  0.22743447  0.15746000  1
  H+  H123  1  0.49694555  1.01864261  0.26878385  1
  H+  H124  1  0.89591979  0.46755987  0.35130065  1
  H+  H125  1  0.44718267  0.55948438  0.65013813  1
  H+  H126  1  0.87332475  0.41071694  0.92394337  1
  H+  H127  1  0.49837634  0.13977585  0.26745438  1
  H+  H128  1  0.77320642  0.88879530  0.14402905  1
  H+  H129  1  0.11969780  0.55418838  0.59353525  1
  H+  H130  1  0.22487214  0.80864258  0.85425228  1
  H+  H131  1  0.76373946  0.18556606  0.15308843  1
  H+  H132  1  0.46868486  0.18614551  0.72355007  1
  H+  H133  1  0.00511877  0.19614250  0.03391667  1
  H+  H134  1  0.18493729  0.81071582  0.26369686  1
  H+  H135  1  0.75600062  0.54325863  0.61079590  1
  H+  H136  1  0.57703839  0.74418763  0.88407800  1
  H+  H137  1  0.89464306  0.09778046  0.34750835  1
  H+  H138  1  0.27650975  0.72974527  0.94082053  1
  H+  H139  1  0.25470236  0.15139359  0.89506921  1
  H+  H140  1  0.70876265  0.33837358  0.84587152  1
  H+  H141  1  0.51118535  0.47721517  0.26216879  1
  H+  H142  1  0.68466106  0.51297963  0.74034839  1
  H+  H143  1  0.57099407  0.77297601  0.34028849  1
  O2-  O144  1  0.12207295  0.22564287  0.22587250  1
  O2-  O145  1  0.09998074  0.21273875  0.74974077  1
  O2-  O146  1  0.11864259  0.55821389  0.22319717  1
  O2-  O147  1  0.20655858  0.58296966  0.68547872  1
  O2-  O148  1  0.12667713  0.88281215  0.21601650  1
  O2-  O149  1  0.09346067  0.90912635  0.71869965  1
  O2-  O150  1  0.44211766  0.21600687  0.22865850  1
  O2-  O151  1  0.43311348  0.23239582  0.70283970  1
  O2-  O152  1  0.43904230  0.54245291  0.21795823  1
  O2-  O153  1  0.45583172  0.56209158  0.71771331  1
  O2-  O154  1  0.43639517  0.87876755  0.23113597  1
  O2-  O155  1  0.44018585  0.87981891  0.71574616  1
  O2-  O156  1  0.75237938  0.22709161  0.20274458  1
  O2-  O157  1  0.76091520  0.21104615  0.69394146  1
  O2-  O158  1  0.77478912  0.56418659  0.21889204  1
  O2-  O159  1  0.76837983  0.55331776  0.72125366  1
  O2-  O160  1  0.77021145  0.88341443  0.21208987  1
  O2-  O161  1  0.78910543  0.90548538  0.73390382  1
  O2-  O162  1  0.22167883  0.10358804  0.27071044  1
  O2-  O163  1  0.23152620  0.12387634  0.77179384  1
  O2-  O164  1  0.22151123  0.44079849  0.28275893  1
  O2-  O165  1  0.23691168  0.44111873  0.78902091  1
  O2-  O166  1  0.22233492  0.76979553  0.29243230  1
  O2-  O167  1  0.22200073  0.80448437  0.78603057  1
  O2-  O168  1  0.53669110  0.09805001  0.29300655  1
  O2-  O169  1  0.53568099  0.11700737  0.75070860  1
  O2-  O170  1  0.55563632  0.44242046  0.28710243  1
  O2-  O171  1  0.55448427  0.44282539  0.76972918  1
  O2-  O172  1  0.55848942  0.76992421  0.27400703  1
  O2-  O173  1  0.56203060  0.77954392  0.77325045  1
  O2-  O174  1  0.90850287  0.10564454  0.28106720  1
  O2-  O175  1  0.87349594  0.11331538  0.82596567  1
  O2-  O176  1  0.92011910  0.49503823  0.28865728  1
  O2-  O177  1  0.78303905  0.37709376  0.81585387  1
  O2-  O178  1  0.89737367  0.78858119  0.26084109  1
  O2-  O179  1  0.87898317  0.77487361  0.79375536  1
  O2-  O180  1  0.21743972  0.11086933  0.45110266  1
  O2-  O181  1  0.26531863  0.17718171  0.95900943  1
  O2-  O182  1  0.20845979  0.44268306  0.46829994  1
  O2-  O183  1  0.22141726  0.44513048  0.97037130  1
  O2-  O184  1  0.19922323  0.76753735  0.47237629  1
  O2-  O185  1  0.23281010  0.76476110  0.96239219  1
  O2-  O186  1  0.54967156  0.10855820  0.46864610  1
  O2-  O187  1  0.57119199  0.12032023  0.97667055  1
  O2-  O188  1  0.52640708  0.43563295  0.47314390  1
  O2-  O189  1  0.56465375  0.44477617  0.94966584  1
  O2-  O190  1  0.59634757  0.79658195  0.46864107  1
  O2-  O191  1  0.57989032  0.73843518  0.95190172  1
  O2-  O192  1  0.88052398  0.09154105  0.46864361  1
  O2-  O193  1  0.86433954  0.12486662  0.99727877  1
  O2-  O194  1  0.87219345  0.43871013  0.47341463  1
  O2-  O195  1  0.88454397  0.41168837  0.99022052  1
  O2-  O196  1  0.89929377  0.77994427  0.44756763  1
  O2-  O197  1  0.88162140  0.76450043  0.97771444  1
  O2-  O198  1  0.08600715  0.22564452  0.05176725  1
  O2-  O199  1  0.09319005  0.20699697  0.51220532  1
  O2-  O200  1  0.10531823  0.54667755  0.04392305  1
  O2-  O201  1  0.09083952  0.54760561  0.53005824  1
  O2-  O202  1  0.11475878  0.93043488  0.02299573  1
  O2-  O203  1  0.09821777  0.89654286  0.50226672  1
  O2-  O204  1  0.52142668  0.25995491  0.06741666  1
  O2-  O205  1  0.43162310  0.21743353  0.52350749  1
  O2-  O206  1  0.43932354  0.52899492  0.03135615  1
  O2-  O207  1  0.43778791  0.56604470  0.53221222  1
  O2-  O208  1  0.41080396  0.91327165  0.05652709  1
  O2-  O209  1  0.42279328  0.87801212  0.53616569  1
  O2-  O210  1  0.79551984  0.17684712  0.02640946  1
  O2-  O211  1  0.77149091  0.21541110  0.51821685  1
  O2-  O212  1  0.77538106  0.54374251  0.03426786  1
  O2-  O213  1  0.74689366  0.54202812  0.54217359  1
  O2-  O214  1  0.78323765  0.89633584  0.02950719  1
  O2-  O215  1  0.80062986  0.88999851  0.54482777  1
