# generated using pymatgen
data_H2O
_symmetry_space_group_name_H-M   'P 1'
_cell_length_a   13.50595145
_cell_length_b   13.50598811
_cell_length_c   14.68253694
_cell_angle_alpha   89.92109733
_cell_angle_beta   90.08297838
_cell_angle_gamma   120.02758781
_symmetry_Int_Tables_number   1
_chemical_formula_structural   H2O
_chemical_formula_sum   'H144 O72'
_cell_volume   2318.79259187
_cell_formula_units_Z   72
loop_
 _symmetry_equiv_pos_site_id
 _symmetry_equiv_pos_as_xyz
  1  'x, y, z'
loop_
 _atom_type_symbol
 _atom_type_oxidation_number
  H+  1.0
  O2-  -2.0
loop_
 _atom_site_type_symbol
 _atom_site_label
 _atom_site_symmetry_multiplicity
 _atom_site_fract_x
 _atom_site_fract_y
 _atom_site_fract_z
 _atom_site_occupancy
  H+  H0  1  0.29258145  0.84296535  0.26121978  1
  H+  H1  1  0.69533902  0.17204734  0.51572427  1
  H+  H2  1  0.49019940  0.18385746  0.51527908  1
  H+  H3  1  0.96595120  0.47716328  0.98566305  1
  H+  H4  1  0.81833148  0.18133737  0.25488030  1
  H+  H5  1  0.47660262  0.51441698  0.74429127  1
  H+  H6  1  0.64798893  0.52133538  0.97719296  1
  H+  H7  1  0.83121993  0.47743990  0.26991329  1
  H+  H8  1  0.70877805  0.86127722  0.03034834  1
  H+  H9  1  0.18460765  0.23827737  0.72631254  1
  H+  H10  1  0.16032056  0.02068261  0.99432843  1
  H+  H11  1  0.15462989  0.30543453  0.01757341  1
  H+  H12  1  0.18422390  0.03429165  0.49901527  1
  H+  H13  1  0.20102850  0.50078455  0.25476921  1
  H+  H14  1  0.19100099  0.37636203  0.25953537  1
  H+  H15  1  0.37942937  0.77220375  0.21133444  1
  H+  H16  1  0.65258819  0.81607616  0.76084638  1
  H+  H17  1  0.47675531  0.84700170  0.51627555  1
  H+  H18  1  0.15208062  0.51986918  0.50495769  1
  H+  H19  1  0.53193652  0.69932438  0.27421363  1
  H+  H20  1  0.14060385  -0.02494155  0.23663985  1
  H+  H21  1  0.11085644  0.24188367  0.64559303  1
  H+  H22  1  0.83645833  0.14136143  0.51311639  1
  H+  H23  1  0.01703950  0.50752842  0.73623843  1
  H+  H24  1  0.03541603  0.19183300  0.25220243  1
  H+  H25  1  0.15468627  0.85182010  0.50944518  1
  H+  H26  1  0.82843538  0.35219307  0.26453213  1
  H+  H27  1  0.52897243  0.83151041  0.99455280  1
  H+  H28  1  0.51427706  0.36716749  0.76232322  1
  H+  H29  1  0.52076465  0.36927929  0.49435855  1
  H+  H30  1  0.18790345  0.37760574  0.48538560  1
  H+  H31  1  0.57288324  0.20365748  0.95259307  1
  H+  H32  1  0.17528192  0.69572398  0.48538480  1
  H+  H33  1  0.77026168  0.71186348  0.94924671  1
  H+  H34  1  0.49361785  0.51980350  0.24757821  1
  H+  H35  1  0.44971480  0.11850546  0.04574047  1
  H+  H36  1  0.17515318  0.81581158  -0.01139234  1
  H+  H37  1  0.35991597  0.85385190  0.00484547  1
  H+  H38  1  0.14019202  0.51558442  0.73995446  1
  H+  H39  1  0.88005929  0.42701131  0.37142574  1
  H+  H40  1  0.16299335  0.65256770  0.23587648  1
  H+  H41  1  0.97041810  0.81769353  0.49630437  1
  H+  H42  1  0.17039632  0.83433744  0.25537530  1
  H+  H43  1  0.30307025  0.49217032  1.00115652  1
  H+  H44  1  0.30270269  0.15317426  0.49600016  1
  H+  H45  1  0.82120981  0.85169449  0.02944329  1
  H+  H46  1  0.28480653  0.80493808  0.75936166  1
  H+  H47  1  0.51051630  0.70129927  0.51030033  1
  H+  H48  1  0.45418772  0.95480819  0.73666707  1
  H+  H49  1  0.47836080  0.97262379  0.00821144  1
  H+  H50  1  0.10137373  0.55155193  0.59221059  1
  H+  H51  1  0.51811873  0.32396669  -0.00211946  1
  H+  H52  1  0.30330962  0.50041419  0.76664152  1
  H+  H53  1  0.83586936  0.86792665  0.72707598  1
  H+  H54  1  0.49738098  0.55000083  0.00814527  1
  H+  H55  1  0.33145133  0.11775559  0.03996707  1
  H+  H56  1  0.35931196  0.85090302  0.50501672  1
  H+  H57  1  0.82190132  0.64171880  0.51964927  1
  H+  H58  1  0.80907264  0.30123310  0.74164666  1
  H+  H59  1  0.85508398  0.03759695  0.27822418  1
  H+  H60  1  0.71144530  0.85578359  0.26265613  1
  H+  H61  1  0.82258212  0.18678865  1.02280491  1
  H+  H62  1  1.00989754  0.84061762  1.00569621  1
  H+  H63  1  0.18031788  0.14871524  0.99850506  1
  H+  H64  1  0.50034521  0.30325778  0.94957902  1
  H+  H65  1  0.70354450  0.52404038  0.51695950  1
  H+  H66  1  0.16592366  0.68266171  0.76280041  1
  H+  H67  1  0.97394327  0.46949146  0.47921896  1
  H+  H68  1  0.85332278  0.82003225  0.26849607  1
  H+  H69  1  0.51671242  0.36505963  0.26761972  1
  H+  H70  1  0.14721051  0.63577781  1.00495111  1
  H+  H71  1  0.02311304  0.85322368  0.23905322  1
  H+  H72  1  0.83120045  -0.01848299  0.74458856  1
  H+  H73  1  0.03346772  0.18508767  0.51377695  1
  H+  H74  1  0.63388312  0.48478712  0.74949340  1
  H+  H75  1  0.48116890  0.17956961  0.26749524  1
  H+  H76  1  0.85110826  0.69913707  0.26374941  1
  H+  H77  1  -0.02904070  0.15621359  0.00775021  1
  H+  H78  1  0.85418982  0.34404228  0.48313107  1
  H+  H79  1  0.96724460  0.80558426  0.75872924  1
  H+  H80  1  0.81369893  0.18503651  0.74860532  1
  H+  H81  1  0.51453031  0.02739480  0.50207790  1
  H+  H82  1  0.85356653  0.03596703  1.01153940  1
  H+  H83  1  0.85761902  0.48987750  -0.00364058  1
  H+  H84  1  0.63172766  0.14437324  0.75198417  1
  H+  H85  1  0.43898102  0.87399713  0.14258964  1
  H+  H86  1  0.65439588  0.16580569  0.99824254  1
  H+  H87  1  0.37654534  0.52341003  0.24719678  1
  H+  H88  1  0.29739562  0.15105318  0.27219278  1
  H+  H89  1  0.14945510  0.51807919  0.00952425  1
  H+  H90  1  0.85034030  0.67542947  1.01212993  1
  H+  H91  1  0.81102566  0.62797096  0.74163115  1
  H+  H92  1  0.83697423  0.48017705  0.75677788  1
  H+  H93  1  0.14528739  0.09745546  0.77645706  1
  H+  H94  1  0.48913006  0.63762944  0.74752939  1
  H+  H95  1  0.51798399  0.02385639  0.27247156  1
  H+  H96  1  0.47903659  0.17583074  0.74582946  1
  H+  H97  1  0.12790267  0.57162819  0.14770226  1
  H+  H98  1  0.96739691  0.16377665  0.78039919  1
  H+  H99  1  0.36001605  0.17395674  0.74669313  1
  H+  H100  1  0.18234729  0.38498991  0.76654421  1
  H+  H101  1  0.69795649  0.51663965  0.24192228  1
  H+  H102  1  0.52683266  0.71396931  1.00502446  1
  H+  H103  1  0.22544733  0.45296023  0.91104561  1
  H+  H104  1  0.58466467  0.50963584  0.88405422  1
  H+  H105  1  0.82735018  0.97684707  0.57977817  1
  H+  H106  1  0.14162021  0.82341164  0.74447335  1
  H+  H107  1  0.14756839  0.94413693  0.74720184  1
  H+  H108  1  0.21225607  0.78014557  0.39871445  1
  H+  H109  1  0.88557409  0.77234338  0.84628877  1
  H+  H110  1  0.82166302  0.30636881  0.01869596  1
  H+  H111  1  0.15150847  0.18791707  0.25076608  1
  H+  H112  1  0.41279262  0.87883498  0.64763221  1
  H+  H113  1  0.44819646  0.22294597  0.60240490  1
  H+  H114  1  0.45193107  0.56494512  0.10641575  1
  H+  H115  1  0.21339368  0.09439444  0.86281422  1
  H+  H116  1  0.23172009  0.45905424  0.39764284  1
  H+  H117  1  0.79467537  0.56383902  0.15981502  1
  H+  H118  1  0.93093889  0.63046131  0.07501387  1
  H+  H119  1  0.77696394  0.21883503  0.60415110  1
  H+  H120  1  0.58405130  0.77983242  0.85469608  1
  H+  H121  1  0.78814706  0.89910456  0.17192419  1
  H+  H122  1  0.55964522  0.78355884  0.42562672  1
  H+  H123  1  0.89257590  0.77475134  0.40897024  1
  H+  H124  1  0.11479144  0.88461172  0.60125646  1
  H+  H125  1  0.08956628  0.88327602  0.09449830  1
  H+  H126  1  0.56157714  0.10779685  0.41428979  1
  H+  H127  1  0.77878141  0.21803607  0.16247201  1
  H+  H128  1  0.53496708  0.81813229  0.27331475  1
  H+  H129  1  0.36876191  0.52225474  0.51473787  1
  H+  H130  1  0.55807382  0.09998256  0.84190932  1
  H+  H131  1  0.42531247  0.19012854  0.17732683  1
  H+  H132  1  0.63668451  0.14100190  0.26777828  1
  H+  H133  1  0.87741351  0.44057780  0.84668268  1
  H+  H134  1  0.21604919  0.77395894  0.90154136  1
  H+  H135  1  0.15440114  0.19094526  0.51465613  1
  H+  H136  1  0.89073876  0.11591416  0.36633454  1
  H+  H137  1  0.77502597  0.55419526  0.64851771  1
  H+  H138  1  0.55981896  0.44871812  0.35385144  1
  H+  H139  1  0.21326553  0.10788167  0.35680612  1
  H+  H140  1  0.88653222  0.11832709  0.86805615  1
  H+  H141  1  0.44220474  0.55504729  0.60703311  1
  H+  H142  1  0.11577633  0.22758343  0.10751433  1
  H+  H143  1  0.51786674  0.48638781  0.49567323  1
  O2-  O144  1  0.11408594  0.23052128  0.22615199  1
  O2-  O145  1  0.11542521  0.24188090  0.71485739  1
  O2-  O146  1  0.14825013  0.57756209  0.21326983  1
  O2-  O147  1  0.09701700  0.55011831  0.71192675  1
  O2-  O148  1  0.10211890  0.89596461  0.21070566  1
  O2-  O149  1  0.10447117  0.86734582  0.71952673  1
  O2-  O150  1  0.44090922  0.21802983  0.24217830  1
  O2-  O151  1  0.43982132  0.21822783  0.72501988  1
  O2-  O152  1  0.45800081  0.56536050  0.22554149  1
  O2-  O153  1  0.43711685  0.55683196  0.72488079  1
  O2-  O154  1  0.43145383  0.85489353  0.20972748  1
  O2-  O155  1  0.40339025  0.87614637  0.71519807  1
  O2-  O156  1  0.77343089  0.21673730  0.23049449  1
  O2-  O157  1  0.77154585  0.21984387  0.71928585  1
  O2-  O158  1  0.78167032  0.55520589  0.22813061  1
  O2-  O159  1  0.77057883  0.54749153  0.71907480  1
  O2-  O160  1  0.79223744  0.90081838  0.24000369  1
  O2-  O161  1  0.80087078  0.91306602  0.70505549  1
  O2-  O162  1  0.21428603  0.11077902  0.28861118  1
  O2-  O163  1  0.21100826  0.08986048  0.79365765  1
  O2-  O164  1  0.23661460  0.45688409  0.28158778  1
  O2-  O165  1  0.22276632  0.46351428  0.79163455  1
  O2-  O166  1  0.21279920  0.79671237  0.28141716  1
  O2-  O167  1  0.20540550  0.76146076  0.78935117  1
  O2-  O168  1  0.55750056  0.10268953  0.29457671  1
  O2-  O169  1  0.55097500  0.10426227  0.77544547  1
  O2-  O170  1  0.55952476  0.44752869  0.28520729  1
  O2-  O171  1  0.55471431  0.45007102  0.77699648  1
  O2-  O172  1  0.57402405  0.77945883  0.29899695  1
  O2-  O173  1  0.57745271  0.76500796  0.78851454  1
  O2-  O174  1  0.89216528  0.11957856  0.29880311  1
  O2-  O175  1  0.88684587  0.12107458  0.79982439  1
  O2-  O176  1  0.86777510  0.43134642  0.29165436  1
  O2-  O177  1  0.87739191  0.43835533  0.77870564  1
  O2-  O178  1  0.89646905  0.78005776  0.28479087  1
  O2-  O179  1  0.88577992  0.77271419  0.77862959  1
  O2-  O180  1  0.22111650  0.11545214  0.47608747  1
  O2-  O181  1  0.21285262  0.10166843  0.97429859  1
  O2-  O182  1  0.22883937  0.45897384  0.46611953  1
  O2-  O183  1  0.22209443  0.44790281  0.97902280  1
  O2-  O184  1  0.21712749  0.77774470  0.46638144  1
  O2-  O185  1  0.22081952  0.77990765  0.97030331  1
  O2-  O186  1  0.56110910  0.11030616  0.48202056  1
  O2-  O187  1  0.57537749  0.13474373  0.96923633  1
  O2-  O188  1  0.55896296  0.44858804  0.46953184  1
  O2-  O189  1  0.60735649  0.55216505  0.94333918  1
  O2-  O190  1  0.54383953  0.78252501  0.49121519  1
  O2-  O191  1  0.57478490  0.79421094  0.98243895  1
  O2-  O192  1  0.88729127  0.10796639  0.49329373  1
  O2-  O193  1  0.88921605  0.11613900  0.98707546  1
  O2-  O194  1  0.89439480  0.42121100  0.45361475  1
  O2-  O195  1  0.88303913  0.43770400  0.96818335  1
  O2-  O196  1  0.88973757  0.77308527  0.47625774  1
  O2-  O197  1  0.84968870  0.75216764  0.97127240  1
  O2-  O198  1  0.11441372  0.22424392  0.03928082  1
  O2-  O199  1  0.11436131  0.23293188  0.53429582  1
  O2-  O200  1  0.10453819  0.55544048  0.02801961  1
  O2-  O201  1  0.10341367  0.55304493  0.52407328  1
  O2-  O202  1  0.09011468  0.88081862  0.02600958  1
  O2-  O203  1  0.11905654  0.89591448  0.53389962  1
  O2-  O204  1  0.38652051  0.11326520  0.08229779  1
  O2-  O205  1  0.44908055  0.22474787  0.53459527  1
  O2-  O206  1  0.44437797  0.57066423  0.03904179  1
  O2-  O207  1  0.44803139  0.55614762  0.53894533  1
  O2-  O208  1  0.44039006  0.89305453  0.02962713  1
  O2-  O209  1  0.43722214  0.89241758  0.53242649  1
  O2-  O210  1  0.78012801  0.22609001  0.04412171  1
  O2-  O211  1  0.77828799  0.21326623  0.53587334  1
  O2-  O212  1  0.85129812  0.59467973  0.05527366  1
  O2-  O213  1  0.78044598  0.56166940  0.54501449  1
  O2-  O214  1  0.78928659  0.89920051  0.05428083  1
  O2-  O215  1  0.82104990  0.98462086  0.51274920  1
