# generated using pymatgen
data_H2O
_symmetry_space_group_name_H-M   'P 1'
_cell_length_a   13.48103193
_cell_length_b   13.49056115
_cell_length_c   14.68011462
_cell_angle_alpha   89.97635634
_cell_angle_beta   89.97036973
_cell_angle_gamma   119.91676453
_symmetry_Int_Tables_number   1
_chemical_formula_structural   H2O
_chemical_formula_sum   'H144 O72'
_cell_volume   2314.07105374
_cell_formula_units_Z   72
loop_
 _symmetry_equiv_pos_site_id
 _symmetry_equiv_pos_as_xyz
  1  'x, y, z'
loop_
 _atom_type_symbol
 _atom_type_oxidation_number
  H+  1.0
  O2-  -2.0
loop_
 _atom_site_type_symbol
 _atom_site_label
 _atom_site_symmetry_multiplicity
 _atom_site_fract_x
 _atom_site_fract_y
 _atom_site_fract_z
 _atom_site_occupancy
  H+  H0  1  0.63806091  0.12467610  0.24675640  1
  H+  H1  1  0.70015494  0.18873267  0.51389963  1
  H+  H2  1  0.48186125  0.96749390  0.75381128  1
  H+  H3  1  0.63116316  0.15173853  0.76722922  1
  H+  H4  1  0.70621838  0.52099271  0.73637527  1
  H+  H5  1  0.83854809  0.65065224  0.50800461  1
  H+  H6  1  0.63203125  0.79970925  0.49405817  1
  H+  H7  1  0.82571669  0.46581048  0.27713175  1
  H+  H8  1  0.95906583  0.14216746  0.49403382  1
  H+  H9  1  0.83748155  0.51754945  0.51490681  1
  H+  H10  1  0.64795350  0.14526232  1.00419599  1
  H+  H11  1  0.50172744  0.17107586  0.22392478  1
  H+  H12  1  0.17619179  0.13826331  0.49895752  1
  H+  H13  1  0.34738310  0.16949448  0.51828683  1
  H+  H14  1  0.63165086  0.50801459  0.99842749  1
  H+  H15  1  0.96870734  0.80798504  0.49071823  1
  H+  H16  1  0.96424429  0.15072960  0.26626079  1
  H+  H17  1  0.44489054  0.64624742  0.02327120  1
  H+  H18  1  0.14870933  0.85015408  0.27158783  1
  H+  H19  1  0.29746597  0.80730808  0.98993629  1
  H+  H20  1  0.13362384  0.17849067  0.03371370  1
  H+  H21  1  0.15628769  -0.03376869  1.05361527  1
  H+  H22  1  0.15012639  0.96010680  0.70251256  1
  H+  H23  1  0.73012075  0.86281928  0.74185162  1
  H+  H24  1  0.50453808  0.34034488  0.27017480  1
  H+  H25  1  0.16241454  0.63373692  0.41828307  1
  H+  H26  1  0.53947994  0.84795519  0.77878347  1
  H+  H27  1  0.95241746  0.49206009  1.00461152  1
  H+  H28  1  0.96904751  0.80331244  0.27547540  1
  H+  H29  1  0.51264024  0.51019567  -0.01059551  1
  H+  H30  1  0.20633323  0.10002135  0.96071216  1
  H+  H31  1  0.17645038  0.48574054  0.20261050  1
  H+  H32  1  0.13953001  0.30744981  0.22284696  1
  H+  H33  1  0.48072541  0.62581179  0.52278198  1
  H+  H34  1  0.29307441  0.15010163  0.70743280  1
  H+  H35  1  0.82531989  0.03147016  0.98822045  1
  H+  H36  1  0.10316815  0.86583215  0.57898985  1
  H+  H37  1  0.26841495  0.47898208  1.00740408  1
  H+  H38  1  0.79546792  0.56373233  0.60631929  1
  H+  H39  1  0.81489483  0.30867493  0.01800498  1
  H+  H40  1  0.85100588  0.48186397  0.76461047  1
  H+  H41  1  0.45556346  0.22120359  -0.03773101  1
  H+  H42  1  0.01204440  0.17054976  0.01301336  1
  H+  H43  1  0.08391209  0.56063178  0.16872047  1
  H+  H44  1  0.81803787  0.84088818  0.50884456  1
  H+  H45  1  0.80650871  0.28904484  0.25358074  1
  H+  H46  1  0.29403018  0.48811201  0.20404411  1
  H+  H47  1  0.48112889  0.18136221  0.74755637  1
  H+  H48  1  0.02807079  0.50604012  0.52939536  1
  H+  H49  1  0.49345436  -0.04454615  0.52165516  1
  H+  H50  1  0.70078841  0.83997889  0.24869810  1
  H+  H51  1  0.47754464  0.82561209  -0.05181138  1
  H+  H52  1  0.35748307  0.51143571  0.54031730  1
  H+  H53  1  0.49419690  0.45523834  0.27208336  1
  H+  H54  1  0.68156416  0.50303208  0.26007027  1
  H+  H55  1  0.15785030  0.52289807  0.75976826  1
  H+  H56  1  0.17184786  0.03929763  0.27184611  1
  H+  H57  1  0.80190140  0.51870080  0.01956115  1
  H+  H58  1  0.45897994  0.88265658  0.61221939  1
  H+  H59  1  0.13596096  -0.04723635  0.49669479  1
  H+  H60  1  0.10939865  0.55838808  0.61743318  1
  H+  H61  1  0.13563009  0.63871872  0.02216526  1
  H+  H62  1  0.80680301  0.17555232  0.74502350  1
  H+  H63  1  0.29709112  0.16737462  1.03454001  1
  H+  H64  1  0.17113419  0.15670197  0.27003142  1
  H+  H65  1  0.15421239  0.35925899  1.00338473  1
  H+  H66  1  0.21886923  0.44268975  0.45032331  1
  H+  H67  1  1.03501508  0.51573704  0.75954286  1
  H+  H68  1  0.80269456  0.62099343  0.25717555  1
  H+  H69  1  0.16088702  0.84988304  0.73118858  1
  H+  H70  1  0.86633605  0.70800852  1.00058389  1
  H+  H71  1  0.51287690  0.63987575  0.24613088  1
  H+  H72  1  0.18560550  0.70234564  0.77027836  1
  H+  H73  1  0.12488882  0.51565354  0.02550385  1
  H+  H74  1  0.18650265  0.82069973  0.00834012  1
  H+  H75  1  0.49525425  0.93644820  0.20127733  1
  H+  H76  1  0.04136316  0.84712612  0.03174322  1
  H+  H77  1  0.49269155  0.94485245  -0.01778389  1
  H+  H78  1  0.98334799  0.81015149  0.75458562  1
  H+  H79  1  0.51974316  0.11622247  1.01911842  1
  H+  H80  1  0.47982631  0.47130740  0.50560988  1
  H+  H81  1  0.53336447  0.69269944  0.85732798  1
  H+  H82  1  0.36800651  0.84470022  0.75624515  1
  H+  H83  1  0.37050548  0.51549893  0.76724606  1
  H+  H84  1  0.78418873  0.22582328  0.10567567  1
  H+  H85  1  0.48190571  0.33647853  1.00703420  1
  H+  H86  1  0.51340558  0.16367243  0.49975229  1
  H+  H87  1  0.84585113  0.36143121  0.76963450  1
  H+  H88  1  0.67118847  0.84853143  -0.01674485  1
  H+  H89  1  0.00666917  0.19920530  0.74485566  1
  H+  H90  1  0.45638070  0.84756862  0.11917657  1
  H+  H91  1  0.82846034  0.63890018  0.74023429  1
  H+  H92  1  0.51926552  0.48464306  0.76330564  1
  H+  H93  1  0.84893344  1.02698721  0.26286808  1
  H+  H94  1  0.48634072  0.30329608  0.74341438  1
  H+  H95  1  0.56511103  0.58522751  0.18118952  1
  H+  H96  1  0.14207219  0.29069750  0.52583301  1
  H+  H97  1  0.84804555  0.36230222  0.50548039  1
  H+  H98  1  0.47347136  0.33655156  0.50628275  1
  H+  H99  1  0.81487272  0.95927208  0.50714312  1
  H+  H100  1  0.51948316  0.79584816  0.25501100  1
  H+  H101  1  0.81494189  0.17960406  0.51375698  1
  H+  H102  1  0.85401095  0.80889791  0.26564982  1
  H+  H103  1  0.85907260  1.03310020  0.75522145  1
  H+  H104  1  0.84734499  0.15763409  0.98760484  1
  H+  H105  1  0.81787056  0.17524592  0.24779204  1
  H+  H106  1  0.17485531  0.14683929  0.70762485  1
  H+  H107  1  0.17295495  0.48004016  0.53422978  1
  H+  H108  1  0.51105032  0.41557584  0.40782029  1
  H+  H109  1  0.18353291  0.37570714  0.77358336  1
  H+  H110  1  0.91665338  0.78526388  0.91263950  1
  H+  H111  1  0.87858507  0.75906367  0.40564073  1
  H+  H112  1  0.08319036  0.20757477  0.15678148  1
  H+  H113  1  0.30306213  0.17095002  0.85696674  1
  H+  H114  1  0.57785489  0.17900167  0.40901329  1
  H+  H115  1  0.88182598  0.10560003  0.84912595  1
  H+  H116  1  0.54998379  0.76276612  0.35571342  1
  H+  H117  1  0.24600639  0.11630316  0.85358877  1
  H+  H118  1  0.51609214  0.80328289  0.50012824  1
  H+  H119  1  0.11010871  0.87526814  0.17530023  1
  H+  H120  1  0.55666164  0.11216752  0.85842293  1
  H+  H121  1  0.21852696  0.78321975  0.85703896  1
  H+  H122  1  0.79570749  0.89130722  0.64655554  1
  H+  H123  1  0.87073590  0.81898158  0.75793874  1
  H+  H124  1  0.47426463  0.23149927  0.14174755  1
  H+  H125  1  0.64905951  0.92129685  0.05311063  1
  H+  H126  1  0.09067797  0.20108215  0.60348185  1
  H+  H127  1  0.25481896  0.45408411  0.34140906  1
  H+  H128  1  0.21631775  0.44568049  0.86732088  1
  H+  H129  1  0.87634759  0.44759845  0.91405721  1
  H+  H130  1  0.76594610  0.88259728  0.15521880  1
  H+  H131  1  0.94515483  0.46784700  0.27472678  1
  H+  H132  1  0.56504046  0.44777610  0.84706398  1
  H+  H133  1  0.43359797  0.21655850  0.60750072  1
  H+  H134  1  0.88599930  0.43923972  0.41503782  1
  H+  H135  1  0.43434951  0.56456194  0.10262988  1
  H+  H136  1  0.76982969  0.21894305  0.65712955  1
  H+  H137  1  0.76344253  0.55788862  0.10879124  1
  H+  H138  1  0.53767485  0.04764918  0.31712315  1
  H+  H139  1  0.18983296  0.41784449  0.34085530  1
  H+  H140  1  0.87998854  0.10467591  0.40503500  1
  H+  H141  1  0.05784849  0.30422012  0.67792601  1
  H+  H142  1  0.45084351  0.56289574  0.68060837  1
  H+  H143  1  0.21835309  0.11200512  0.40471121  1
  O2-  O144  1  0.09440840  0.22194768  0.22399419  1
  O2-  O145  1  0.08063317  0.25684024  0.71235979  1
  O2-  O146  1  0.08125502  0.53191943  0.23235265  1
  O2-  O147  1  0.11471761  0.55990384  0.73539202  1
  O2-  O148  1  0.10468690  0.88154574  0.24363342  1
  O2-  O149  1  0.11118899  0.87478230  0.70004867  1
  O2-  O150  1  0.48695403  0.23371419  0.20766673  1
  O2-  O151  1  0.44448712  0.22289857  0.71992309  1
  O2-  O152  1  0.49214939  0.56705162  0.20907976  1
  O2-  O153  1  0.45260186  0.55667941  0.74767443  1
  O2-  O154  1  0.46973385  0.85598477  0.18533536  1
  O2-  O155  1  0.45020147  0.88589314  0.73585157  1
  O2-  O156  1  0.77402310  0.21222326  0.22366380  1
  O2-  O157  1  0.76817885  0.21882976  0.72532378  1
  O2-  O158  1  0.75895056  0.54133679  0.23238680  1
  O2-  O159  1  0.78701653  0.55884945  0.71378085  1
  O2-  O160  1  0.77920469  0.88212524  0.22116392  1
  O2-  O161  1  0.80746016  0.89844118  0.71449913  1
  O2-  O162  1  0.21209261  0.11847484  0.29489461  1
  O2-  O163  1  0.21269746  0.10593834  0.68584913  1
  O2-  O164  1  0.21797305  0.44785005  0.17745689  1
  O2-  O165  1  0.22941232  0.45389035  0.79931800  1
  O2-  O166  1  0.14312702  0.65150458  0.29212955  1
  O2-  O167  1  0.22794461  0.78440468  0.78941664  1
  O2-  O168  1  0.55205093  0.07468930  0.25429438  1
  O2-  O169  1  0.55053814  0.11189959  0.79117681  1
  O2-  O170  1  0.52843018  0.41453517  0.30403731  1
  O2-  O171  1  0.56328979  0.44414455  0.77961996  1
  O2-  O172  1  0.56011352  0.76068853  0.28808558  1
  O2-  O173  1  0.60725499  0.84329812  0.80446574  1
  O2-  O174  1  0.88224415  0.10563799  0.28838324  1
  O2-  O175  1  0.88483920  0.11147389  0.78092256  1
  O2-  O176  1  0.86560541  0.42561289  0.30091116  1
  O2-  O177  1  0.88782237  0.44140537  0.79342952  1
  O2-  O178  1  0.88535114  0.76275405  0.29271446  1
  O2-  O179  1  0.90416019  0.77270825  0.78152631  1
  O2-  O180  1  0.22009459  0.10339809  0.47352988  1
  O2-  O181  1  0.21344996  0.11225296  1.02677082  1
  O2-  O182  1  0.21625473  0.43751162  0.51726641  1
  O2-  O183  1  0.19205485  0.43884788  0.97826113  1
  O2-  O184  1  0.20363118  0.63466621  0.36240257  1
  O2-  O185  1  0.21499415  0.77412831  0.97603341  1
  O2-  O186  1  0.56346730  0.13940137  0.46724079  1
  O2-  O187  1  0.56623128  0.09538640  0.98156757  1
  O2-  O188  1  0.50955232  0.41886723  0.47811553  1
  O2-  O189  1  0.55182123  0.46732641  0.97210598  1
  O2-  O190  1  0.55050649  0.75783461  0.47371464  1
  O2-  O191  1  0.56196303  0.76909484  0.88517952  1
  O2-  O192  1  0.87752277  0.10328918  0.47339250  1
  O2-  O193  1  0.87895614  0.10918694  0.96436160  1
  O2-  O194  1  0.88981094  0.44385882  0.48361201  1
  O2-  O195  1  0.87129149  0.44761466  0.98189561  1
  O2-  O196  1  0.88123812  0.75975807  0.47439199  1
  O2-  O197  1  0.91896844  0.78731133  0.97994755  1
  O2-  O198  1  0.08837017  0.21773621  0.04240530  1
  O2-  O199  1  0.09833150  0.20599135  0.53630429  1
  O2-  O200  1  0.08842448  0.55981204  0.04774402  1
  O2-  O201  1  0.10913995  0.54708247  0.55012272  1
  O2-  O202  1  0.11900928  0.88232499  0.06342928  1
  O2-  O203  1  0.09285365  0.86975103  0.51224707  1
  O2-  O204  1  0.44338252  0.25076618  0.01928997  1
  O2-  O205  1  0.43068735  0.21757109  0.53875309  1
  O2-  O206  1  0.42363420  0.56704228  0.03550618  1
  O2-  O207  1  0.44228097  0.54675607  0.55063910  1
  O2-  O208  1  0.45084562  0.86088104  -0.00609187  1
  O2-  O209  1  0.46082163  0.87758838  0.54481317  1
  O2-  O210  1  0.78062819  0.22641021  0.03746477  1
  O2-  O211  1  0.77936489  0.22397294  0.53893214  1
  O2-  O212  1  0.76465285  0.56288866  0.04116399  1
  O2-  O213  1  0.79978199  0.56405106  0.53630637  1
  O2-  O214  1  0.70745711  0.90278159  0.03417499  1
  O2-  O215  1  0.77632775  0.87953643  0.53199967  1
