# generated using pymatgen
data_H2O
_symmetry_space_group_name_H-M   'P 1'
_cell_length_a   13.49474412
_cell_length_b   13.50121059
_cell_length_c   14.68989845
_cell_angle_alpha   89.98745993
_cell_angle_beta   89.94305117
_cell_angle_gamma   119.92060375
_symmetry_Int_Tables_number   1
_chemical_formula_structural   H2O
_chemical_formula_sum   'H144 O72'
_cell_volume   2319.70805073
_cell_formula_units_Z   72
loop_
 _symmetry_equiv_pos_site_id
 _symmetry_equiv_pos_as_xyz
  1  'x, y, z'
loop_
 _atom_type_symbol
 _atom_type_oxidation_number
  H+  1.0
  O2-  -2.0
loop_
 _atom_site_type_symbol
 _atom_site_label
 _atom_site_symmetry_multiplicity
 _atom_site_fract_x
 _atom_site_fract_y
 _atom_site_fract_z
 _atom_site_occupancy
  H+  H0  1  0.50979875  0.69294418  -0.01521552  1
  H+  H1  1  0.54881557  0.76812802  -0.10602991  1
  H+  H2  1  0.14378947  0.61975109  0.25613945  1
  H+  H3  1  0.59172878  0.16492500  0.53027932  1
  H+  H4  1  0.86192525  0.49004286  0.77498324  1
  H+  H5  1  0.85716995  0.00138457  0.50262703  1
  H+  H6  1  0.57611985  0.71615887  0.49850930  1
  H+  H7  1  0.83615858  0.18629893  0.76196423  1
  H+  H8  1  0.39608959  0.46921227  0.50360059  1
  H+  H9  1  0.18179366  0.80155164  0.26865440  1
  H+  H10  1  0.35311692  0.50073285  0.74819510  1
  H+  H11  1  0.05861665  0.88735771  0.75882803  1
  H+  H12  1  0.52889479  1.02890986  0.76599203  1
  H+  H13  1  0.86762910  0.83631347  0.48499379  1
  H+  H14  1  0.63907926  0.15206250  0.00259147  1
  H+  H15  1  0.83080474  0.68372129  -0.01358427  1
  H+  H16  1  0.51812915  0.44583836  0.40298772  1
  H+  H17  1  0.54510366  0.81348773  0.49633945  1
  H+  H18  1  0.48415534  0.84422126  1.01030258  1
  H+  H19  1  0.50370929  0.05954997  0.45005627  1
  H+  H20  1  0.15110460  0.64058191  0.74548751  1
  H+  H21  1  0.78725318  0.18350478  0.26339562  1
  H+  H22  1  0.30289258  0.15089749  0.50132428  1
  H+  H23  1  0.14480471  0.86823386  0.01084555  1
  H+  H24  1  -0.04096921  0.47560960  0.27068117  1
  H+  H25  1  0.52939792  0.70041490  0.24796575  1
  H+  H26  1  0.62833840  0.78864834  0.74447840  1
  H+  H27  1  0.81654246  0.51250401  1.01549469  1
  H+  H28  1  0.02204291  0.49603442  0.02445667  1
  H+  H29  1  0.49259308  0.16530421  0.23692184  1
  H+  H30  1  0.50961469  0.37101784  0.25977413  1
  H+  H31  1  0.84273680  0.48366779  0.26581895  1
  H+  H32  1  0.74070217  0.94932623  0.70516675  1
  H+  H33  1  0.80418102  0.30912138  0.25561502  1
  H+  H34  1  0.16820850  0.81114840  0.51157593  1
  H+  H35  1  0.88777431  0.17824375  0.49937474  1
  H+  H36  1  0.47698113  0.16621270  0.74909613  1
  H+  H37  1  0.15561727  0.65099700  0.52739576  1
  H+  H38  1  0.86534805  0.37120704  0.77505334  1
  H+  H39  1  0.15568550  0.96867500  0.51962534  1
  H+  H40  1  0.28352116  0.80039241  0.50823661  1
  H+  H41  1  0.28424353  0.51890814  0.42637047  1
  H+  H42  1  0.83528530  0.96384076  0.22554727  1
  H+  H43  1  0.27389783  0.08276512  0.74716221  1
  H+  H44  1  0.82067530  0.17934978  1.02040899  1
  H+  H45  1  0.08704718  0.16333537  0.13732099  1
  H+  H46  1  0.15498283  0.17355228  0.99709544  1
  H+  H47  1  1.00306803  0.17683674  0.49475029  1
  H+  H48  1  0.71344343  0.51739921  0.75548477  1
  H+  H49  1  0.19669489  0.83312964  0.75968605  1
  H+  H50  1  0.65129714  0.82946369  0.24469136  1
  H+  H51  1  0.15451997  0.29068310  0.01148554  1
  H+  H52  1  0.37336542  0.84738456  0.74166023  1
  H+  H53  1  0.51251881  0.35293013  0.76839795  1
  H+  H54  1  0.50600289  0.67513998  0.74603218  1
  H+  H55  1  0.35267604  0.17927252  0.24180984  1
  H+  H56  1  0.85057437  0.36070399  1.00006431  1
  H+  H57  1  0.17784796  0.46682564  0.00428814  1
  H+  H58  1  0.45298718  0.93546140  0.41388044  1
  H+  H59  1  0.30111520  0.47613411  0.99697961  1
  H+  H60  1  0.90966725  0.10860300  0.86482548  1
  H+  H61  1  0.62190600  0.16393821  0.24578572  1
  H+  H62  1  0.21544487  0.39345505  0.30689027  1
  H+  H63  1  0.22236867  0.10535177  0.41305419  1
  H+  H64  1  0.73691348  0.87992571  0.50105937  1
  H+  H65  1  -0.03084946  0.14268488  -0.00128667  1
  H+  H66  1  0.52274799  0.37379106  0.99240511  1
  H+  H67  1  0.36201287  0.82139426  0.24869461  1
  H+  H68  1  0.51498243  0.82023396  0.24825081  1
  H+  H69  1  0.64432938  0.14925355  0.77168143  1
  H+  H70  1  1.04111786  0.18584406  0.75541594  1
  H+  H71  1  0.19271454  0.01406354  0.27469384  1
  H+  H72  1  0.17170559  0.11698007  0.26647871  1
  H+  H73  1  0.23967377  0.04576370  0.97814752  1
  H+  H74  1  0.61257224  0.20514734  0.48874204  1
  H+  H75  1  0.80549575  0.83877653  1.00259113  1
  H+  H76  1  0.17191620  0.18739278  0.52890756  1
  H+  H77  1  0.49454383  0.22512368  0.52644874  1
  H+  H78  1  0.11911371  0.90014443  0.61251066  1
  H+  H79  1  0.94675565  0.80023128  0.99226397  1
  H+  H80  1  0.98046700  0.17013192  0.27153086  1
  H+  H81  1  0.49346995  0.52615701  0.24154144  1
  H+  H82  1  0.23175103  0.78855404  0.84501890  1
  H+  H83  1  0.85533886  0.81103320  0.25613672  1
  H+  H84  1  0.38142269  0.19943686  -0.00165480  1
  H+  H85  1  0.88438316  0.03523980  0.77155916  1
  H+  H86  1  0.83098511  0.63551531  0.75208404  1
  H+  H87  1  0.03507814  0.83737782  0.25390462  1
  H+  H88  1  0.38065277  0.53669597  0.24788206  1
  H+  H89  1  0.38517716  0.73173838  0.54693186  1
  H+  H90  1  0.03063753  0.51867413  0.74881578  1
  H+  H91  1  0.14224600  0.61006999  0.03123508  1
  H+  H92  1  0.20617092  0.31855140  0.54019035  1
  H+  H93  1  0.81612152  0.63007476  0.24626303  1
  H+  H94  1  0.56082003  0.11004346  0.91360137  1
  H+  H95  1  0.09380692  0.95154084  0.02948104  1
  H+  H96  1  0.15808292  0.31986469  0.75389382  1
  H+  H97  1  0.19216774  0.49483170  0.28275974  1
  H+  H98  1  -0.04076571  0.50508526  0.49553322  1
  H+  H99  1  0.86571360  0.82917165  0.75638301  1
  H+  H100  1  0.78959517  0.63795883  0.49377342  1
  H+  H101  1  0.77523602  0.51543135  0.50213544  1
  H+  H102  1  0.30726122  0.93385758  0.92639589  1
  H+  H103  1  0.51230804  0.46952594  0.75705809  1
  H+  H104  1  0.17810240  0.48529657  0.77279072  1
  H+  H105  1  0.84688460  0.32747132  0.52951008  1
  H+  H106  1  0.32381939  0.85640907  0.99436606  1
  H+  H107  1  0.84709445  0.02615800  0.99553271  1
  H+  H108  1  0.88044964  0.44752005  0.40959822  1
  H+  H109  1  0.18848807  0.54563376  0.53236289  1
  H+  H110  1  0.89463879  0.78777116  0.84852405  1
  H+  H111  1  0.21742978  0.08407156  0.88289903  1
  H+  H112  1  0.49501739  0.96768893  0.02260866  1
  H+  H113  1  0.21556737  0.44053048  0.86275296  1
  H+  H114  1  0.43995855  0.87051855  0.15801543  1
  H+  H115  1  0.80584463  0.23391425  0.67344066  1
  H+  H116  1  0.11955052  0.56181920  0.62560853  1
  H+  H117  1  0.89845706  0.44493156  0.91300116  1
  H+  H118  1  0.63169431  0.48537220  0.26577820  1
  H+  H119  1  0.77765612  0.88160929  0.14133750  1
  H+  H120  1  0.43207949  0.84492959  0.60723188  1
  H+  H121  1  0.43300688  0.21216986  0.66650986  1
  H+  H122  1  0.74037872  0.20529580  0.53741155  1
  H+  H123  1  0.59446731  0.49728572  0.48966816  1
  H+  H124  1  0.21497822  0.76137963  0.35945533  1
  H+  H125  1  0.40323603  0.51752603  0.64967995  1
  H+  H126  1  0.46491656  0.32389820  0.52103569  1
  H+  H127  1  0.11278702  0.87674124  0.16630150  1
  H+  H128  1  0.89287429  0.77677955  0.34942276  1
  H+  H129  1  0.77369242  0.55064945  0.15747705  1
  H+  H130  1  0.77987357  0.22122773  0.10812500  1
  H+  H131  1  0.10439550  0.53338156  0.17120847  1
  H+  H132  1  0.79952343  0.90963408  0.63334646  1
  H+  H133  1  0.50549827  0.06843472  0.30608369  1
  H+  H134  1  0.44744195  0.55974092  0.09714907  1
  H+  H135  1  0.69699353  0.51221351  0.01211166  1
  H+  H136  1  0.55920195  0.44927965  0.90183849  1
  H+  H137  1  0.48746372  0.83788107  0.74027507  1
  H+  H138  1  0.48559263  0.51759209  0.00852175  1
  H+  H139  1  0.97102627  0.81313572  0.49227769  1
  H+  H140  1  0.12843684  0.23386034  0.65882429  1
  H+  H141  1  0.49346268  0.18981835  0.01392886  1
  H+  H142  1  0.69026423  0.84514614  0.00306725  1
  H+  H143  1  0.43031563  0.22708028  0.14806750  1
  O2-  O144  1  0.07139816  0.12601134  0.19896970  1
  O2-  O145  1  0.12242261  0.23705017  0.72936667  1
  O2-  O146  1  0.10428266  0.53655604  0.23912908  1
  O2-  O147  1  0.11261229  0.55966778  0.72286530  1
  O2-  O148  1  0.11750303  0.87541006  0.23354166  1
  O2-  O149  1  0.14090323  0.92378416  0.73708482  1
  O2-  O150  1  0.43314141  0.22490607  0.21649287  1
  O2-  O151  1  0.42511877  0.19617075  0.73293742  1
  O2-  O152  1  0.45728597  0.57126594  0.21826668  1
  O2-  O153  1  0.42686798  0.53396135  0.71424974  1
  O2-  O154  1  0.44231152  0.86360335  0.22563972  1
  O2-  O155  1  0.45256486  0.88314560  0.71659481  1
  O2-  O156  1  0.75752974  0.22700028  0.23202934  1
  O2-  O157  1  0.79545328  0.22614388  0.74103388  1
  O2-  O158  1  0.77242557  0.54832961  0.22566238  1
  O2-  O159  1  0.79561135  0.55279905  0.74090763  1
  O2-  O160  1  0.78022204  0.88336910  0.21006273  1
  O2-  O161  1  0.78090489  0.90603293  0.70172070  1
  O2-  O162  1  0.22704635  0.09640178  0.29307005  1
  O2-  O163  1  0.19365776  0.04266798  0.77192325  1
  O2-  O164  1  0.24962494  0.47635069  0.31110099  1
  O2-  O165  1  0.21475689  0.44088491  0.79373088  1
  O2-  O166  1  0.22028480  0.75915834  0.29241054  1
  O2-  O167  1  0.22797507  0.78260806  0.77773206  1
  O2-  O168  1  0.53463340  0.11690955  0.24828155  1
  O2-  O169  1  0.56312164  0.10692517  0.79238002  1
  O2-  O170  1  0.54923515  0.45000381  0.28417577  1
  O2-  O171  1  0.55451453  0.43493863  0.78555776  1
  O2-  O172  1  0.56809440  0.78478814  0.26667841  1
  O2-  O173  1  0.54991828  0.75600549  0.76862980  1
  O2-  O174  1  0.95973206  0.11207961  0.22389377  1
  O2-  O175  1  0.91974426  0.11397164  0.79586839  1
  O2-  O176  1  0.87765452  0.43862581  0.29167751  1
  O2-  O177  1  0.90816909  0.45256033  0.79545737  1
  O2-  O178  1  0.89445814  0.77114293  0.28098632  1
  O2-  O179  1  0.91303170  0.79959699  0.78181851  1
  O2-  O180  1  0.22141466  0.10645919  0.48110275  1
  O2-  O181  1  0.23412400  0.10764775  0.94881031  1
  O2-  O182  1  0.30311292  0.54773585  0.49112101  1
  O2-  O183  1  0.21957002  0.43124667  0.97550006  1
  O2-  O184  1  0.20175263  0.76246759  0.48867131  1
  O2-  O185  1  0.26212603  0.86093804  0.95798470  1
  O2-  O186  1  0.45476042  0.00760677  0.40205287  1
  O2-  O187  1  0.55749024  0.11128240  0.98163852  1
  O2-  O188  1  0.51134535  0.45129155  0.47015359  1
  O2-  O189  1  0.56092195  0.45421127  0.97015762  1
  O2-  O190  1  0.60025543  0.79184532  0.47346203  1
  O2-  O191  1  0.54896290  0.77353915  0.96142908  1
  O2-  O192  1  0.92436894  0.13812665  0.47069520  1
  O2-  O193  1  0.88932979  0.10784244  0.97468631  1
  O2-  O194  1  0.88043754  0.45128964  0.47784356  1
  O2-  O195  1  0.89411942  0.44294475  0.98131854  1
  O2-  O196  1  0.89519664  0.78367080  0.46341901  1
  O2-  O197  1  0.87015868  0.76485798  0.96351309  1
  O2-  O198  1  0.11279520  0.20716832  0.02679691  1
  O2-  O199  1  0.14570787  0.23939876  0.55562009  1
  O2-  O200  1  0.10234994  0.53047193  0.05108146  1
  O2-  O201  1  0.12820820  0.56616074  0.55265226  1
  O2-  O202  1  0.08466939  0.87667913  0.04388752  1
  O2-  O203  1  0.11586426  0.88922502  0.54564886  1
  O2-  O204  1  0.45346343  0.23255333  0.03335705  1
  O2-  O205  1  0.43698776  0.24448340  0.54646714  1
  O2-  O206  1  0.44182923  0.55567936  0.02946731  1
  O2-  O207  1  0.32752431  0.46381381  0.53675674  1
  O2-  O208  1  0.44827608  0.88545686  0.04047129  1
  O2-  O209  1  0.41432930  0.81423321  0.54250358  1
  O2-  O210  1  0.78014374  0.22064962  0.04068574  1
  O2-  O211  1  0.82032186  0.24954387  0.55678578  1
  O2-  O212  1  0.77657242  0.55330538  0.03752531  1
  O2-  O213  1  0.73314630  0.55713059  0.50742359  1
  O2-  O214  1  0.77020902  0.88350958  0.02712136  1
  O2-  O215  1  0.81697841  0.91979628  0.52578566  1
