# generated using pymatgen
data_H2O
_symmetry_space_group_name_H-M   'P 1'
_cell_length_a   13.51601810
_cell_length_b   13.52363832
_cell_length_c   14.69289778
_cell_angle_alpha   89.99866003
_cell_angle_beta   89.95788709
_cell_angle_gamma   120.02699937
_symmetry_Int_Tables_number   1
_chemical_formula_structural   H2O
_chemical_formula_sum   'H144 O72'
_cell_volume   2325.20912887
_cell_formula_units_Z   72
loop_
 _symmetry_equiv_pos_site_id
 _symmetry_equiv_pos_as_xyz
  1  'x, y, z'
loop_
 _atom_type_symbol
 _atom_type_oxidation_number
  H+  1.0
  O2-  -2.0
loop_
 _atom_site_type_symbol
 _atom_site_label
 _atom_site_symmetry_multiplicity
 _atom_site_fract_x
 _atom_site_fract_y
 _atom_site_fract_z
 _atom_site_occupancy
  H+  H0  1  0.36553850  0.17983175  0.24410397  1
  H+  H1  1  0.14673431  0.84748576  0.23994909  1
  H+  H2  1  0.83229975  0.30258102  0.74027970  1
  H+  H3  1  0.15841424  0.54895353  0.73139797  1
  H+  H4  1  0.52701402  0.06102271  0.75851979  1
  H+  H5  1  0.81823613  0.84705383  0.23190345  1
  H+  H6  1  0.51756371  0.67113984  -0.01280178  1
  H+  H7  1  0.44128729  0.55355846  0.68993875  1
  H+  H8  1  0.96522567  0.83043029  1.00273247  1
  H+  H9  1  0.29252156  0.82758084  0.48286079  1
  H+  H10  1  0.96897160  0.48405487  0.76147482  1
  H+  H11  1  0.61088692  0.79072336  0.49457160  1
  H+  H12  1  0.70147396  0.83419735  0.74500597  1
  H+  H13  1  0.17904318  0.83493053  0.48391081  1
  H+  H14  1  0.18164437  0.32472967  0.74825399  1
  H+  H15  1  0.84662616  0.03446529  0.23132469  1
  H+  H16  1  0.81208599  0.19922612  0.50199101  1
  H+  H17  1  0.47794592  0.25843800  0.00517173  1
  H+  H18  1  0.25780966  0.46831241  0.72926049  1
  H+  H19  1  0.83133889  0.85202836  0.00653414  1
  H+  H20  1  0.98053913  0.51019155  0.26382898  1
  H+  H21  1  0.53118307  0.46554117  0.50836173  1
  H+  H22  1  0.36832786  0.84364361  0.01802042  1
  H+  H23  1  0.14074055  0.52131974  1.03040647  1
  H+  H24  1  0.84437082  0.48456617  0.48687140  1
  H+  H25  1  0.45585047  0.34080252  0.81009649  1
  H+  H26  1  0.82384382  -0.01920068  1.01117092  1
  H+  H27  1  1.04177706  0.84185679  0.75168483  1
  H+  H28  1  0.46295555  0.89901770  0.64073860  1
  H+  H29  1  0.95618622  0.47793108  1.00856468  1
  H+  H30  1  0.14737993  0.96705519  0.24471061  1
  H+  H31  1  0.49125514  0.50056195  0.75909505  1
  H+  H32  1  0.06654828  0.15281426  0.49030156  1
  H+  H33  1  -0.03462938  0.81694738  0.25284378  1
  H+  H34  1  0.51016814  0.60015183  0.22341901  1
  H+  H35  1  0.62534452  0.79788363  0.98520938  1
  H+  H36  1  0.66209178  0.58258225  0.69813078  1
  H+  H37  1  0.47871775  -0.01350755  0.25567563  1
  H+  H38  1  0.81060060  0.63268603  0.02382810  1
  H+  H39  1  0.19065170  0.18424433  0.50493803  1
  H+  H40  1  0.81346257  0.29820480  0.04775268  1
  H+  H41  1  0.80626519  0.31205140  0.51048247  1
  H+  H42  1  0.85886757  0.81731206  0.76780205  1
  H+  H43  1  0.84713651  0.69687728  0.77292564  1
  H+  H44  1  0.84380096  0.46375442  0.77345128  1
  H+  H45  1  0.89916091  0.10395420  0.45570280  1
  H+  H46  1  0.16473047  0.85180888  0.74097544  1
  H+  H47  1  0.42796456  0.53114786  0.55986669  1
  H+  H48  1  0.80654464  0.51309915  0.02336041  1
  H+  H49  1  0.12571002  0.48706739  0.49508898  1
  H+  H50  1  0.13950410  0.33611509  0.72255937  1
  H+  H51  1  0.84159597  0.80675802  0.48408840  1
  H+  H52  1  0.84563248  0.50507223  0.25980292  1
  H+  H53  1  0.14707522  0.64317290  0.25129550  1
  H+  H54  1  0.02936538  0.86180531  0.51073623  1
  H+  H55  1  0.29489415  0.82426796  0.26141206  1
  H+  H56  1  0.32653848  0.15025554  0.49733764  1
  H+  H57  1  0.26518109  0.75331877  0.81755663  1
  H+  H58  1  0.77765239  0.92819266  0.52120497  1
  H+  H59  1  0.37518726  0.50363316  1.01783034  1
  H+  H60  1  0.20005438  0.03672156  0.49443107  1
  H+  H61  1  0.11171701  0.12207473  0.73343890  1
  H+  H62  1  0.29316786  0.15141507  0.77132268  1
  H+  H63  1  0.03581236  0.19058615  0.23385282  1
  H+  H64  1  0.16661272  0.82596596  1.01456712  1
  H+  H65  1  0.13851445  0.97596378  0.01760299  1
  H+  H66  1  0.64037897  0.13798538  1.00260204  1
  H+  H67  1  0.56137353  0.76293139  0.84414328  1
  H+  H68  1  0.94790920  0.11828405  0.75208466  1
  H+  H69  1  0.82883002  0.17302389  0.73773933  1
  H+  H70  1  0.54545300  0.69486072  0.75198941  1
  H+  H71  1  0.49875786  0.72721973  0.25505652  1
  H+  H72  1  0.81505476  0.18339427  0.18845046  1
  H+  H73  1  0.18415813  0.02574960  0.77066073  1
  H+  H74  1  0.50660384  0.46959852  0.24950807  1
  H+  H75  1  0.18363481  0.34973008  0.47157744  1
  H+  H76  1  0.47960117  -0.03237423  0.50246813  1
  H+  H77  1  0.48394414  0.30059171  0.24388013  1
  H+  H78  1  0.13929111  0.65035053  0.71758576  1
  H+  H79  1  0.52258756  0.16646725  0.25750527  1
  H+  H80  1  0.97770559  0.23416389  0.43421441  1
  H+  H81  1  0.95722018  0.47049843  0.48400845  1
  H+  H82  1  0.47252221  0.82457148  -0.00448070  1
  H+  H83  1  0.84440876  0.69780541  0.25530803  1
  H+  H84  1  0.48956517  0.17187569  0.52244296  1
  H+  H85  1  0.48207325  0.19310151  0.76286167  1
  H+  H86  1  0.32438249  0.48442215  0.24524732  1
  H+  H87  1  0.51332140  0.47674469  0.95642778  1
  H+  H88  1  0.81622334  0.95390883  0.73768445  1
  H+  H89  1  0.13942356  0.18135464  0.01199776  1
  H+  H90  1  0.17094720  0.36196710  1.01939724  1
  H+  H91  1  0.48547241  0.87422584  0.25716156  1
  H+  H92  1  0.20876366  0.11107917  -0.08994704  1
  H+  H93  1  0.48010862  0.69129855  0.48960565  1
  H+  H94  1  0.63204092  0.14781560  0.49046257  1
  H+  H95  1  0.47404733  0.84692185  0.50188562  1
  H+  H96  1  0.32032806  0.51896560  0.50835712  1
  H+  H97  1  0.33609168  0.83504325  0.73807966  1
  H+  H98  1  0.53121812  0.01765428  0.98051333  1
  H+  H99  1  0.69213095  0.50904724  0.24873611  1
  H+  H100  1  0.18455765  0.15018382  0.26404060  1
  H+  H101  1  -0.03725611  0.14831920  0.00046104  1
  H+  H102  1  0.21155382  0.78541719  0.34726345  1
  H+  H103  1  0.69918880  0.84913612  0.23316334  1
  H+  H104  1  0.78990070  0.22636195  0.64138058  1
  H+  H105  1  0.50539557  0.86121372  0.73014214  1
  H+  H106  1  0.28533222  0.15761976  0.00131615  1
  H+  H107  1  0.69436924  0.49928763  0.74133460  1
  H+  H108  1  0.56080315  0.11795525  0.39779478  1
  H+  H109  1  0.65182792  0.48001287  0.49108444  1
  H+  H110  1  0.88587942  0.45694233  0.35392585  1
  H+  H111  1  0.21330507  0.79919599  0.92716472  1
  H+  H112  1  0.13531055  0.63775624  0.02359245  1
  H+  H113  1  0.56744471  0.12798668  0.85101549  1
  H+  H114  1  0.20720874  0.49392285  0.25004033  1
  H+  H115  1  0.15990915  0.30657026  0.23819458  1
  H+  H116  1  0.78000728  0.89024724  0.10211662  1
  H+  H117  1  0.55439774  0.77904524  0.35097823  1
  H+  H118  1  0.77230149  0.55231462  0.15799323  1
  H+  H119  1  0.87744170  0.10641049  0.84661580  1
  H+  H120  1  0.09977822  0.56084442  0.16428715  1
  H+  H121  1  0.55079269  0.43654092  0.34590314  1
  H+  H122  1  0.44293911  0.23426323  0.67534297  1
  H+  H123  1  0.10622516  0.89558492  0.60217987  1
  H+  H124  1  0.84251754  0.14362742  1.01005616  1
  H+  H125  1  0.89001600  0.78028584  0.39283553  1
  H+  H126  1  0.32225110  0.54518364  0.81129023  1
  H+  H127  1  0.63815191  0.16341846  0.24269982  1
  H+  H128  1  0.46013784  0.53138358  0.10046903  1
  H+  H129  1  0.07944551  0.16195663  0.64135319  1
  H+  H130  1  0.22200764  0.43444775  0.38321943  1
  H+  H131  1  0.88563642  0.78468129  0.91164853  1
  H+  H132  1  0.49747558  0.29247334  0.52144885  1
  H+  H133  1  0.42941563  0.23200363  0.10612465  1
  H+  H134  1  0.09351044  0.53823057  0.58198108  1
  H+  H135  1  0.82744968  0.64244661  0.50020923  1
  H+  H136  1  0.87490302  0.12845781  0.30769099  1
  H+  H137  1  0.77979219  0.56835374  0.59224077  1
  H+  H138  1  0.23068276  0.11140518  0.35053744  1
  H+  H139  1  0.10466913  0.21807334  0.10505002  1
  H+  H140  1  0.87506227  0.42290994  0.92311038  1
  H+  H141  1  0.76304706  0.85555174  0.60852175  1
  H+  H142  1  0.20829826  0.44448675  0.93662792  1
  H+  H143  1  0.09917002  0.89596077  0.10844622  1
  O2-  O144  1  0.11836917  0.22410600  0.21944507  1
  O2-  O145  1  0.04675549  0.11808728  0.69766277  1
  O2-  O146  1  0.10177976  0.55968606  0.23237622  1
  O2-  O147  1  0.09920841  0.56616862  0.71006339  1
  O2-  O148  1  0.10404222  0.88772572  0.21944031  1
  O2-  O149  1  0.11872825  0.88729915  0.72371815  1
  O2-  O150  1  0.44510732  0.21985998  0.21980331  1
  O2-  O151  1  0.43564396  0.23053516  0.74247094  1
  O2-  O152  1  0.45010624  0.52387049  0.20670315  1
  O2-  O153  1  0.51377652  0.55892607  0.70813647  1
  O2-  O154  1  0.43362990  0.90320466  0.24351906  1
  O2-  O155  1  0.46646629  0.90257792  0.70936758  1
  O2-  O156  1  0.77137042  0.22109156  0.16774047  1
  O2-  O157  1  0.79708188  0.22407475  0.71116385  1
  O2-  O158  1  0.77503253  0.55366938  0.22770147  1
  O2-  O159  1  0.72791133  0.57058104  0.70674729  1
  O2-  O160  1  0.77783880  0.88708730  0.20615962  1
  O2-  O161  1  0.78229179  0.87283816  0.71904350  1
  O2-  O162  1  0.22313682  0.10703257  0.28297407  1
  O2-  O163  1  0.21166269  0.10525527  0.79206954  1
  O2-  O164  1  0.24194678  0.44850276  0.27022749  1
  O2-  O165  1  0.29698395  0.54848825  0.74961047  1
  O2-  O166  1  0.21112431  0.77944536  0.27805075  1
  O2-  O167  1  0.25426361  0.78798922  0.76314139  1
  O2-  O168  1  0.56912301  0.13221875  0.28121374  1
  O2-  O169  1  0.55804446  0.13794965  0.78440787  1
  O2-  O170  1  0.55629235  0.43532241  0.27912182  1
  O2-  O171  1  0.45295521  0.40693671  0.83964821  1
  O2-  O172  1  0.56483166  0.79207194  0.28306215  1
  O2-  O173  1  0.57024247  0.77248088  0.77612284  1
  O2-  O174  1  0.88382405  0.11846516  0.24231611  1
  O2-  O175  1  0.87096463  0.10146650  0.77936921  1
  O2-  O176  1  0.89444132  0.46960182  0.28481636  1
  O2-  O177  1  0.89093711  0.42978100  0.78728291  1
  O2-  O178  1  0.88366091  0.78006109  0.27447805  1
  O2-  O179  1  0.89518223  0.77549900  0.79599597  1
  O2-  O180  1  0.24778237  0.11607590  0.46951500  1
  O2-  O181  1  0.20388963  0.11065384  0.97806012  1
  O2-  O182  1  0.20532215  0.42788529  0.45066232  1
  O2-  O183  1  0.21352559  0.44592893  1.00273118  1
  O2-  O184  1  0.21524439  0.79425644  0.45609338  1
  O2-  O185  1  0.20524281  0.78302440  0.99217432  1
  O2-  O186  1  0.55333326  0.10715602  0.46553214  1
  O2-  O187  1  0.57693396  0.09855711  0.95956895  1
  O2-  O188  1  0.56844730  0.43077131  0.47544604  1
  O2-  O189  1  0.54724134  0.45189600  0.90624414  1
  O2-  O190  1  0.53745394  0.76763202  0.46335007  1
  O2-  O191  1  0.54995542  0.74909816  0.95796322  1
  O2-  O192  1  0.89947590  0.16996119  0.42852281  1
  O2-  O193  1  0.87981277  0.10431045  0.98016331  1
  O2-  O194  1  0.87405219  0.43606762  0.46052064  1
  O2-  O195  1  0.87424497  0.42963999  0.98973393  1
  O2-  O196  1  0.89078863  0.77689645  0.46110244  1
  O2-  O197  1  0.88284237  0.79192610  0.97972132  1
  O2-  O198  1  0.09769237  0.22032525  0.03699977  1
  O2-  O199  1  0.13466111  0.21282278  0.51993576  1
  O2-  O200  1  0.09450589  0.55752890  0.04679783  1
  O2-  O201  1  0.07869735  0.51984638  0.51682079  1
  O2-  O202  1  0.09534540  0.89412825  0.03952388  1
  O2-  O203  1  0.10867731  0.90476602  0.53490405  1
  O2-  O204  1  0.41168104  0.24245861  0.04190345  1
  O2-  O205  1  0.45288212  0.21455158  0.54792280  1
  O2-  O206  1  0.45770065  0.53818444  0.02992139  1
  O2-  O207  1  0.38875929  0.57317292  0.54579042  1
  O2-  O208  1  0.45195063  0.88048055  0.01821788  1
  O2-  O209  1  0.43845953  0.88907798  0.52913633  1
  O2-  O210  1  0.77873940  0.21606995  0.06748323  1
  O2-  O211  1  0.77233470  0.23177579  0.53683960  1
  O2-  O212  1  0.77181875  0.55571928  0.05042133  1
  O2-  O213  1  0.78681693  0.56224600  0.52558759  1
  O2-  O214  1  0.78532718  0.89516484  0.03146414  1
  O2-  O215  1  0.75251833  0.85005155  0.53981697  1
