# generated using pymatgen
data_H2O
_symmetry_space_group_name_H-M   'P 1'
_cell_length_a   13.51893215
_cell_length_b   13.51170610
_cell_length_c   14.68495103
_cell_angle_alpha   90.16618409
_cell_angle_beta   89.96548030
_cell_angle_gamma   119.92021464
_symmetry_Int_Tables_number   1
_chemical_formula_structural   H2O
_chemical_formula_sum   'H144 O72'
_cell_volume   2324.88929912
_cell_formula_units_Z   72
loop_
 _symmetry_equiv_pos_site_id
 _symmetry_equiv_pos_as_xyz
  1  'x, y, z'
loop_
 _atom_type_symbol
 _atom_type_oxidation_number
  H+  1.0
  O2-  -2.0
loop_
 _atom_site_type_symbol
 _atom_site_label
 _atom_site_symmetry_multiplicity
 _atom_site_fract_x
 _atom_site_fract_y
 _atom_site_fract_z
 _atom_site_occupancy
  H+  H0  1  0.32946162  0.49866763  -0.00216958  1
  H+  H1  1  0.43894684  0.81516515  0.80123370  1
  H+  H2  1  0.86074559  0.38750109  0.74495614  1
  H+  H3  1  0.52107678  0.37179324  0.26078307  1
  H+  H4  1  0.87672685  0.15513357  0.29033662  1
  H+  H5  1  0.09384297  0.50561959  -0.03867256  1
  H+  H6  1  0.30448559  0.49901597  0.23558127  1
  H+  H7  1  0.80015599  0.52080837  0.00091244  1
  H+  H8  1  0.76575194  0.87906572  0.59465393  1
  H+  H9  1  0.87967701  0.49594860  0.48282065  1
  H+  H10  1  0.84213056  0.81093125  0.48646852  1
  H+  H11  1  0.69759179  0.85542280  0.74273349  1
  H+  H12  1  0.81362874  0.84816958  0.73795895  1
  H+  H13  1  0.43839585  0.22452571  0.16745880  1
  H+  H14  1  0.58486929  0.81560314  0.24882093  1
  H+  H15  1  0.97109591  0.83118268  0.75220785  1
  H+  H16  1  0.69638618  0.17728957  0.26988554  1
  H+  H17  1  0.12030112  0.62926412  -0.00522397  1
  H+  H18  1  0.67513600  0.87578172  0.22259893  1
  H+  H19  1  0.23224483  0.11479725  0.85634576  1
  H+  H20  1  0.17082400  0.31203813  0.23993562  1
  H+  H21  1  0.21413432  0.49474585  0.01967865  1
  H+  H22  1  0.30072219  0.15400598  0.76017593  1
  H+  H23  1  0.17275695  0.43394894  0.47582628  1
  H+  H24  1  0.70053581  0.51779137  0.23621962  1
  H+  H25  1  1.00309175  0.48557541  0.23453770  1
  H+  H26  1  0.49566652  0.31484715  0.51105757  1
  H+  H27  1  0.50725604  0.65519385  0.01075029  1
  H+  H28  1  0.33386520  0.20486906  0.30636198  1
  H+  H29  1  0.42336517  0.89416798  -0.01530912  1
  H+  H30  1  0.85788319  1.03467811  -0.01993039  1
  H+  H31  1  0.16973772  0.86213603  0.23044218  1
  H+  H32  1  0.48657895  0.19328566  1.02314226  1
  H+  H33  1  0.46341499  0.16906177  0.72515775  1
  H+  H34  1  0.51563325  0.69877892  0.77966066  1
  H+  H35  1  0.82324106  0.18530325  0.51681051  1
  H+  H36  1  0.78238415  0.18835927  0.19296601  1
  H+  H37  1  0.36429751  0.18072915  0.02480892  1
  H+  H38  1  0.16356058  0.89725877  0.50562557  1
  H+  H39  1  0.45398327  -0.01280979  0.78128361  1
  H+  H40  1  0.16043086  0.29953976  0.00889646  1
  H+  H41  1  0.35797365  0.88319509  0.22418348  1
  H+  H42  1  0.18018239  0.51292943  0.74303616  1
  H+  H43  1  0.47181867  0.63481145  0.23595526  1
  H+  H44  1  0.51714578  0.16508322  0.48954985  1
  H+  H45  1  0.70312719  0.19605120  -0.03104861  1
  H+  H46  1  0.35271135  0.51396478  0.46767931  1
  H+  H47  1  0.84855752  0.70644893  0.97977916  1
  H+  H48  1  0.84114582  0.64751739  0.50140588  1
  H+  H49  1  0.36257867  0.49834504  0.77254727  1
  H+  H50  1  0.37167645  0.22594745  0.48473250  1
  H+  H51  1  0.18660688  0.76082263  0.45711149  1
  H+  H52  1  0.89999508  0.05151123  0.27271414  1
  H+  H53  1  -0.00584974  0.14520965  0.75785212  1
  H+  H54  1  0.54825603  0.84114629  1.00147934  1
  H+  H55  1  0.60289545  0.49801629  0.54650788  1
  H+  H56  1  0.20773800  0.74654854  0.25205702  1
  H+  H57  1  1.04140764  0.18602905  0.99435844  1
  H+  H58  1  0.48854206  0.19433484  0.25506166  1
  H+  H59  1  0.51918005  0.04433827  0.25846659  1
  H+  H60  1  0.25763453  0.78323552  1.01104009  1
  H+  H61  1  0.54350796  0.06080296  0.97944853  1
  H+  H62  1  0.52088869  0.50733871  -0.01712246  1
  H+  H63  1  0.15438781  0.17248067  0.76008755  1
  H+  H64  1  0.87394698  0.87658163  0.23397680  1
  H+  H65  1  0.85951830  0.70161250  0.25543719  1
  H+  H66  1  0.51400835  0.50029749  0.48246243  1
  H+  H67  1  1.03372685  0.86217724  0.51199534  1
  H+  H68  1  0.37499883  0.87261849  0.49571147  1
  H+  H69  1  0.18805420  0.15203233  -0.01016169  1
  H+  H70  1  0.55570325  0.11585330  0.35446375  1
  H+  H71  1  0.85105876  0.71012977  0.75071912  1
  H+  H72  1  0.18544149  0.34944385  0.77851848  1
  H+  H73  1  0.74152343  0.22258452  0.74022821  1
  H+  H74  1  0.69288884  0.85263807  0.50183051  1
  H+  H75  1  0.70016582  0.51507573  0.72953666  1
  H+  H76  1  0.85506292  0.35630711  0.26618620  1
  H+  H77  1  0.94164458  0.49434152  0.97740046  1
  H+  H78  1  0.20610718  0.20332711  0.29672969  1
  H+  H79  1  0.17134259  0.59241969  0.51270739  1
  H+  H80  1  0.73593338  0.52346723  0.48749034  1
  H+  H81  1  0.52006632  0.47418245  0.76776988  1
  H+  H82  1  0.49382602  0.98216469  0.50939126  1
  H+  H83  1  0.83124769  0.30713197  0.50299074  1
  H+  H84  1  0.78525363  0.24013754  0.05454890  1
  H+  H85  1  0.14496064  0.50217305  0.22009633  1
  H+  H86  1  0.81657554  0.51344209  0.23125531  1
  H+  H87  1  0.84613015  1.02702503  0.50612957  1
  H+  H88  1  0.63847263  0.16819022  0.49397018  1
  H+  H89  1  0.64425161  0.50292148  -0.01148496  1
  H+  H90  1  0.78351420  0.55933710  0.63962896  1
  H+  H91  1  0.76745706  0.56076887  0.09452020  1
  H+  H92  1  0.03120186  0.85072971  -0.00095810  1
  H+  H93  1  0.85111974  0.50976708  0.74617824  1
  H+  H94  1  0.15736559  0.80964581  -0.00957541  1
  H+  H95  1  0.51307835  0.72018350  0.47017460  1
  H+  H96  1  0.77023809  0.90474305  0.21664593  1
  H+  H97  1  0.55457272  0.06533754  0.71754392  1
  H+  H98  1  -0.01117341  0.47791526  0.48758307  1
  H+  H99  1  0.13011089  0.52976827  0.60641082  1
  H+  H100  1  -0.14311123  0.01921093  0.75035939  1
  H+  H101  1  0.85441077  0.15294188  0.96647950  1
  H+  H102  1  0.16034881  0.19216496  0.51667434  1
  H+  H103  1  0.06053805  0.19331372  0.26736655  1
  H+  H104  1  0.66217759  0.83282986  0.99984487  1
  H+  H105  1  0.52068035  0.35612181  0.75870979  1
  H+  H106  1  0.14030949  -0.03346166  0.74630877  1
  H+  H107  1  0.13877978  0.96683695  0.22040289  1
  H+  H108  1  0.24535774  0.83765067  0.37037540  1
  H+  H109  1  0.51499366  0.83993783  0.48260268  1
  H+  H110  1  0.82739878  0.91709813  0.09062576  1
  H+  H111  1  0.08143010  0.52644253  0.13041743  1
  H+  H112  1  0.48549107  0.52168811  0.23642055  1
  H+  H113  1  0.89203768  0.78356235  0.88826715  1
  H+  H114  1  0.23643803  0.77306375  0.84935512  1
  H+  H115  1  0.90544280  0.11310769  0.42429492  1
  H+  H116  1  0.46403894  0.56721155  0.09615722  1
  H+  H117  1  0.89279842  0.77841478  0.39871362  1
  H+  H118  1  0.20425869  0.63949208  0.73083247  1
  H+  H119  1  0.10183039  0.89520637  0.65421911  1
  H+  H120  1  0.56823397  0.45873738  0.34396151  1
  H+  H121  1  0.56113133  0.45052540  0.89261567  1
  H+  H122  1  0.03133971  0.16398345  0.53410513  1
  H+  H123  1  0.83058307  0.37242721  0.96422227  1
  H+  H124  1  0.44239570  0.54275846  0.68675446  1
  H+  H125  1  0.43320806  0.22388126  0.64066880  1
  H+  H126  1  0.55486632  0.12027108  0.88327386  1
  H+  H127  1  0.22012744  0.34959934  0.43960037  1
  H+  H128  1  0.22150706  0.45641939  0.32288690  1
  H+  H129  1  0.10847901  0.88486049  0.09108187  1
  H+  H130  1  0.80337620  0.25898237  0.64308291  1
  H+  H131  1  0.22605768  0.43514903  0.86575879  1
  H+  H132  1  0.89669061  0.10102014  0.84588644  1
  H+  H133  1  0.56756843  0.78529446  0.86249546  1
  H+  H134  1  0.83938683  0.86276453  -0.00281698  1
  H+  H135  1  0.88327640  0.46622787  0.84283591  1
  H+  H136  1  0.46459441  0.86283079  0.22665483  1
  H+  H137  1  0.98361684  0.81418455  0.25539952  1
  H+  H138  1  0.91137209  0.45056157  0.34655859  1
  H+  H139  1  0.18909829  0.03355495  0.98893829  1
  H+  H140  1  0.46252762  0.92215006  0.09227871  1
  H+  H141  1  0.11607611  0.21204345  0.66828492  1
  H+  H142  1  0.42012198  0.58079160  0.55469758  1
  H+  H143  1  0.51473790  0.77597576  0.34289546  1
  O2-  O144  1  0.14051393  0.22839291  0.24304746  1
  O2-  O145  1  0.11049064  0.21188611  0.73744627  1
  O2-  O146  1  0.08727973  0.52775035  0.19828435  1
  O2-  O147  1  0.15348603  0.55980849  0.71093800  1
  O2-  O148  1  0.10909586  0.88727782  0.20280502  1
  O2-  O149  1  0.09284516  0.88813769  0.72225602  1
  O2-  O150  1  0.44631216  0.23418187  0.23634244  1
  O2-  O151  1  0.43837181  0.22446210  0.70897976  1
  O2-  O152  1  0.44272926  0.55643977  0.20817688  1
  O2-  O153  1  0.44625626  0.54382804  0.75295959  1
  O2-  O154  1  0.44260125  0.91731174  0.20103817  1
  O2-  O155  1  0.39611527  0.85323199  0.82460314  1
  O2-  O156  1  0.78224491  0.21461709  0.25475241  1
  O2-  O157  1  0.81390081  0.27473691  0.71131312  1
  O2-  O158  1  0.77942319  0.55585625  0.20924581  1
  O2-  O159  1  0.78086486  0.56000674  0.70785144  1
  O2-  O160  1  0.85829277  0.93556788  0.20645389  1
  O2-  O161  1  0.77560233  0.89230806  0.71593257  1
  O2-  O162  1  0.25825838  0.17847826  0.33925557  1
  O2-  O163  1  0.22327425  0.11379887  0.78795220  1
  O2-  O164  1  0.22154792  0.46042777  0.25455460  1
  O2-  O165  1  0.23050835  0.43152987  0.79827347  1
  O2-  O166  1  0.24159891  0.82779889  0.26499925  1
  O2-  O167  1  0.27758314  0.78094506  0.79143687  1
  O2-  O168  1  0.56408602  0.12292330  0.28627246  1
  O2-  O169  1  0.50702053  0.06987428  0.76545177  1
  O2-  O170  1  0.56379537  0.45607273  0.27732389  1
  O2-  O171  1  0.56537228  0.43628778  0.78401343  1
  O2-  O172  1  0.50207439  0.76321419  0.27511093  1
  O2-  O173  1  0.55197966  0.78083147  0.79547048  1
  O2-  O174  1  0.92707692  0.12492245  0.30781653  1
  O2-  O175  1  0.90455283  0.10060885  0.77594095  1
  O2-  O176  1  0.90291036  0.44147153  0.27742455  1
  O2-  O177  1  0.89374103  0.47106547  0.77370859  1
  O2-  O178  1  0.90403665  0.77963446  0.28141169  1
  O2-  O179  1  0.88626488  0.78838367  0.77577487  1
  O2-  O180  1  0.28169763  0.24567830  0.42637728  1
  O2-  O181  1  0.23271353  0.11430209  0.96871108  1
  O2-  O182  1  0.22584258  0.42584960  0.43361239  1
  O2-  O183  1  0.24546640  0.45668422  0.98303943  1
  O2-  O184  1  0.24449256  0.83813390  0.44110780  1
  O2-  O185  1  0.19146147  0.75818006  0.97146108  1
  O2-  O186  1  0.55980689  0.12626595  0.46885362  1
  O2-  O187  1  0.57487463  0.13689170  0.94867869  1
  O2-  O188  1  0.56865317  0.47059355  0.48655230  1
  O2-  O189  1  0.56189445  0.46380302  0.96136604  1
  O2-  O190  1  0.55661270  0.80146812  0.45327401  1
  O2-  O191  1  0.58014326  0.79267194  0.97987167  1
  O2-  O192  1  0.89163495  0.11047175  0.49129812  1
  O2-  O193  1  0.89542333  0.11198696  0.94916565  1
  O2-  O194  1  0.91263446  0.44962427  0.45778746  1
  O2-  O195  1  0.86358506  0.45612792  0.94961821  1
  O2-  O196  1  0.88595819  0.77299876  0.46665657  1
  O2-  O197  1  0.89535971  0.78571169  0.95721176  1
  O2-  O198  1  0.11851940  0.21694965  0.02056199  1
  O2-  O199  1  0.11060870  0.20511214  0.55865904  1
  O2-  O200  1  0.07835823  0.54377362  0.01170045  1
  O2-  O201  1  0.11956890  0.51670078  0.53704857  1
  O2-  O202  1  0.11154388  0.88522501  0.02197664  1
  O2-  O203  1  0.10908961  0.91117096  0.54021957  1
  O2-  O204  1  0.44021737  0.21927207  0.05564493  1
  O2-  O205  1  0.44016503  0.23346360  0.52161491  1
  O2-  O206  1  0.46667058  0.57138052  0.02718702  1
  O2-  O207  1  0.43288369  0.56519040  0.49232154  1
  O2-  O208  1  0.48896131  0.92921706  0.02572782  1
  O2-  O209  1  0.45097338  0.89966401  0.52440207  1
  O2-  O210  1  0.78808809  0.23810284  -0.01169821  1
  O2-  O211  1  0.78685825  0.23218732  0.53409637  1
  O2-  O212  1  0.76281856  0.56312060  0.02608611  1
  O2-  O213  1  0.80712839  0.56418276  0.52246731  1
  O2-  O214  1  0.80469177  0.90684550  0.02483153  1
  O2-  O215  1  0.77160652  0.88233647  0.52701898  1
