# generated using pymatgen
data_H2O
_symmetry_space_group_name_H-M   'P 1'
_cell_length_a   13.55059628
_cell_length_b   13.51750579
_cell_length_c   14.67255841
_cell_angle_alpha   89.89726089
_cell_angle_beta   90.09434020
_cell_angle_gamma   120.15342473
_symmetry_Int_Tables_number   1
_chemical_formula_structural   H2O
_chemical_formula_sum   'H144 O72'
_cell_volume   2323.89813960
_cell_formula_units_Z   72
loop_
 _symmetry_equiv_pos_site_id
 _symmetry_equiv_pos_as_xyz
  1  'x, y, z'
loop_
 _atom_type_symbol
 _atom_type_oxidation_number
  H+  1.0
  O2-  -2.0
loop_
 _atom_site_type_symbol
 _atom_site_label
 _atom_site_symmetry_multiplicity
 _atom_site_fract_x
 _atom_site_fract_y
 _atom_site_fract_z
 _atom_site_occupancy
  H+  H0  1  0.12449899  0.60185296  0.60380713  1
  H+  H1  1  1.02497235  0.84644239  0.52435128  1
  H+  H2  1  0.19197378  0.86759787  0.25323889  1
  H+  H3  1  0.13045769  0.94138972  0.01405230  1
  H+  H4  1  0.93235932  0.36990956  0.23947421  1
  H+  H5  1  0.50928490  0.03276805  0.99489206  1
  H+  H6  1  0.82979917  0.84625542  0.52063308  1
  H+  H7  1  0.70011605  0.17410456  0.73341661  1
  H+  H8  1  0.82870067  0.78256622  0.01117725  1
  H+  H9  1  0.15933203  0.55500960  0.75146404  1
  H+  H10  1  0.85642137  0.14569227  -0.02294074  1
  H+  H11  1  0.55270824  0.73196475  0.35626692  1
  H+  H12  1  0.34182629  0.21975419  0.77106786  1
  H+  H13  1  0.63567172  0.26572918  0.27406863  1
  H+  H14  1  0.84155651  0.98101870  0.73682577  1
  H+  H15  1  0.57187802  0.13145041  0.25215693  1
  H+  H16  1  0.04728485  0.54585655  0.51693501  1
  H+  H17  1  0.30840837  0.47931290  0.25299332  1
  H+  H18  1  0.21306344  0.77632964  1.13010523  1
  H+  H19  1  0.14564821  0.64495283  0.05490763  1
  H+  H20  1  0.33531094  0.85720632  0.04544674  1
  H+  H21  1  0.83917933  0.97120989  0.51693522  1
  H+  H22  1  0.87006623  0.15890851  0.49968554  1
  H+  H23  1  0.84577010  0.68197686  0.50629095  1
  H+  H24  1  0.76530045  0.21677994  0.22139549  1
  H+  H25  1  0.38615218  0.00197008  0.48001578  1
  H+  H26  1  0.81017501  -0.05972942  1.02351948  1
  H+  H27  1  0.79762013  0.82242701  0.25842454  1
  H+  H28  1  0.13977064  -0.01987352  0.74723078  1
  H+  H29  1  0.13754390  0.97112627  0.52026181  1
  H+  H30  1  0.50784996  0.77086679  0.23123649  1
  H+  H31  1  0.18240512  0.47512359  0.26739716  1
  H+  H32  1  0.48106043  0.61824930  0.23220923  1
  H+  H33  1  0.87777770  0.41394355  0.74006881  1
  H+  H34  1  0.85193706  0.48368172  0.48026974  1
  H+  H35  1  0.76979809  0.55296444  0.63771608  1
  H+  H36  1  0.39067392  -0.00236676  0.53081199  1
  H+  H37  1  0.67281149  0.81154828  0.24096354  1
  H+  H38  1  0.99076391  0.52899144  0.76387874  1
  H+  H39  1  0.63862889  0.50659587  0.75287498  1
  H+  H40  1  0.13973570  0.82849783  0.04845187  1
  H+  H41  1  0.02121792  0.24279554  0.20317909  1
  H+  H42  1  0.48306356  0.49082842  0.50997701  1
  H+  H43  1  0.52123975  0.13049096  0.74962783  1
  H+  H44  1  0.70444091  0.15715745  0.48654802  1
  H+  H45  1  0.17753735  0.15843883  0.49883085  1
  H+  H46  1  0.48262600  0.30627612  0.50773493  1
  H+  H47  1  0.15493989  0.34010083  0.73990728  1
  H+  H48  1  -0.01158652  0.17253629  0.75556107  1
  H+  H49  1  0.15750686  0.67183783  0.76826000  1
  H+  H50  1  0.18168657  0.71537160  0.47377781  1
  H+  H51  1  0.14936118  0.31779377  0.23318855  1
  H+  H52  1  0.17001264  0.83416131  0.79964044  1
  H+  H53  1  0.55075827  0.43224682  0.40440649  1
  H+  H54  1  0.22506096  0.47408041  0.85196294  1
  H+  H55  1  0.82145696  0.54125040  0.73345675  1
  H+  H56  1  0.47261344  0.70547493  0.96860620  1
  H+  H57  1  0.56634804  0.88629042  0.86954618  1
  H+  H58  1  0.49926820  0.96014441  0.27092791  1
  H+  H59  1  0.85822748  0.36016517  -0.01968821  1
  H+  H60  1  0.02891263  0.52380147  0.02568179  1
  H+  H61  1  0.17131288  0.49290790  1.00549369  1
  H+  H62  1  0.47370204  0.51714523  0.00177842  1
  H+  H63  1  0.40925167  0.12269891  0.24433641  1
  H+  H64  1  0.79366132  0.49217280  1.01756220  1
  H+  H65  1  0.49122308  0.56361556  0.73165037  1
  H+  H66  1  0.86044966  0.15388113  0.76004917  1
  H+  H67  1  0.48801267  0.45816863  0.26003948  1
  H+  H68  1  0.83988476  0.70657630  0.74140451  1
  H+  H69  1  0.29219061  0.15345059  0.49182553  1
  H+  H70  1  0.91965894  0.46154438  0.39713944  1
  H+  H71  1  0.37382249  0.93655641  0.25115761  1
  H+  H72  1  0.72526764  0.42251705  0.56399254  1
  H+  H73  1  0.55848645  0.46074948  0.84167346  1
  H+  H74  1  0.22749718  0.12793986  0.90677978  1
  H+  H75  1  0.44530080  -0.18919022  0.70065658  1
  H+  H76  1  0.10987824  0.89860672  0.66105494  1
  H+  H77  1  0.19057459  0.35969891  0.48563105  1
  H+  H78  1  0.31748289  0.29459993  0.83843159  1
  H+  H79  1  0.31398262  0.15707986  0.24775287  1
  H+  H80  1  0.55976237  0.95430818  0.49123601  1
  H+  H81  1  0.03754479  0.19307159  0.51136919  1
  H+  H82  1  0.86407030  0.33157810  0.51563729  1
  H+  H83  1  0.60810195  0.90853441  0.77025813  1
  H+  H84  1  0.48380363  0.33808195  0.26619501  1
  H+  H85  1  0.55808373  0.12276745  0.91261324  1
  H+  H86  1  0.17470977  0.23490522  0.74497361  1
  H+  H87  1  0.53207964  0.82562608  0.47281986  1
  H+  H88  1  0.32909468  0.47655695  0.48715922  1
  H+  H89  1  0.83460009  0.84953421  0.73983186  1
  H+  H90  1  0.14811118  0.17577600  1.00489074  1
  H+  H91  1  0.71169238  0.16328830  0.00108849  1
  H+  H92  1  0.14840454  0.15607149  0.26876362  1
  H+  H93  1  0.94724454  0.09323804  0.27476824  1
  H+  H94  1  0.50434188  0.32425153  0.73788070  1
  H+  H95  1  0.98691053  0.15153918  0.98158135  1
  H+  H96  1  0.90780671  0.11311134  0.88166851  1
  H+  H97  1  0.30417239  0.51737827  0.76074269  1
  H+  H98  1  0.63929623  0.46667492  0.49505109  1
  H+  H99  1  0.47295107  0.66828095  0.69547602  1
  H+  H100  1  -0.05457345  0.78173522  0.01125533  1
  H+  H101  1  0.10941770  -0.03223893  0.24445169  1
  H+  H102  1  0.47295761  0.17426718  0.02661800  1
  H+  H103  1  0.28832274  0.13769114  0.00001009  1
  H+  H104  1  0.82070116  -0.01499761  0.27187142  1
  H+  H105  1  0.67729422  0.50033183  0.24780203  1
  H+  H106  1  0.35463398  0.51451535  0.00683873  1
  H+  H107  1  0.84129075  0.15934723  0.22933152  1
  H+  H108  1  0.41680688  0.20456702  0.10940368  1
  H+  H109  1  0.88831234  0.10106767  0.41004420  1
  H+  H110  1  0.62297007  0.47412661  0.99025015  1
  H+  H111  1  0.51653030  0.83673489  0.60943344  1
  H+  H112  1  0.82522049  0.25770926  0.60943385  1
  H+  H113  1  0.16875445  0.37371952  0.99106537  1
  H+  H114  1  0.82978000  0.67310485  0.27374468  1
  H+  H115  1  0.89425900  0.45349373  0.90145867  1
  H+  H116  1  0.80621122  0.20516194  0.08222039  1
  H+  H117  1  0.44901575  0.23556392  0.65528491  1
  H+  H118  1  0.43835801  0.54618608  0.59042074  1
  H+  H119  1  0.07857914  0.52525417  0.16646070  1
  H+  H120  1  0.11846233  0.24621542  0.60079234  1
  H+  H121  1  0.08113371  0.88531024  0.15642803  1
  H+  H122  1  0.50210938  0.36068459  -0.01365513  1
  H+  H123  1  0.76870485  0.86744589  0.11413074  1
  H+  H124  1  0.80087128  0.26524843  0.79403111  1
  H+  H125  1  0.23660623  0.81898716  0.33201643  1
  H+  H126  1  0.18913900  0.11335235  0.35745092  1
  H+  H127  1  0.44474865  0.93027585  0.10844551  1
  H+  H128  1  0.64553779  0.13572067  0.39031769  1
  H+  H129  1  -0.05345436  0.79571066  0.27286426  1
  H+  H130  1  0.56006503  0.03567608  0.77872675  1
  H+  H131  1  0.79660721  0.61194074  1.02098853  1
  H+  H132  1  0.51397054  0.66224328  0.45184065  1
  H+  H133  1  0.23935387  0.43830079  0.38897061  1
  H+  H134  1  0.96115826  0.82310802  0.75711874  1
  H+  H135  1  0.19137666  0.78469321  0.89073441  1
  H+  H136  1  0.42401125  0.52713056  0.14835607  1
  H+  H137  1  0.75657328  0.53806841  0.16120178  1
  H+  H138  1  0.17622243  0.82887332  0.47569117  1
  H+  H139  1  0.10380828  0.22158168  0.08917487  1
  H+  H140  1  0.80060251  0.90072455  0.63908598  1
  H+  H141  1  0.87941880  0.75413621  0.41442659  1
  H+  H142  1  0.46806452  0.18079461  0.51494631  1
  H+  H143  1  0.44722369  0.80587646  -0.01854858  1
  O2-  O144  1  0.09222632  0.24046905  0.20424244  1
  O2-  O145  1  0.12149906  0.25840383  0.71854207  1
  O2-  O146  1  0.08239886  0.51110924  0.23496461  1
  O2-  O147  1  0.11921635  0.59696896  0.73406199  1
  O2-  O148  1  0.08106694  0.88770511  0.22551731  1
  O2-  O149  1  0.10651217  0.90007035  0.73024197  1
  O2-  O150  1  0.39448332  0.18408960  0.22715824  1
  O2-  O151  1  0.45789779  0.24034489  0.72293717  1
  O2-  O152  1  0.42501631  0.52688101  0.21646430  1
  O2-  O153  1  0.43797565  0.58225640  0.70041091  1
  O2-  O154  1  0.46107220  0.99217187  0.23523064  1
  O2-  O155  1  0.50866584  0.80470675  0.67562813  1
  O2-  O156  1  0.83574805  0.22125492  0.19530224  1
  O2-  O157  1  0.78858001  0.22381416  0.73684091  1
  O2-  O158  1  0.75820378  0.54161198  0.22900916  1
  O2-  O159  1  0.77565019  0.57233857  0.70607874  1
  O2-  O160  1  0.76193123  0.86590920  0.23338036  1
  O2-  O161  1  0.79799895  0.90121146  0.71355507  1
  O2-  O162  1  0.18264736  0.11051277  0.28897518  1
  O2-  O163  1  0.27766920  0.22107527  0.80676086  1
  O2-  O164  1  0.22629493  0.43581069  0.28289251  1
  O2-  O165  1  0.22397022  0.47439686  0.78381194  1
  O2-  O166  1  0.25359632  0.84964301  0.26737493  1
  O2-  O167  1  0.20704671  0.79325567  0.82550927  1
  O2-  O168  1  0.64533111  0.19897027  0.27221740  1
  O2-  O169  1  0.57145693  0.09922591  0.73714305  1
  O2-  O170  1  0.52741985  0.41810029  0.28709828  1
  O2-  O171  1  0.55725163  0.46472072  0.77367548  1
  O2-  O172  1  0.54902906  0.73294352  0.25062827  1
  O2-  O173  1  0.61287788  0.95061264  0.82666467  1
  O2-  O174  1  0.86928425  0.07109701  0.29227217  1
  O2-  O175  1  0.90878948  0.12047276  0.77992999  1
  O2-  O176  1  0.96435758  0.44672559  0.26781296  1
  O2-  O177  1  0.90560275  0.48007160  0.78031230  1
  O2-  O178  1  0.86940594  0.75246844  0.30135104  1
  O2-  O179  1  0.87777728  0.78559459  0.76860857  1
  O2-  O180  1  0.21069952  0.11362763  0.47178494  1
  O2-  O181  1  0.21067056  0.10464932  0.97161660  1
  O2-  O182  1  0.24266297  0.43905325  0.45897376  1
  O2-  O183  1  0.20830856  0.45470979  0.97215082  1
  O2-  O184  1  0.20605241  0.78834285  0.43987057  1
  O2-  O185  1  0.20674937  0.77206874  1.06333624  1
  O2-  O186  1  0.63777245  0.10133299  0.45065206  1
  O2-  O187  1  0.56445919  0.11609083  0.97828507  1
  O2-  O188  1  0.55323573  0.43179551  0.47253504  1
  O2-  O189  1  0.54428020  0.43910928  0.96141196  1
  O2-  O190  1  0.56262223  0.73817505  0.42538267  1
  O2-  O191  1  0.46768251  0.76615837  0.93531147  1
  O2-  O192  1  0.90408408  0.11286141  0.47680837  1
  O2-  O193  1  0.90456163  0.10957617  0.95293980  1
  O2-  O194  1  0.90829076  0.45792926  0.46351543  1
  O2-  O195  1  0.89052901  0.44255836  0.96869272  1
  O2-  O196  1  0.88542973  0.76075121  0.48330637  1
  O2-  O197  1  0.86479041  0.73774270  0.99091243  1
  O2-  O198  1  0.10365404  0.21556565  0.02113163  1
  O2-  O199  1  0.11938485  0.23866559  0.53298148  1
  O2-  O200  1  0.10246541  0.55420556  0.05866711  1
  O2-  O201  1  0.12736079  0.59251586  0.53744915  1
  O2-  O202  1  0.08917162  0.86829414  0.04673071  1
  O2-  O203  1  0.10402214  0.89425812  0.54900619  1
  O2-  O204  1  0.42547917  0.20870535  0.04173887  1
  O2-  O205  1  0.43355968  0.22542857  0.53487808  1
  O2-  O206  1  0.43438538  0.55488784  0.02965930  1
  O2-  O207  1  0.43487521  0.52720568  0.52370735  1
  O2-  O208  1  0.42395915  0.91039508  0.04403288  1
  O2-  O209  1  0.51281037  0.87474586  0.51272486  1
  O2-  O210  1  0.79560540  0.20107703  0.01398324  1
  O2-  O211  1  0.83234169  0.25304483  0.54324320  1
  O2-  O212  1  0.74908819  0.52684740  0.03962167  1
  O2-  O213  1  0.75084411  0.49759098  0.53678101  1
  O2-  O214  1  0.76767375  0.86220589  0.04620856  1
  O2-  O215  1  0.80073090  0.89483551  0.54670158  1
