# generated using pymatgen
data_H2O
_symmetry_space_group_name_H-M   'P 1'
_cell_length_a   13.52645905
_cell_length_b   13.52774943
_cell_length_c   14.70222753
_cell_angle_alpha   89.97474260
_cell_angle_beta   90.00026739
_cell_angle_gamma   119.95869722
_symmetry_Int_Tables_number   1
_chemical_formula_structural   H2O
_chemical_formula_sum   'H144 O72'
_cell_volume   2330.79452054
_cell_formula_units_Z   72
loop_
 _symmetry_equiv_pos_site_id
 _symmetry_equiv_pos_as_xyz
  1  'x, y, z'
loop_
 _atom_type_symbol
 _atom_type_oxidation_number
  H+  1.0
  O2-  -2.0
loop_
 _atom_site_type_symbol
 _atom_site_label
 _atom_site_symmetry_multiplicity
 _atom_site_fract_x
 _atom_site_fract_y
 _atom_site_fract_z
 _atom_site_occupancy
  H+  H0  1  0.39753353  0.21213380  0.48709862  1
  H+  H1  1  0.77539644  0.20922226  0.58836908  1
  H+  H2  1  0.14046904  0.29092165  0.50784811  1
  H+  H3  1  0.14100354  0.31567499  0.24075597  1
  H+  H4  1  0.69846607  0.15303201  0.73452672  1
  H+  H5  1  0.84409022  0.14017788  0.48672133  1
  H+  H6  1  0.50568305  0.51965653  1.00449223  1
  H+  H7  1  0.21316653  0.17081493  0.70194359  1
  H+  H8  1  0.69497294  0.51131772  0.23504877  1
  H+  H9  1  0.52598643  0.35716995  -0.00159987  1
  H+  H10  1  0.64286853  0.47743840  1.00031355  1
  H+  H11  1  0.87492644  0.09705487  0.34713623  1
  H+  H12  1  0.52583517  0.12598657  0.75464903  1
  H+  H13  1  0.90638430  0.74707269  0.75385882  1
  H+  H14  1  0.67469183  0.15508909  0.24105004  1
  H+  H15  1  0.34907385  0.86585312  0.49885334  1
  H+  H16  1  0.18093399  0.48927582  0.23999381  1
  H+  H17  1  0.51080442  0.03773845  0.48541883  1
  H+  H18  1  0.80272393  0.93691347  0.74931003  1
  H+  H19  1  0.18419096  0.69601287  -0.01263028  1
  H+  H20  1  0.82917712  0.79943528  0.52203578  1
  H+  H21  1  0.05109266  0.18816772  0.74092576  1
  H+  H22  1  0.68262258  0.87672474  1.00196701  1
  H+  H23  1  0.54201986  0.09614978  0.35690204  1
  H+  H24  1  0.47540380  0.64450488  0.74419473  1
  H+  H25  1  0.02743655  0.52017437  0.23944953  1
  H+  H26  1  0.87509484  0.42158464  0.84554049  1
  H+  H27  1  0.52515185  0.36773461  0.26449110  1
  H+  H28  1  0.21723515  1.05336454  0.69855671  1
  H+  H29  1  0.61936787  0.79622300  0.47646393  1
  H+  H30  1  0.16988198  0.45628250  0.49372301  1
  H+  H31  1  0.49252418  0.13275015  0.26658365  1
  H+  H32  1  0.52557336  0.29137766  0.71656993  1
  H+  H33  1  0.79243398  0.15634882  0.23233288  1
  H+  H34  1  0.50014990  0.68171442  0.47718857  1
  H+  H35  1  0.78798756  0.86033005  -0.00469998  1
  H+  H36  1  0.48973744  0.53444624  0.74407199  1
  H+  H37  1  0.55697282  0.06587481  0.84181144  1
  H+  H38  1  0.48606992  0.85120970  0.24546357  1
  H+  H39  1  0.79699700  0.66787594  0.98455161  1
  H+  H40  1  0.95514216  0.14883330  0.26036854  1
  H+  H41  1  0.17045053  0.15239274  0.50321812  1
  H+  H42  1  0.43192927  0.13706751  0.03634792  1
  H+  H43  1  0.53029882  0.16531063  0.47253066  1
  H+  H44  1  0.83107881  0.81193916  0.24880497  1
  H+  H45  1  -0.01029003  0.19199395  0.01971021  1
  H+  H46  1  0.70121901  0.17834986  0.49707963  1
  H+  H47  1  1.04006267  0.85317342  1.01039307  1
  H+  H48  1  0.61451415  0.81141131  0.75987801  1
  H+  H49  1  0.42553293  0.89681418  0.58917448  1
  H+  H50  1  0.83515883  0.44735337  0.75005812  1
  H+  H51  1  0.46965955  0.37849011  0.78745120  1
  H+  H52  1  0.67281223  0.46557032  0.72271347  1
  H+  H53  1  0.48424429  0.98445973  0.25621562  1
  H+  H54  1  0.78399123  0.57992173  0.71771251  1
  H+  H55  1  0.35347209  0.84073126  0.73260915  1
  H+  H56  1  0.24312602  0.03601177  1.04571293  1
  H+  H57  1  0.14727141  0.34137245  1.00258905  1
  H+  H58  1  0.07778292  0.89725977  0.74583293  1
  H+  H59  1  0.62303270  0.81549540  0.25119872  1
  H+  H60  1  0.28162676  0.21290305  1.03963319  1
  H+  H61  1  0.14668518  0.51217454  0.75064715  1
  H+  H62  1  -0.05048857  0.81816383  0.26355149  1
  H+  H63  1  0.18363067  0.81555375  0.24231538  1
  H+  H64  1  0.36247208  0.18415165  0.24747906  1
  H+  H65  1  0.96914639  0.48401925  0.49299853  1
  H+  H66  1  0.85934569  0.49810058  0.26184929  1
  H+  H67  1  0.81230971  0.51315577  0.01092902  1
  H+  H68  1  0.48957397  0.52556153  0.52094121  1
  H+  H69  1  0.13548683  0.96664750  0.50122445  1
  H+  H70  1  0.66091012  0.15082849  1.00696141  1
  H+  H71  1  0.16360842  0.70284034  0.47617592  1
  H+  H72  1  0.77924481  0.80840085  0.73930091  1
  H+  H73  1  0.16494046  0.31216779  0.74455403  1
  H+  H74  1  0.50394526  0.89668025  -0.01640414  1
  H+  H75  1  0.16259563  0.81954861  0.47079478  1
  H+  H76  1  0.17707463  0.05186050  0.29078570  1
  H+  H77  1  -0.05081065  0.46823946  -0.00969697  1
  H+  H78  1  0.13878276  0.19615647  0.24656960  1
  H+  H79  1  0.78786289  0.63519123  0.52041057  1
  H+  H80  1  0.17767076  0.92994760  0.14913276  1
  H+  H81  1  0.85384272  0.36861653  0.48961471  1
  H+  H82  1  0.80630333  0.96403160  0.23586658  1
  H+  H83  1  0.82606339  0.18236348  0.99417683  1
  H+  H84  1  0.28808044  0.45731092  0.49639155  1
  H+  H85  1  0.47807896  0.95466101  0.73038423  1
  H+  H86  1  0.48241545  0.63464340  0.23604571  1
  H+  H87  1  0.29766764  0.48398034  0.24259266  1
  H+  H88  1  0.80630643  0.95635443  0.50730240  1
  H+  H89  1  0.36157630  0.84927272  0.23981784  1
  H+  H90  1  0.52356086  0.48395721  0.25753647  1
  H+  H91  1  0.22532763  0.61742716  0.54387057  1
  H+  H92  1  0.82165867  0.35772977  0.99312836  1
  H+  H93  1  0.39748289  0.18977125  0.69912809  1
  H+  H94  1  0.30448818  0.49121409  0.77059505  1
  H+  H95  1  0.41307964  0.54751672  -0.03060966  1
  H+  H96  1  0.49530123  0.81268063  0.75213738  1
  H+  H97  1  0.96050327  0.13647552  0.48972693  1
  H+  H98  1  0.04282175  0.80107123  -0.00493173  1
  H+  H99  1  0.14904998  0.15722111  1.04521378  1
  H+  H100  1  0.16674525  0.85312850  0.73427250  1
  H+  H101  1  0.51980354  0.72286599  0.99153520  1
  H+  H102  1  0.24805503  0.12351767  0.56016646  1
  H+  H103  1  0.26861472  0.44804726  1.02090564  1
  H+  H104  1  0.13564332  0.50829481  0.00991402  1
  H+  H105  1  0.16881290  0.69101307  0.75718554  1
  H+  H106  1  0.21362384  0.77328009  0.84434446  1
  H+  H107  1  0.02296532  0.50119917  0.74437531  1
  H+  H108  1  0.45271479  0.21576698  0.16437131  1
  H+  H109  1  0.42964644  0.55174691  0.59973702  1
  H+  H110  1  0.72813735  0.20768437  0.10430598  1
  H+  H111  1  0.54335054  0.76838146  0.34134227  1
  H+  H112  1  -0.05452731  0.79268485  0.51174139  1
  H+  H113  1  0.22183368  0.44137250  0.85865818  1
  H+  H114  1  0.26170825  0.92947433  0.02251574  1
  H+  H115  1  0.18044310  0.11853728  0.87625326  1
  H+  H116  1  0.82229569  0.71477607  0.83812795  1
  H+  H117  1  0.77377755  0.55248105  0.10497653  1
  H+  H118  1  0.09785034  0.55318807  0.09578364  1
  H+  H119  1  0.56217829  0.44282267  0.86161540  1
  H+  H120  1  0.10462886  0.21806622  0.59972587  1
  H+  H121  1  0.21437651  0.08839498  0.87678505  1
  H+  H122  1  0.81444302  0.27456086  0.73737538  1
  H+  H123  1  0.90224906  1.07435761  0.67557479  1
  H+  H124  1  0.56502493  0.21595584  0.04771477  1
  H+  H125  1  0.21750724  0.77766142  0.33470172  1
  H+  H126  1  0.23547655  0.14234153  0.36742706  1
  H+  H127  1  0.14932084  0.63500696  0.22872778  1
  H+  H128  1  0.06866583  0.22529138  0.11339763  1
  H+  H129  1  0.73517909  0.51627315  0.58399800  1
  H+  H130  1  0.47995313  0.23869393  0.57042613  1
  H+  H131  1  0.12225002  0.56141884  0.61133101  1
  H+  H132  1  0.54114885  0.78641011  0.89508795  1
  H+  H133  1  0.82762115  0.06794693  0.98025763  1
  H+  H134  1  0.85388966  0.13370368  0.73676605  1
  H+  H135  1  0.30822475  0.80484529  0.97120829  1
  H+  H136  1  0.89850219  0.79088503  0.96455878  1
  H+  H137  1  0.90004535  0.46510622  0.35343940  1
  H+  H138  1  0.45266927  0.55827131  0.14767657  1
  H+  H139  1  0.76441245  0.89369810  0.14316144  1
  H+  H140  1  0.75432389  0.87696250  0.59594800  1
  H+  H141  1  0.10736470  0.88444917  0.58502444  1
  H+  H142  1  0.05722004  0.82311714  0.15329428  1
  H+  H143  1  0.81051395  0.63357845  0.23224053  1
  O2-  O144  1  0.09293449  0.22984124  0.22546767  1
  O2-  O145  1  0.13068497  0.23366975  0.71795753  1
  O2-  O146  1  0.10492581  0.55525688  0.20654029  1
  O2-  O147  1  0.10456967  0.54886233  0.72447448  1
  O2-  O148  1  0.11444203  0.88116453  0.19327890  1
  O2-  O149  1  0.13793591  0.90320743  0.70593189  1
  O2-  O150  1  0.44393490  0.21396981  0.23177589  1
  O2-  O151  1  0.48055052  0.21378692  0.69329959  1
  O2-  O152  1  0.44662482  0.55376708  0.21432736  1
  O2-  O153  1  0.43785962  0.56165549  0.72444661  1
  O2-  O154  1  0.44629614  0.89581489  0.22566808  1
  O2-  O155  1  0.43090764  0.87391524  0.70576204  1
  O2-  O156  1  0.74744719  0.18988643  0.20742738  1
  O2-  O157  1  0.77878601  0.19660081  0.71044767  1
  O2-  O158  1  0.77555521  0.55363680  0.20841459  1
  O2-  O159  1  0.75004192  0.49968190  0.69590450  1
  O2-  O160  1  0.76308761  0.88448222  0.21049024  1
  O2-  O161  1  0.74973019  0.86051218  0.72388876  1
  O2-  O162  1  0.22574192  0.13371396  0.30083499  1
  O2-  O163  1  0.25831641  0.13498883  0.68028705  1
  O2-  O164  1  0.21581529  0.44306411  0.25934196  1
  O2-  O165  1  0.22278313  0.44728589  0.79117439  1
  O2-  O166  1  0.22702347  0.77953492  0.26688372  1
  O2-  O167  1  0.21064386  0.77311267  0.77601253  1
  O2-  O168  1  0.53008300  0.08757465  0.28656525  1
  O2-  O169  1  0.56017350  0.07878283  0.77113535  1
  O2-  O170  1  0.57009810  0.45014537  0.27767658  1
  O2-  O171  1  0.54866016  0.43963023  0.79352037  1
  O2-  O172  1  0.54163674  0.77597407  0.27199543  1
  O2-  O173  1  0.53404555  0.77358769  0.78267634  1
  O2-  O174  1  0.87383852  0.09816701  0.27927627  1
  O2-  O175  1  0.89963040  0.09283451  0.73933762  1
  O2-  O176  1  0.90932211  0.47037161  0.28623096  1
  O2-  O177  1  0.88218266  0.41765365  0.77798337  1
  O2-  O178  1  0.86781672  0.76883417  0.27252359  1
  O2-  O179  1  0.82577001  0.71082378  0.76951196  1
  O2-  O180  1  0.22089353  0.11622175  0.49598535  1
  O2-  O181  1  0.21329260  0.14168937  1.05486819  1
  O2-  O182  1  0.20676652  0.41237531  0.47648920  1
  O2-  O183  1  0.20398514  0.42281052  0.97960318  1
  O2-  O184  1  0.20397598  0.77971489  0.44891825  1
  O2-  O185  1  0.22667998  0.77458243  0.96011994  1
  O2-  O186  1  0.56310614  0.11481081  0.45589299  1
  O2-  O187  1  0.57015306  0.05085817  0.94062483  1
  O2-  O188  1  0.61892987  0.55346559  0.55325090  1
  O2-  O189  1  0.56162434  0.43629020  0.97461136  1
  O2-  O190  1  0.54282078  0.75785306  0.44832182  1
  O2-  O191  1  0.54799105  0.79813867  0.96314925  1
  O2-  O192  1  0.88003323  0.09404330  0.46704924  1
  O2-  O193  1  0.87205166  0.15085022  0.96884658  1
  O2-  O194  1  0.88994321  0.45073294  0.47375540  1
  O2-  O195  1  0.87035000  0.43457451  0.96513095  1
  O2-  O196  1  0.86412247  0.74957630  0.52978254  1
  O2-  O197  1  0.81833399  0.74023912  0.94848063  1
  O2-  O198  1  0.07003277  0.22297590  0.04496448  1
  O2-  O199  1  0.09688073  0.20809640  0.53255334  1
  O2-  O200  1  0.09807504  0.55263497  0.02657124  1
  O2-  O201  1  0.14212944  0.57390393  0.54449313  1
  O2-  O202  1  0.27704604  0.98939032  0.06732013  1
  O2-  O203  1  0.09639695  0.88393598  0.51827558  1
  O2-  O204  1  0.49176687  0.21586250  0.05061227  1
  O2-  O205  1  0.47796169  0.24416787  0.50343351  1
  O2-  O206  1  0.46833739  0.56642924  0.01828690  1
  O2-  O207  1  0.42583780  0.54129338  0.53277886  1
  O2-  O208  1  0.47308965  0.94976053  -0.01744806  1
  O2-  O209  1  0.42588176  0.91577072  0.52388149  1
  O2-  O210  1  0.71577661  0.22490349  0.03896156  1
  O2-  O211  1  0.78130572  0.21585318  0.52091677  1
  O2-  O212  1  0.76916547  0.55041918  0.03424134  1
  O2-  O213  1  0.71978347  0.54508346  0.52486729  1
  O2-  O214  1  0.76398847  0.91150468  0.02239734  1
  O2-  O215  1  0.76335544  0.87533804  0.52934269  1
