# generated using pymatgen
data_H2O
_symmetry_space_group_name_H-M   'P 1'
_cell_length_a   13.53450887
_cell_length_b   13.50931687
_cell_length_c   14.69855264
_cell_angle_alpha   89.95579282
_cell_angle_beta   90.04766942
_cell_angle_gamma   120.01883062
_symmetry_Int_Tables_number   1
_chemical_formula_structural   H2O
_chemical_formula_sum   'H144 O72'
_cell_volume   2327.01116845
_cell_formula_units_Z   72
loop_
 _symmetry_equiv_pos_site_id
 _symmetry_equiv_pos_as_xyz
  1  'x, y, z'
loop_
 _atom_type_symbol
 _atom_type_oxidation_number
  H+  1.0
  O2-  -2.0
loop_
 _atom_site_type_symbol
 _atom_site_label
 _atom_site_symmetry_multiplicity
 _atom_site_fract_x
 _atom_site_fract_y
 _atom_site_fract_z
 _atom_site_occupancy
  H+  H0  1  0.30264076  0.47515512  0.75912900  1
  H+  H1  1  0.61425479  0.14894994  0.48712670  1
  H+  H2  1  0.13960012  0.30264209  1.01547198  1
  H+  H3  1  0.50814554  0.02232707  0.47858463  1
  H+  H4  1  0.29162957  0.15159717  0.49617711  1
  H+  H5  1  0.47621579  0.51657118  0.23523635  1
  H+  H6  1  0.71614594  0.50959051  0.51595225  1
  H+  H7  1  0.46909608  0.96754248  0.74122066  1
  H+  H8  1  0.49175164  0.51909807  0.00699752  1
  H+  H9  1  0.77371619  0.88764532  0.65276827  1
  H+  H10  1  0.82353691  0.85136592  0.51517054  1
  H+  H11  1  0.46794272  0.83490857  0.23675323  1
  H+  H12  1  0.86828909  0.85514158  0.24601905  1
  H+  H13  1  0.69049362  0.84721748  0.00079642  1
  H+  H14  1  0.14307142  0.17827346  0.24886408  1
  H+  H15  1  0.52812576  0.71145134  0.48125926  1
  H+  H16  1  0.17182161  0.03477221  0.50000186  1
  H+  H17  1  0.81706102  0.52731887  0.24069512  1
  H+  H18  1  0.64806103  0.51391945  0.26067011  1
  H+  H19  1  0.81081410  0.84594154  0.74220095  1
  H+  H20  1  0.16614121  0.15422153  0.00581079  1
  H+  H21  1  0.35933770  0.84050611  1.00579472  1
  H+  H22  1  0.48346167  0.84751585  0.50996134  1
  H+  H23  1  0.53034866  0.49689857  0.76020935  1
  H+  H24  1  0.35846963  0.85483628  0.24177074  1
  H+  H25  1  0.81912332  0.84042955  -0.00361017  1
  H+  H26  1  0.21554317  0.11503549  0.92149436  1
  H+  H27  1  0.47186147  0.16953287  0.50085417  1
  H+  H28  1  0.52064036  0.70152893  0.99700829  1
  H+  H29  1  0.83435301  0.51199658  0.50264651  1
  H+  H30  1  0.43984856  0.54989049  0.09567630  1
  H+  H31  1  0.64693615  0.49101531  0.74820030  1
  H+  H32  1  0.83198475  1.02108436  0.23161048  1
  H+  H33  1  0.88651859  0.17865290  0.38673823  1
  H+  H34  1  0.14760239  0.95446826  0.75357166  1
  H+  H35  1  0.81823925  -0.02850158  0.99335328  1
  H+  H36  1  0.49218836  0.68868292  0.25489672  1
  H+  H37  1  0.70297648  0.15505267  0.23191144  1
  H+  H38  1  0.50513647  0.15451796  0.75496000  1
  H+  H39  1  0.97137722  0.53339223  0.80696006  1
  H+  H40  1  0.19805138  0.48819595  0.48290852  1
  H+  H41  1  0.47615657  0.85324989  0.74608963  1
  H+  H42  1  0.44675307  0.55370580  0.84690851  1
  H+  H43  1  0.08737117  0.49086633  0.04108470  1
  H+  H44  1  0.56639382  0.44657579  0.60193327  1
  H+  H45  1  0.02050146  0.18426780  0.01282518  1
  H+  H46  1  0.15199132  0.29769538  0.72843472  1
  H+  H47  1  0.63446134  0.82682210  0.76318151  1
  H+  H48  1  0.93882704  0.44970168  0.25421415  1
  H+  H49  1  0.16820999  0.34151352  0.26608843  1
  H+  H50  1  0.84531923  0.14216245  0.97988971  1
  H+  H51  1  0.13181362  0.84811216  0.99265485  1
  H+  H52  1  0.85709376  0.72597695  0.24582142  1
  H+  H53  1  0.52824154  0.48888529  0.51820208  1
  H+  H54  1  0.77201632  0.21518805  0.84585100  1
  H+  H55  1  0.17427569  0.46516622  0.27044699  1
  H+  H56  1  0.04308305  0.50519865  0.49072793  1
  H+  H57  1  0.82757457  0.31007618  0.77304458  1
  H+  H58  1  0.14475942  0.85789988  0.25399053  1
  H+  H59  1  0.21993368  0.50371581  0.96527869  1
  H+  H60  1  0.15417772  0.49895481  0.72683387  1
  H+  H61  1  0.36723515  0.07678138  0.16902232  1
  H+  H62  1  0.17735158  0.68598064  0.75141313  1
  H+  H63  1  0.52173597  0.01522866  0.24699064  1
  H+  H64  1  0.96149240  0.81510293  0.76256604  1
  H+  H65  1  0.90914271  0.32638757  0.45774887  1
  H+  H66  1  0.14589377  -0.02024927  0.25395416  1
  H+  H67  1  0.85991024  0.14996476  0.76158532  1
  H+  H68  1  0.82794896  0.35412082  0.99925107  1
  H+  H69  1  0.37466760  0.52180059  0.49743566  1
  H+  H70  1  0.00394370  0.85156926  0.24597058  1
  H+  H71  1  0.83501162  0.70272488  0.99500105  1
  H+  H72  1  0.30225875  0.82185880  0.49558862  1
  H+  H73  1  0.69886789  0.16747156  1.00217479  1
  H+  H74  1  0.51105386  0.37194391  0.99133943  1
  H+  H75  1  -0.02818697  0.20165381  0.47061470  1
  H+  H76  1  0.13574681  0.83272218  0.74302744  1
  H+  H77  1  0.23881462  0.62237544  0.20070900  1
  H+  H78  1  0.15068324  0.18710391  0.50938949  1
  H+  H79  1  0.18294229  0.70469501  0.48735383  1
  H+  H80  1  0.35407298  0.20503837  0.01875494  1
  H+  H81  1  0.78592911  0.20604452  0.08813294  1
  H+  H82  1  0.52315601  0.02138361  0.98741174  1
  H+  H83  1  0.29443072  0.13793261  0.26798330  1
  H+  H84  1  0.82245059  0.64136761  0.73671098  1
  H+  H85  1  0.31220498  0.13539434  0.77558422  1
  H+  H86  1  0.13104534  -0.03383655  1.00516633  1
  H+  H87  1  0.80365220  0.52104454  0.01654009  1
  H+  H88  1  0.51539582  0.81860837  0.99873181  1
  H+  H89  1  0.18322173  0.71973325  0.27152473  1
  H+  H90  1  0.29134688  0.80773057  0.75720187  1
  H+  H91  1  0.85198992  0.50221857  0.76306244  1
  H+  H92  1  0.97000263  0.82796077  0.50095679  1
  H+  H93  1  0.68891203  0.52509513  0.01214529  1
  H+  H94  1  0.15355325  0.85908603  0.51593693  1
  H+  H95  1  0.03292651  0.48580171  0.70890851  1
  H+  H96  1  0.85407216  1.02755690  0.75034261  1
  H+  H97  1  0.77862621  0.30823261  0.52885408  1
  H+  H98  1  -0.01135875  0.51574421  0.02953987  1
  H+  H99  1  0.62124113  0.15105056  0.75914243  1
  H+  H100  1  0.16601550  0.31621969  0.50960505  1
  H+  H101  1  0.16546827  0.69573397  0.99242850  1
  H+  H102  1  0.43384927  0.87894584  0.09741096  1
  H+  H103  1  0.22240256  0.79906548  0.36012341  1
  H+  H104  1  0.47770769  0.30351774  0.73316228  1
  H+  H105  1  0.85620834  0.70793033  0.49592672  1
  H+  H106  1  0.48099931  0.29129550  0.51688695  1
  H+  H107  1  1.02778517  0.17607755  0.72446124  1
  H+  H108  1  0.44724532  0.57803571  0.58591526  1
  H+  H109  1  0.48964859  0.65032161  0.77440600  1
  H+  H110  1  0.79798177  0.56113194  0.64734614  1
  H+  H111  1  0.12116397  0.55209034  0.57948306  1
  H+  H112  1  0.55501307  0.10227593  0.90021297  1
  H+  H113  1  0.88443941  0.40577972  0.39396127  1
  H+  H114  1  0.56085332  0.79502431  0.85582710  1
  H+  H115  1  0.74589523  0.20968424  0.59800029  1
  H+  H116  1  0.82436103  0.97088289  0.51467366  1
  H+  H117  1  0.56363384  0.09712093  0.33493777  1
  H+  H118  1  0.44077175  0.88515665  0.59942550  1
  H+  H119  1  0.21790727  0.42436909  0.84007448  1
  H+  H120  1  0.95873918  0.82353148  0.98638922  1
  H+  H121  1  0.34950665  0.49760835  0.23529126  1
  H+  H122  1  0.21678272  0.11340292  0.35846458  1
  H+  H123  1  0.11103753  0.22857999  0.62036498  1
  H+  H124  1  0.54369418  0.77741645  0.33800251  1
  H+  H125  1  0.28983317  0.03919730  0.84425522  1
  H+  H126  1  0.09318378  0.21669444  0.16640157  1
  H+  H127  1  0.47348693  0.13983876  0.23169208  1
  H+  H128  1  0.78001566  0.57016496  0.15278342  1
  H+  H129  1  0.31917379  0.48005388  0.98543161  1
  H+  H130  1  0.86543638  0.44193502  0.91526294  1
  H+  H131  1  0.87690010  0.77391339  0.84882712  1
  H+  H132  1  0.77323472  0.91771983  0.16225921  1
  H+  H133  1  0.11098169  0.89371293  0.60585740  1
  H+  H134  1  0.23122906  0.43574378  0.39817780  1
  H+  H135  1  0.11666643  0.57663842  0.16227000  1
  H+  H136  1  0.44502307  0.23622535  0.09689779  1
  H+  H137  1  0.43077954  0.21468018  0.64889381  1
  H+  H138  1  0.89469404  0.10457680  0.89312986  1
  H+  H139  1  0.56055566  0.44465172  0.89806881  1
  H+  H140  1  0.64257923  0.83121879  0.48456518  1
  H+  H141  1  0.82529017  0.33315975  0.25217900  1
  H+  H142  1  0.54847050  0.41427996  0.31783747  1
  H+  H143  1  0.21051405  0.76440051  0.89893073  1
  O2-  O144  1  0.10317645  0.22075760  0.23308966  1
  O2-  O145  1  0.10822815  0.22029804  0.69804047  1
  O2-  O146  1  0.15964712  0.59009020  0.22053413  1
  O2-  O147  1  0.11473149  0.53864851  0.70061648  1
  O2-  O148  1  0.10503641  0.89866713  0.22912225  1
  O2-  O149  1  0.09907489  0.87814677  0.72475817  1
  O2-  O150  1  0.40888287  0.14705872  0.20431098  1
  O2-  O151  1  0.43383966  0.22083046  0.71682775  1
  O2-  O152  1  0.42707268  0.54522696  0.20823704  1
  O2-  O153  1  0.44977698  0.56365019  0.78084292  1
  O2-  O154  1  0.43332306  0.88191930  0.21139345  1
  O2-  O155  1  0.43015569  0.88584180  0.72092043  1
  O2-  O156  1  0.78470794  0.20330439  0.21061123  1
  O2-  O157  1  0.78567517  0.22605173  0.78026107  1
  O2-  O158  1  0.78734018  0.57741396  0.22059422  1
  O2-  O159  1  0.78746673  0.55975450  0.71503610  1
  O2-  O160  1  0.82233743  0.94450414  0.21555767  1
  O2-  O161  1  0.77288771  0.88943723  0.72125488  1
  O2-  O162  1  0.21526036  0.10976272  0.29045267  1
  O2-  O163  1  0.25059487  0.07440770  0.81425250  1
  O2-  O164  1  0.21554753  0.42578795  0.28918286  1
  O2-  O165  1  0.21918762  0.42772678  0.77198276  1
  O2-  O166  1  0.21951481  0.80062595  0.29147191  1
  O2-  O167  1  0.20995752  0.76281671  0.77891759  1
  O2-  O168  1  0.56634121  0.09764342  0.26690281  1
  O2-  O169  1  0.54035788  0.10889424  0.77716441  1
  O2-  O170  1  0.56831244  0.48279897  0.28293480  1
  O2-  O171  1  0.56387576  0.44613449  0.76406310  1
  O2-  O172  1  0.52922254  0.77066760  0.27163835  1
  O2-  O173  1  0.55471373  0.78893759  0.78803608  1
  O2-  O174  1  0.84703454  0.15677476  0.26147852  1
  O2-  O175  1  0.90312884  0.10916715  0.77225658  1
  O2-  O176  1  0.86053362  0.41442958  0.27615666  1
  O2-  O177  1  0.89596071  0.46798178  0.79420734  1
  O2-  O178  1  0.90357841  0.80771106  0.26448575  1
  O2-  O179  1  0.87886535  0.77335391  0.78095705  1
  O2-  O180  1  0.21014072  0.11574492  0.47616273  1
  O2-  O181  1  0.20987726  0.11522066  0.98864401  1
  O2-  O182  1  0.23784815  0.44456123  0.46718522  1
  O2-  O183  1  0.23936014  0.44380023  0.95743107  1
  O2-  O184  1  0.22153849  0.78785962  0.47290332  1
  O2-  O185  1  0.21304214  0.77287601  0.96651887  1
  O2-  O186  1  0.54261644  0.10073965  0.45211451  1
  O2-  O187  1  0.57355484  0.10046666  0.96504290  1
  O2-  O188  1  0.56680503  0.44478462  0.53526885  1
  O2-  O189  1  0.55800705  0.45314262  0.96459102  1
  O2-  O190  1  0.56226210  0.79244371  0.46219292  1
  O2-  O191  1  0.56080811  0.78270371  0.97503134  1
  O2-  O192  1  0.90025173  0.19843731  0.45274032  1
  O2-  O193  1  0.88583140  0.09962373  0.96076816  1
  O2-  O194  1  0.90387473  0.39882013  0.45845220  1
  O2-  O195  1  0.86165190  0.43738658  0.98262253  1
  O2-  O196  1  0.88833407  0.78982435  0.48285959  1
  O2-  O197  1  0.87215718  0.78250227  0.96883926  1
  O2-  O198  1  0.09774964  0.22469707  0.04100882  1
  O2-  O199  1  0.11633447  0.23472677  0.53286204  1
  O2-  O200  1  0.07072507  0.55244920  0.05087631  1
  O2-  O201  1  0.12341613  0.55603576  0.51195311  1
  O2-  O202  1  0.08309672  0.88131912  0.00686331  1
  O2-  O203  1  0.11385085  0.90004438  0.53815140  1
  O2-  O204  1  0.43676364  0.25272793  0.03296916  1
  O2-  O205  1  0.43295578  0.20833480  0.52967902  1
  O2-  O206  1  0.44668519  0.55641989  0.02679902  1
  O2-  O207  1  0.45553342  0.56600256  0.52158219  1
  O2-  O208  1  0.43904687  0.87758414  0.02904278  1
  O2-  O209  1  0.43988770  0.88507943  0.53160939  1
  O2-  O210  1  0.78334956  0.21358736  0.02053014  1
  O2-  O211  1  0.71359967  0.24911237  0.56447765  1
  O2-  O212  1  0.76952722  0.56816236  0.03577489  1
  O2-  O213  1  0.79929766  0.55294441  0.53022433  1
  O2-  O214  1  0.77624171  0.88835938  0.01655356  1
  O2-  O215  1  0.78055431  0.89229383  0.53702918  1
