# generated using pymatgen
data_H2O
_symmetry_space_group_name_H-M   'P 1'
_cell_length_a   13.48004971
_cell_length_b   13.50288511
_cell_length_c   14.68619004
_cell_angle_alpha   90.02294100
_cell_angle_beta   89.92565894
_cell_angle_gamma   119.90745775
_symmetry_Int_Tables_number   1
_chemical_formula_structural   H2O
_chemical_formula_sum   'H144 O72'
_cell_volume   2317.19024003
_cell_formula_units_Z   72
loop_
 _symmetry_equiv_pos_site_id
 _symmetry_equiv_pos_as_xyz
  1  'x, y, z'
loop_
 _atom_type_symbol
 _atom_type_oxidation_number
  H+  1.0
  O2-  -2.0
loop_
 _atom_site_type_symbol
 _atom_site_label
 _atom_site_symmetry_multiplicity
 _atom_site_fract_x
 _atom_site_fract_y
 _atom_site_fract_z
 _atom_site_occupancy
  H+  H0  1  -0.01039022  0.13163809  -0.02884461  1
  H+  H1  1  0.14676638  0.17322890  0.50649151  1
  H+  H2  1  0.46829173  0.82565551  0.78610795  1
  H+  H3  1  0.30434062  0.15103106  0.48859424  1
  H+  H4  1  0.37723595  0.20022141  0.01473313  1
  H+  H5  1  0.81686516  0.51827481  0.50634419  1
  H+  H6  1  0.79845722  0.56057830  0.64823833  1
  H+  H7  1  0.49062148  0.18855204  0.01241509  1
  H+  H8  1  0.84609965  0.20015065  0.72984743  1
  H+  H9  1  0.78064029  0.88901510  0.10582384  1
  H+  H10  1  0.52172155  0.81711881  0.99376254  1
  H+  H11  1  0.15203640  0.18300539  0.24146125  1
  H+  H12  1  0.81670679  0.86021674  0.74029620  1
  H+  H13  1  0.81272005  0.85386898  0.50683351  1
  H+  H14  1  0.86010212  0.70428821  0.76053767  1
  H+  H15  1  0.17607460  0.36244036  0.75380499  1
  H+  H16  1  0.16488276  0.47393006  0.75816843  1
  H+  H17  1  0.36275263  0.50727422  0.25594304  1
  H+  H18  1  0.49509905  0.50765160  0.75252442  1
  H+  H19  1  0.80171347  0.23594059  0.58381962  1
  H+  H20  1  0.79145163  0.96498031  0.74610937  1
  H+  H21  1  0.84279431  0.03258167  0.25893548  1
  H+  H22  1  0.84926494  1.03916113  0.48686567  1
  H+  H23  1  0.14868343  0.30561349  0.01127556  1
  H+  H24  1  0.70028137  0.51565776  1.00021215  1
  H+  H25  1  0.85626549  0.08693653  0.86032817  1
  H+  H26  1  0.73689629  0.07562845  0.82572381  1
  H+  H27  1  0.02605917  0.17339930  0.50771082  1
  H+  H28  1  0.48336439  0.18104520  0.51088670  1
  H+  H29  1  0.85048449  0.48767523  0.97580449  1
  H+  H30  1  0.51070535  1.04458401  0.26691966  1
  H+  H31  1  0.69726565  0.51725817  0.51876257  1
  H+  H32  1  0.31884086  0.17482255  0.25690485  1
  H+  H33  1  0.10861003  0.61421540  0.75672204  1
  H+  H34  1  0.16171969  0.66922503  0.00923721  1
  H+  H35  1  0.55592514  0.10787985  0.90531624  1
  H+  H36  1  0.15186083  0.97910451  0.48084970  1
  H+  H37  1  0.81092382  0.29973958  0.01026189  1
  H+  H38  1  0.51368464  0.81825997  0.24663316  1
  H+  H39  1  0.85492080  0.81428286  1.00325027  1
  H+  H40  1  0.37246841  0.50587237  0.75604673  1
  H+  H41  1  0.22937438  0.90914798  0.23268065  1
  H+  H42  1  0.82729502  0.35178227  0.25891384  1
  H+  H43  1  0.91843091  0.78230051  0.26444944  1
  H+  H44  1  0.54497036  0.37427947  0.75652869  1
  H+  H45  1  0.96168166  0.48418621  0.48397076  1
  H+  H46  1  0.99587834  0.45732206  0.22327339  1
  H+  H47  1  0.81073224  0.18068314  0.23793241  1
  H+  H48  1  0.48298117  0.29984248  0.51439550  1
  H+  H49  1  0.37733321  0.89138798  0.25604354  1
  H+  H50  1  0.63406739  0.15610909  0.26298757  1
  H+  H51  1  0.69954621  0.18608288  0.50687883  1
  H+  H52  1  0.17986971  0.81632484  0.47291954  1
  H+  H53  1  0.70589898  0.84668058  0.01494281  1
  H+  H54  1  0.62326583  0.47430160  0.27925947  1
  H+  H55  1  0.10841725  0.21351240  0.64734841  1
  H+  H56  1  0.78632498  0.60869459  0.23607304  1
  H+  H57  1  0.68292838  0.85134553  0.24200307  1
  H+  H58  1  0.73073277  0.51922065  0.74184331  1
  H+  H59  1  0.17874198  0.48179714  -0.01200796  1
  H+  H60  1  0.20861094  0.05962376  0.79048872  1
  H+  H61  1  0.17775893  0.35265321  0.26106356  1
  H+  H62  1  0.14477537  0.81038825  0.00991563  1
  H+  H63  1  0.87731436  1.00845181  -0.02282556  1
  H+  H64  1  0.80184113  0.49865100  0.23457069  1
  H+  H65  1  0.52851944  0.36927040  -0.01253359  1
  H+  H66  1  0.20669312  0.17168598  0.76134257  1
  H+  H67  1  0.48307645  0.19185886  0.24413190  1
  H+  H68  1  0.51701371  1.03505202  0.49678673  1
  H+  H69  1  0.13877479  0.65505951  0.21047324  1
  H+  H70  1  0.52337071  0.70874821  0.49238107  1
  H+  H71  1  0.53730099  0.14971613  0.76073258  1
  H+  H72  1  0.79652199  0.84497008  0.24756414  1
  H+  H73  1  0.09759066  0.86910251  0.23786531  1
  H+  H74  1  0.44803927  0.22929874  0.15151463  1
  H+  H75  1  0.87911216  0.77017317  0.85540841  1
  H+  H76  1  0.16948694  0.71578310  0.22741068  1
  H+  H77  1  0.88848822  0.11562384  0.34553298  1
  H+  H78  1  0.11656549  0.45766383  0.22609944  1
  H+  H79  1  0.83850343  0.69342687  0.49348122  1
  H+  H80  1  0.51858237  0.68767799  0.76766690  1
  H+  H81  1  0.03870241  0.17648250  0.74066626  1
  H+  H82  1  0.69192794  0.18369334  0.01400678  1
  H+  H83  1  0.39511555  0.19898161  0.74431931  1
  H+  H84  1  0.14074429  0.50641130  0.51355474  1
  H+  H85  1  0.85276077  0.15995033  0.48338522  1
  H+  H86  1  0.88842877  0.33215487  0.71619123  1
  H+  H87  1  0.63904073  0.82788687  0.48642668  1
  H+  H88  1  0.16698297  0.80031551  0.79196554  1
  H+  H89  1  0.36880053  0.85802126  0.50781948  1
  H+  H90  1  0.19971053  0.17460447  1.00180652  1
  H+  H91  1  0.51444960  0.49365081  0.28886924  1
  H+  H92  1  0.48937786  0.63042919  -0.00203064  1
  H+  H93  1  0.20363643  0.05535717  0.25479687  1
  H+  H94  1  0.03251739  0.85489386  0.77988594  1
  H+  H95  1  0.02544640  0.50668114  -0.00012577  1
  H+  H96  1  0.02877798  0.17766032  0.24080425  1
  H+  H97  1  1.02123266  0.82794041  1.01331821  1
  H+  H98  1  -0.04540507  0.81430995  0.47536786  1
  H+  H99  1  0.16776855  0.34585015  0.49588832  1
  H+  H100  1  0.50954741  1.02597023  -0.00685729  1
  H+  H101  1  0.90885828  0.51629852  0.73729976  1
  H+  H102  1  0.37003837  0.51275173  0.99375700  1
  H+  H103  1  0.27721429  0.78383493  0.79177144  1
  H+  H104  1  0.43196087  0.87398102  0.86779253  1
  H+  H105  1  0.63117669  0.81143078  0.75569688  1
  H+  H106  1  0.35846738  0.83497864  0.01764606  1
  H+  H107  1  0.51672217  0.48025564  0.51262836  1
  H+  H108  1  0.54777337  0.78172608  0.34313691  1
  H+  H109  1  0.44287207  0.56048721  0.62173300  1
  H+  H110  1  0.19821754  0.74681705  0.91775802  1
  H+  H111  1  0.77456171  0.54513665  0.09156848  1
  H+  H112  1  0.55682336  0.11709554  0.40851709  1
  H+  H113  1  0.23303610  0.12379869  0.39391147  1
  H+  H114  1  0.45624017  0.88760093  0.09893515  1
  H+  H115  1  0.56077395  0.45348552  0.41764108  1
  H+  H116  1  0.12671622  0.88781274  0.09514693  1
  H+  H117  1  0.28829428  0.45931486  0.49052709  1
  H+  H118  1  0.52331561  0.48626341  -0.02132332  1
  H+  H119  1  0.76863268  0.22100514  0.14925417  1
  H+  H120  1  0.85041324  0.69177363  0.99754110  1
  H+  H121  1  0.51376414  1.02343147  0.77486889  1
  H+  H122  1  0.37249653  0.59923332  0.56337515  1
  H+  H123  1  0.48604018  0.85890743  0.50774603  1
  H+  H124  1  0.20594432  0.42989797  0.35037137  1
  H+  H125  1  0.18345920  0.70052414  0.47886417  1
  H+  H126  1  0.28910013  0.84745821  0.34279686  1
  H+  H127  1  0.90398875  0.45691138  0.88888320  1
  H+  H128  1  0.57819693  0.44959023  0.84783734  1
  H+  H129  1  0.21497688  0.43946432  0.89912020  1
  H+  H130  1  0.56384578  0.96504205  0.19139948  1
  H+  H131  1  0.56801210  0.78154494  0.90602037  1
  H+  H132  1  0.87566596  0.43864223  0.34437913  1
  H+  H133  1  0.84881094  0.75418257  0.35630141  1
  H+  H134  1  0.13678481  0.91170400  0.71103743  1
  H+  H135  1  0.77613749  0.89827898  0.59500850  1
  H+  H136  1  0.10043252  0.89334857  0.56313273  1
  H+  H137  1  0.46318563  0.22708438  0.65103443  1
  H+  H138  1  0.10710899  0.22448741  0.10009254  1
  H+  H139  1  0.09268384  0.54599715  0.59703238  1
  H+  H140  1  0.47856448  0.62719614  0.25187471  1
  H+  H141  1  0.25264627  0.15325549  0.91287636  1
  H+  H142  1  0.84307250  0.36594312  0.48320553  1
  H+  H143  1  0.08875831  0.51488602  0.09466612  1
  O2-  O144  1  0.10905532  0.22033884  0.21742236  1
  O2-  O145  1  0.11598642  0.22042702  0.71588426  1
  O2-  O146  1  0.05739363  0.45784660  0.18562243  1
  O2-  O147  1  0.06773364  0.53686053  0.72567480  1
  O2-  O148  1  0.16452363  0.91884829  0.20165252  1
  O2-  O149  1  0.11951304  0.89673514  0.77556567  1
  O2-  O150  1  0.43794153  0.22502403  0.21902327  1
  O2-  O151  1  0.47387242  0.23290119  0.71877732  1
  O2-  O152  1  0.44533414  0.54415803  0.24126948  1
  O2-  O153  1  0.45200866  0.54750747  0.73254615  1
  O2-  O154  1  0.48403498  0.90452153  0.19432431  1
  O2-  O155  1  0.42094930  0.86200077  0.80191505  1
  O2-  O156  1  0.76541702  0.21711588  0.21857813  1
  O2-  O157  1  0.86909316  0.26112577  0.68356003  1
  O2-  O158  1  0.75741435  0.53311372  0.20731685  1
  O2-  O159  1  0.80999103  0.56239646  0.71614046  1
  O2-  O160  1  0.76657342  0.89317906  0.22253989  1
  O2-  O161  1  0.77027003  0.89140870  0.71389106  1
  O2-  O162  1  0.23538612  0.13191627  0.28267603  1
  O2-  O163  1  0.25527936  0.14355975  0.78927393  1
  O2-  O164  1  0.21302207  0.43370091  0.28322509  1
  O2-  O165  1  0.21431516  0.44263091  0.77656788  1
  O2-  O166  1  0.31535864  0.89842757  0.28928194  1
  O2-  O167  1  0.19246221  0.74358364  0.80375184  1
  O2-  O168  1  0.55566457  0.12270739  0.29136362  1
  O2-  O169  1  0.56798092  0.10388495  0.78975311  1
  O2-  O170  1  0.56105379  0.46325912  0.32068762  1
  O2-  O171  1  0.58242645  0.45510436  0.77890909  1
  O2-  O172  1  0.55099026  0.77602451  0.27590405  1
  O2-  O173  1  0.55490042  0.76962223  0.78633520  1
  O2-  O174  1  0.88735159  0.11483631  0.27749173  1
  O2-  O175  1  0.80921137  0.08425616  0.80367401  1
  O2-  O176  1  0.87093551  0.43478509  0.27647111  1
  O2-  O177  1  0.95111659  0.47920152  0.76515706  1
  O2-  O178  1  0.84079865  0.74958413  0.28743706  1
  O2-  O179  1  0.89058685  0.78186361  0.78821360  1
  O2-  O180  1  0.22454067  0.11278287  0.46251220  1
  O2-  O181  1  0.24784922  0.14227965  0.97946939  1
  O2-  O182  1  0.20733380  0.42737447  0.47379350  1
  O2-  O183  1  0.21950293  0.44101358  0.96653507  1
  O2-  O184  1  0.22636636  0.78061218  0.45723519  1
  O2-  O185  1  0.20081421  0.75338341  0.98608777  1
  O2-  O186  1  0.55850729  0.11785088  0.47665412  1
  O2-  O187  1  0.55062347  0.10753471  0.97349849  1
  O2-  O188  1  0.55913755  0.44436545  0.48962006  1
  O2-  O189  1  0.56957385  0.44828019  0.96022266  1
  O2-  O190  1  0.55788126  0.78536513  0.46469281  1
  O2-  O191  1  0.56889408  0.78254837  0.97375496  1
  O2-  O192  1  0.89481045  0.11916643  0.46376067  1
  O2-  O193  1  0.92652216  0.07068502  0.93428939  1
  O2-  O194  1  0.88113977  0.44806044  0.46230579  1
  O2-  O195  1  0.89202320  0.44728738  0.95524194  1
  O2-  O196  1  0.87038551  0.77194232  0.46509276  1
  O2-  O197  1  0.89602058  0.77479161  0.97785100  1
  O2-  O198  1  0.11024208  0.22431007  0.03212103  1
  O2-  O199  1  0.10596685  0.21110526  0.53383112  1
  O2-  O200  1  0.10369416  0.54348638  0.02778514  1
  O2-  O201  1  0.10323594  0.55153389  0.53027490  1
  O2-  O202  1  0.10711251  0.86287916  0.02927104  1
  O2-  O203  1  0.10360208  0.89390482  0.49699599  1
  O2-  O204  1  0.46036147  0.23796088  0.03507980  1
  O2-  O205  1  0.43910854  0.21791710  0.53420008  1
  O2-  O206  1  0.45286253  0.54685389  0.00611663  1
  O2-  O207  1  0.42637960  0.57137989  0.55626970  1
  O2-  O208  1  0.44216038  0.88013067  0.02599326  1
  O2-  O209  1  0.44792392  0.90017892  0.53165564  1
  O2-  O210  1  0.77097502  0.22383522  0.03923869  1
  O2-  O211  1  0.78464132  0.22989726  0.51678440  1
  O2-  O212  1  0.78207177  0.55491774  0.02358268  1
  O2-  O213  1  0.78150238  0.56154721  0.53426739  1
  O2-  O214  1  0.78627385  0.88178151  0.03838460  1
  O2-  O215  1  0.77674433  0.89934155  0.52696309  1
