# generated using pymatgen
data_H2O
_symmetry_space_group_name_H-M   'P 1'
_cell_length_a   13.52123589
_cell_length_b   13.52194663
_cell_length_c   14.68452679
_cell_angle_alpha   89.97435188
_cell_angle_beta   90.01593613
_cell_angle_gamma   120.07476625
_symmetry_Int_Tables_number   1
_chemical_formula_structural   H2O
_chemical_formula_sum   'H144 O72'
_cell_volume   2323.37045321
_cell_formula_units_Z   72
loop_
 _symmetry_equiv_pos_site_id
 _symmetry_equiv_pos_as_xyz
  1  'x, y, z'
loop_
 _atom_type_symbol
 _atom_type_oxidation_number
  H+  1.0
  O2-  -2.0
loop_
 _atom_site_type_symbol
 _atom_site_label
 _atom_site_symmetry_multiplicity
 _atom_site_fract_x
 _atom_site_fract_y
 _atom_site_fract_z
 _atom_site_occupancy
  H+  H0  1  0.49757147  0.96009266  0.74632549  1
  H+  H1  1  0.52730624  0.70602256  0.48417958  1
  H+  H2  1  -0.03310311  0.13063357  0.50536978  1
  H+  H3  1  0.62238209  0.17383858  0.74769539  1
  H+  H4  1  0.16638576  0.55495898  1.01233300  1
  H+  H5  1  0.50293984  0.31570732  0.50590530  1
  H+  H6  1  0.13293058  0.85520549  0.51816323  1
  H+  H7  1  0.18728603  0.52700187  0.28481740  1
  H+  H8  1  0.10822307  0.30593686  0.72920930  1
  H+  H9  1  0.78567916  0.85730968  0.68838230  1
  H+  H10  1  0.16218945  0.72960796  -0.00201886  1
  H+  H11  1  0.81004101  0.31922102  0.23226463  1
  H+  H12  1  0.52423736  0.36620532  0.76203379  1
  H+  H13  1  0.16278943  0.92644364  0.20728517  1
  H+  H14  1  0.21023846  0.50921643  0.53738855  1
  H+  H15  1  0.48143394  0.83457795  -0.00296299  1
  H+  H16  1  0.49255900  0.97165489  0.50926623  1
  H+  H17  1  0.16184855  0.26111009  0.53015841  1
  H+  H18  1  0.45247494  0.65307841  0.77623978  1
  H+  H19  1  0.10814478  0.23481609  0.06904207  1
  H+  H20  1  0.90604501  0.48795956  0.45586322  1
  H+  H21  1  0.18502060  0.00614850  1.00794552  1
  H+  H22  1  0.49091179  0.85329571  0.50458265  1
  H+  H23  1  0.13400146  0.94376998  0.77890191  1
  H+  H24  1  0.81746182  0.95281523  0.23915294  1
  H+  H25  1  0.83440792  0.62089333  -0.03144431  1
  H+  H26  1  0.48433098  -0.03308484  0.26701771  1
  H+  H27  1  0.39325194  0.15195758  0.21589888  1
  H+  H28  1  0.50133102  0.62364627  0.60942306  1
  H+  H29  1  0.01519733  0.12719239  0.77293174  1
  H+  H30  1  0.15198097  0.68044285  0.55182753  1
  H+  H31  1  0.81269344  0.17975689  0.99321801  1
  H+  H32  1  0.56585288  0.45646805  1.04744259  1
  H+  H33  1  0.45469626  0.57087104  0.09850407  1
  H+  H34  1  0.37365941  0.47775011  0.68423196  1
  H+  H35  1  0.48076827  0.53196370  0.00164822  1
  H+  H36  1  0.15772498  0.16447438  0.59596792  1
  H+  H37  1  0.79644110  0.63711594  0.72757661  1
  H+  H38  1  0.16795735  0.69825634  0.73810246  1
  H+  H39  1  0.82719398  0.34141334  0.72398191  1
  H+  H40  1  0.39374205  0.56252979  0.53979353  1
  H+  H41  1  0.28306341  0.21579014  0.41392881  1
  H+  H42  1  -0.04788529  0.13644583  0.21204012  1
  H+  H43  1  -0.03292533  0.84549594  0.74682898  1
  H+  H44  1  0.93387220  0.48534337  0.25673817  1
  H+  H45  1  0.00478678  0.50522197  0.72611561  1
  H+  H46  1  0.30783921  0.52449357  0.98381000  1
  H+  H47  1  -0.17459754  0.41726259  -0.04815224  1
  H+  H48  1  0.17346919  0.18069383  0.27520959  1
  H+  H49  1  0.45886622  0.93430395  -0.00719722  1
  H+  H50  1  0.65805374  0.17010961  0.25774914  1
  H+  H51  1  -0.02612576  0.14688616  -0.01794040  1
  H+  H52  1  0.30139314  0.17587845  0.69192478  1
  H+  H53  1  0.71766204  0.84716427  -0.00546718  1
  H+  H54  1  0.82717014  0.19098782  0.51777046  1
  H+  H55  1  0.54203707  0.71468307  0.98674886  1
  H+  H56  1  0.83334816  0.10740746  0.75007286  1
  H+  H57  1  0.77783634  0.60626300  0.19673273  1
  H+  H58  1  0.69848615  0.83778396  0.23345836  1
  H+  H59  1  0.49259264  0.28617963  0.00020642  1
  H+  H60  1  0.74603890  0.03861774  0.31548437  1
  H+  H61  1  0.49639327  0.38697605  0.26985821  1
  H+  H62  1  0.78157032  0.07862011  0.78062922  1
  H+  H63  1  0.03070623  0.54191182  0.54959805  1
  H+  H64  1  0.19687561  0.05085341  0.67428339  1
  H+  H65  1  0.49258422  0.52538649  0.24847371  1
  H+  H66  1  0.95429045  0.82013834  0.51729922  1
  H+  H67  1  0.52802437  0.70390928  0.25224377  1
  H+  H68  1  0.19552219  0.11140744  0.46978271  1
  H+  H69  1  0.68973488  0.50200643  0.50920018  1
  H+  H70  1  0.36858629  0.17025962  0.01494887  1
  H+  H71  1  0.80894002  0.47238732  0.24274487  1
  H+  H72  1  0.81798024  0.20267272  0.24141586  1
  H+  H73  1  0.77209199  0.22009147  1.07983196  1
  H+  H74  1  0.52818615  0.17166150  0.23899463  1
  H+  H75  1  0.50996664  0.12724225  0.97488160  1
  H+  H76  1  0.29791750  0.80967065  0.28968383  1
  H+  H77  1  0.57442461  0.13683037  0.35199631  1
  H+  H78  1  0.19330744  0.08378133  1.08914453  1
  H+  H79  1  0.23715159  0.08956254  0.29172541  1
  H+  H80  1  0.16518079  0.32940336  0.20478017  1
  H+  H81  1  0.52305722  0.48580200  0.49444410  1
  H+  H82  1  0.85080122  0.80795457  0.22821000  1
  H+  H83  1  0.19289107  0.40951003  0.96882548  1
  H+  H84  1  0.48181389  0.84858570  0.26148051  1
  H+  H85  1  0.13482446  0.63713291  0.25900555  1
  H+  H86  1  0.39168542  0.19236573  0.51045806  1
  H+  H87  1  0.85730542  0.80589782  0.97917824  1
  H+  H88  1  0.16460576  0.19981773  -0.00736275  1
  H+  H89  1  0.65169079  0.16411183  0.48534984  1
  H+  H90  1  0.94855092  -0.02155282  0.79265297  1
  H+  H91  1  0.90923700  0.50759447  0.78941852  1
  H+  H92  1  0.63849043  0.82487486  0.49762210  1
  H+  H93  1  0.75956765  0.54520196  0.64377581  1
  H+  H94  1  0.03213850  0.82280672  0.20377554  1
  H+  H95  1  0.38278224  0.54749086  0.24016757  1
  H+  H96  1  0.22450239  0.35104981  0.18607834  1
  H+  H97  1  0.30856597  0.82114684  0.50972433  1
  H+  H98  1  0.88267340  0.80580747  0.83188574  1
  H+  H99  1  0.66419407  0.49979224  0.75305967  1
  H+  H100  1  0.80309028  0.84427163  0.55217015  1
  H+  H101  1  0.80466943  0.62042679  0.52187547  1
  H+  H102  1  0.53447086  0.16530685  0.49067974  1
  H+  H103  1  0.66451051  0.47066801  0.98595398  1
  H+  H104  1  0.47922326  0.19475412  0.74257616  1
  H+  H105  1  0.11978589  0.12421018  0.28443929  1
  H+  H106  1  0.96993353  0.79610123  0.96303498  1
  H+  H107  1  0.89557547  0.37840913  0.50235340  1
  H+  H108  1  0.46670924  0.25057912  0.65085493  1
  H+  H109  1  0.11657148  0.83669250  0.07167198  1
  H+  H110  1  0.21831657  0.77075995  0.42733613  1
  H+  H111  1  0.54939477  0.45391482  0.39229457  1
  H+  H112  1  0.86122437  0.01912101  0.98639600  1
  H+  H113  1  0.78176770  0.24461783  0.59387660  1
  H+  H114  1  0.94415023  0.06935878  0.87344134  1
  H+  H115  1  0.65995909  0.50573288  0.23718153  1
  H+  H116  1  0.57199958  0.78258196  0.34262417  1
  H+  H117  1  0.57486599  0.44819575  0.85422366  1
  H+  H118  1  0.27281538  0.09076012  0.85274414  1
  H+  H119  1  0.13937165  0.83571878  0.74055760  1
  H+  H120  1  0.46263822  0.88566841  0.65799059  1
  H+  H121  1  0.85756095  0.09108325  0.37488897  1
  H+  H122  1  0.04482190  0.54300564  0.01712647  1
  H+  H123  1  0.17663869  0.79980257  0.27238889  1
  H+  H124  1  0.50818472  0.78516612  0.75810695  1
  H+  H125  1  0.78960220  0.88138240  0.08840718  1
  H+  H126  1  0.79511584  0.21279333  0.73226932  1
  H+  H127  1  0.47680697  0.20786226  0.12826022  1
  H+  H128  1  0.57352576  0.76998838  0.88881298  1
  H+  H129  1  0.85700768  0.78664832  0.44253122  1
  H+  H130  1  0.10622458  0.56807137  0.16566274  1
  H+  H131  1  0.18690402  0.76545220  0.83570118  1
  H+  H132  1  0.84152051  0.02579767  0.51938539  1
  H+  H133  1  0.62871898  0.13113021  0.97138869  1
  H+  H134  1  0.25768429  0.53348463  0.43527743  1
  H+  H135  1  0.20617164  0.51408812  0.69656005  1
  H+  H136  1  0.54840118  0.11347143  0.83715496  1
  H+  H137  1  0.20950727  0.42796947  0.31135308  1
  H+  H138  1  0.23055916  0.02976015  0.86531839  1
  H+  H139  1  0.88662208  0.73764079  0.29454978  1
  H+  H140  1  0.29914597  0.02354350  0.31450756  1
  H+  H141  1  -0.04824472  0.21611909  0.13762906  1
  H+  H142  1  0.09477836  0.89308449  0.60540291  1
  H+  H143  1  0.05007241  0.21309024  0.65409042  1
  O2-  O144  1  -0.01900014  0.16489613  0.15081451  1
  O2-  O145  1  0.04166745  0.22863148  0.71827716  1
  O2-  O146  1  0.09443852  0.55817089  0.23272347  1
  O2-  O147  1  0.12789302  0.58431485  0.67272573  1
  O2-  O148  1  0.11293492  0.84691619  0.18657427  1
  O2-  O149  1  0.10559909  0.89212643  0.72645443  1
  O2-  O150  1  0.47455112  0.20665113  0.19810179  1
  O2-  O151  1  0.45119139  0.24708079  0.71795288  1
  O2-  O152  1  0.45869691  0.57293661  0.21368379  1
  O2-  O153  1  0.33438589  0.49153454  0.73479345  1
  O2-  O154  1  0.43309531  0.88408965  0.26512076  1
  O2-  O155  1  0.47234864  0.88246968  0.72421931  1
  O2-  O156  1  0.77568571  0.23422274  0.20992310  1
  O2-  O157  1  0.76746882  0.26027229  0.70425440  1
  O2-  O158  1  0.72888216  0.52286819  0.19778513  1
  O2-  O159  1  0.76009638  0.55521365  0.71449203  1
  O2-  O160  1  0.78073546  0.87708759  0.20999802  1
  O2-  O161  1  0.74178027  0.88933925  0.65929309  1
  O2-  O162  1  0.27370988  0.05042961  0.26254062  1
  O2-  O163  1  0.22181410  0.13230433  0.66811912  1
  O2-  O164  1  0.24354209  0.51052905  0.31703882  1
  O2-  O165  1  0.22079329  0.44853772  0.69341970  1
  O2-  O166  1  0.21515502  0.76790251  0.30972201  1
  O2-  O167  1  0.19060766  0.77342419  0.76900224  1
  O2-  O168  1  0.57526266  0.13087488  0.28226616  1
  O2-  O169  1  0.54299201  0.12434269  0.76951220  1
  O2-  O170  1  0.54099268  0.46500220  0.29253962  1
  O2-  O171  1  0.57383458  0.44859687  0.78714562  1
  O2-  O172  1  0.57211189  0.78600808  0.27480799  1
  O2-  O173  1  0.52582928  0.72467729  0.77828326  1
  O2-  O174  1  0.82925301  0.08158798  0.30997949  1
  O2-  O175  1  0.99032527  0.05864257  0.81880324  1
  O2-  O176  1  0.85158618  0.43593885  0.27028241  1
  O2-  O177  1  0.93005397  0.45659411  0.75909204  1
  O2-  O178  1  0.89252521  0.76351482  0.23188897  1
  O2-  O179  1  0.89254278  0.83728575  0.76849402  1
  O2-  O180  1  0.26567955  0.13969289  0.43347283  1
  O2-  O181  1  0.21734853  0.08776820  1.02606659  1
  O2-  O182  1  0.27799489  0.55452435  0.50050113  1
  O2-  O183  1  0.22820530  0.49263771  0.96237232  1
  O2-  O184  1  0.22433541  0.78217212  0.49500214  1
  O2-  O185  1  0.18058358  0.80044942  0.96221444  1
  O2-  O186  1  0.57147023  0.12503998  0.46111155  1
  O2-  O187  1  0.54958366  0.09035304  0.94629620  1
  O2-  O188  1  0.55582960  0.44390979  0.46365657  1
  O2-  O189  1  0.57773056  0.43505649  0.98646771  1
  O2-  O190  1  0.56599858  0.78599333  0.46192207  1
  O2-  O191  1  0.59040355  0.78873113  0.95522805  1
  O2-  O192  1  0.88644691  0.10123645  0.48749215  1
  O2-  O193  1  0.89877267  0.09481225  0.95272188  1
  O2-  O194  1  0.95200589  0.45922390  0.48440938  1
  O2-  O195  1  0.84754865  0.49181845  0.92407560  1
  O2-  O196  1  0.86755578  0.77787204  0.50704582  1
  O2-  O197  1  0.88896647  0.76425729  0.94381216  1
  O2-  O198  1  0.12242584  0.24060737  0.00298068  1
  O2-  O199  1  0.11297120  0.18131486  0.54784838  1
  O2-  O200  1  0.12194379  0.58961862  0.04125760  1
  O2-  O201  1  0.08461421  0.61481310  0.59014476  1
  O2-  O202  1  0.11331224  0.84791955  0.00376521  1
  O2-  O203  1  0.08823302  0.89095018  0.53816189  1
  O2-  O204  1  0.45280663  0.20611095  0.02373053  1
  O2-  O205  1  0.47018786  0.23698123  0.53494939  1
  O2-  O206  1  0.45156063  0.57731062  0.03002279  1
  O2-  O207  1  0.47246831  0.57509407  0.55546131  1
  O2-  O208  1  0.42726352  0.85751256  0.01898640  1
  O2-  O209  1  0.45056315  0.89152288  0.53058216  1
  O2-  O210  1  0.76953973  0.21695803  0.01256871  1
  O2-  O211  1  0.79185817  0.23947820  0.52615828  1
  O2-  O212  1  0.80150302  0.53971307  -0.00937290  1
  O2-  O213  1  0.76634379  0.53925691  0.54041407  1
  O2-  O214  1  0.79853129  0.88464029  0.02106848  1
  O2-  O215  1  0.76459019  0.89120763  0.56145464  1
