# generated using pymatgen
data_H2O
_symmetry_space_group_name_H-M   'P 1'
_cell_length_a   13.51043467
_cell_length_b   13.51981568
_cell_length_c   14.70380505
_cell_angle_alpha   90.00621538
_cell_angle_beta   90.03940995
_cell_angle_gamma   119.99797755
_symmetry_Int_Tables_number   1
_chemical_formula_structural   H2O
_chemical_formula_sum   'H144 O72'
_cell_volume   2325.99699107
_cell_formula_units_Z   72
loop_
 _symmetry_equiv_pos_site_id
 _symmetry_equiv_pos_as_xyz
  1  'x, y, z'
loop_
 _atom_type_symbol
 _atom_type_oxidation_number
  H+  1.0
  O2-  -2.0
loop_
 _atom_site_type_symbol
 _atom_site_label
 _atom_site_symmetry_multiplicity
 _atom_site_fract_x
 _atom_site_fract_y
 _atom_site_fract_z
 _atom_site_occupancy
  H+  H0  1  0.19015374  0.87292172  0.72562308  1
  H+  H1  1  0.69452943  0.84937726  0.46850435  1
  H+  H2  1  0.37162069  0.86330473  0.73003292  1
  H+  H3  1  0.56698449  0.11323325  0.39881825  1
  H+  H4  1  0.15556466  0.31004107  0.00970133  1
  H+  H5  1  0.17674768  0.70096879  0.48201735  1
  H+  H6  1  0.19277310  0.71259011  0.75572308  1
  H+  H7  1  0.30471118  0.49572223  0.77012832  1
  H+  H8  1  0.98698834  0.50325455  0.27863587  1
  H+  H9  1  0.57287118  0.66925896  0.58389561  1
  H+  H10  1  0.83235617  0.79233232  0.75279380  1
  H+  H11  1  0.81460037  0.84184007  -0.00717986  1
  H+  H12  1  0.82963623  1.01656570  0.50387366  1
  H+  H13  1  0.01253792  0.51797420  0.52508052  1
  H+  H14  1  0.82261505  0.32123850  0.78318415  1
  H+  H15  1  0.15405802  0.53257447  0.74610945  1
  H+  H16  1  0.16013536  0.19182656  1.01399139  1
  H+  H17  1  0.78285647  0.89630515  0.21842896  1
  H+  H18  1  0.48268596  0.33977236  -0.00342160  1
  H+  H19  1  0.48965147  0.30281897  0.25771243  1
  H+  H20  1  0.47241286  0.29191850  0.50170965  1
  H+  H21  1  0.80650704  0.83977622  0.49211726  1
  H+  H22  1  0.43999719  0.61229305  0.57288325  1
  H+  H23  1  0.28977182  0.14023165  0.48200265  1
  H+  H24  1  0.64747761  0.16665264  0.26703098  1
  H+  H25  1  0.52005245  0.71200936  0.45583548  1
  H+  H26  1  0.65152002  0.14843038  -0.03130821  1
  H+  H27  1  0.90326936  0.99072694  0.28596709  1
  H+  H28  1  0.81239057  0.61718476  0.52608086  1
  H+  H29  1  0.00947229  0.14736765  0.54313295  1
  H+  H30  1  0.51227485  0.82653850  0.97190327  1
  H+  H31  1  0.82664460  0.33204711  0.25359364  1
  H+  H32  1  -0.02749519  0.50635770  0.77524453  1
  H+  H33  1  0.87931573  0.75035295  0.40555384  1
  H+  H34  1  0.85601362  -0.02238462  0.32029748  1
  H+  H35  1  -0.03075675  0.15193944  0.00024078  1
  H+  H36  1  0.83442467  0.77588381  0.24544847  1
  H+  H37  1  0.52932423  0.48638594  0.49981138  1
  H+  H38  1  0.17767324  0.81893006  0.47909432  1
  H+  H39  1  0.12462700  0.51275393  0.51678972  1
  H+  H40  1  0.15725622  0.32253764  0.74996373  1
  H+  H41  1  0.86706883  0.39597568  -0.00840920  1
  H+  H42  1  0.90750674  0.12375334  0.29643966  1
  H+  H43  1  0.49540459  0.97429388  -0.01897400  1
  H+  H44  1  0.48970665  0.68349671  0.23573081  1
  H+  H45  1  0.35765897  0.85130502  0.49294104  1
  H+  H46  1  0.46910013  0.17384768  0.50557360  1
  H+  H47  1  0.83151178  0.46444353  0.51479813  1
  H+  H48  1  0.29609197  0.49914366  0.99250166  1
  H+  H49  1  0.52447157  0.15814475  0.27171403  1
  H+  H50  1  0.45024206  0.90506887  0.07585649  1
  H+  H51  1  -0.02798146  0.82783405  -0.01707788  1
  H+  H52  1  0.13131389  0.24010073  0.14282556  1
  H+  H53  1  0.20162840  0.37673831  0.23399755  1
  H+  H54  1  0.51378279  0.82244609  0.73741798  1
  H+  H55  1  0.85758935  0.70367112  0.98362862  1
  H+  H56  1  0.11565355  0.89290570  0.09462117  1
  H+  H57  1  0.85070912  0.03424677  0.99809645  1
  H+  H58  1  0.79522687  0.28630714  0.52579651  1
  H+  H59  1  0.69018599  0.49376445  0.24517963  1
  H+  H60  1  0.03483265  0.84924259  0.23668926  1
  H+  H61  1  0.15536544  0.85649440  1.00361165  1
  H+  H62  1  0.64098561  0.47634730  0.50230633  1
  H+  H63  1  0.97602787  0.14804587  0.76981831  1
  H+  H64  1  0.30225140  0.82291713  0.97954154  1
  H+  H65  1  0.79339220  0.16284603  0.53319992  1
  H+  H66  1  0.79705868  0.61743754  0.74646089  1
  H+  H67  1  0.51321278  0.02364567  0.48570000  1
  H+  H68  1  0.11728436  0.26515511  0.52522231  1
  H+  H69  1  0.18380602  0.04047258  0.25407933  1
  H+  H70  1  0.52550195  0.48758860  0.26110523  1
  H+  H71  1  0.59246624  0.62899991  0.02985921  1
  H+  H72  1  0.84473576  0.53511712  0.00064049  1
  H+  H73  1  0.02317844  0.22605694  0.26888554  1
  H+  H74  1  -0.04076396  0.80064609  0.49214546  1
  H+  H75  1  0.44325273  0.89963024  0.63689811  1
  H+  H76  1  0.17268758  0.16392564  0.78042391  1
  H+  H77  1  0.49821823  1.04933751  0.73393639  1
  H+  H78  1  0.15758195  0.85958455  0.23739305  1
  H+  H79  1  0.17324436  0.20206861  0.23516883  1
  H+  H80  1  0.15592279  0.53041549  0.22458397  1
  H+  H81  1  0.49970538  0.50539515  -0.00611573  1
  H+  H82  1  0.90133669  0.47482691  0.87057133  1
  H+  H83  1  0.37678592  0.51047993  0.21004147  1
  H+  H84  1  0.82819370  0.95431534  0.74344371  1
  H+  H85  1  0.65862435  0.15603620  0.50663967  1
  H+  H86  1  0.51232191  0.43267628  0.76653240  1
  H+  H87  1  0.48911385  0.63313916  0.75237025  1
  H+  H88  1  0.70453844  0.84663948  0.73253053  1
  H+  H89  1  0.14058219  0.95624790  0.49442308  1
  H+  H90  1  0.60919480  0.79139776  0.22878187  1
  H+  H91  1  0.49229857  -0.02000399  0.23066260  1
  H+  H92  1  0.84041303  0.22628060  0.24768910  1
  H+  H93  1  0.51641516  0.70909736  0.96746106  1
  H+  H94  1  0.16733028  0.13138166  0.49233841  1
  H+  H95  1  0.75819886  0.45695249  0.17875893  1
  H+  H96  1  0.49498588  0.24765423  0.75627402  1
  H+  H97  1  0.17481191  0.49715015  0.99149695  1
  H+  H98  1  0.86081983  0.67645415  0.25351697  1
  H+  H99  1  0.36493334  0.18027540  0.02686139  1
  H+  H100  1  0.22610525  0.42693337  0.45662180  1
  H+  H101  1  0.47652440  0.85157899  0.48529605  1
  H+  H102  1  0.55178229  0.78744186  0.82841575  1
  H+  H103  1  0.47974571  0.85646140  0.21959323  1
  H+  H104  1  0.01498099  0.51907388  -0.00371220  1
  H+  H105  1  0.18391476  0.04025264  1.00065955  1
  H+  H106  1  0.63681357  0.44877400  0.76238714  1
  H+  H107  1  0.37055033  0.18385626  0.25598885  1
  H+  H108  1  0.56377444  0.45226972  0.35590904  1
  H+  H109  1  0.23293118  0.79329979  0.84343607  1
  H+  H110  1  0.47638727  0.55678434  0.13400752  1
  H+  H111  1  0.21937284  0.45952643  0.85409520  1
  H+  H112  1  0.25602727  0.47515520  0.31062677  1
  H+  H113  1  0.53971291  0.78069145  0.36277272  1
  H+  H114  1  0.10435079  0.36726506  0.40944692  1
  H+  H115  1  0.88184295  0.43364399  0.42677601  1
  H+  H116  1  0.21609338  0.11385974  0.34559819  1
  H+  H117  1  0.30892982  0.83278403  0.24795547  1
  H+  H118  1  0.81375220  0.50759530  0.75198150  1
  H+  H119  1  0.88999617  0.12800210  0.43996505  1
  H+  H120  1  0.69553918  0.84667195  -0.01292826  1
  H+  H121  1  0.82403713  0.19504250  0.01362838  1
  H+  H122  1  0.12188289  0.88845186  0.58650904  1
  H+  H123  1  0.44660791  0.22304195  0.11350076  1
  H+  H124  1  0.46206609  0.53264287  0.68362567  1
  H+  H125  1  0.78881903  0.57539982  0.08046769  1
  H+  H126  1  0.88290396  0.10622333  0.84656963  1
  H+  H127  1  0.76896129  0.53806285  0.61837479  1
  H+  H128  1  0.22963999  0.78744455  0.33824729  1
  H+  H129  1  0.11138547  0.56659067  0.08393270  1
  H+  H130  1  0.14265098  0.03551560  0.78763125  1
  H+  H131  1  0.15610493  0.64852579  0.23335558  1
  H+  H132  1  0.74884163  0.83724437  0.12218210  1
  H+  H133  1  0.86784772  0.50025332  0.28688175  1
  H+  H134  1  0.23251851  1.00076539  0.69994405  1
  H+  H135  1  0.87508090  0.75655760  0.84107217  1
  H+  H136  1  0.10829364  0.56878917  0.65863181  1
  H+  H137  1  0.18218652  0.70333626  0.98013819  1
  H+  H138  1  0.52820281  0.40459710  0.89952484  1
  H+  H139  1  0.22226128  0.12284044  0.91483297  1
  H+  H140  1  0.76451864  0.21980185  0.71511918  1
  H+  H141  1  0.57901815  0.11900721  0.87706536  1
  H+  H142  1  0.77856381  0.23704332  0.09602332  1
  H+  H143  1  0.11772461  0.22940234  0.66805735  1
  O2-  O144  1  0.13941117  0.24921246  0.21239464  1
  O2-  O145  1  0.11990075  0.23942921  0.73496987  1
  O2-  O146  1  0.10811272  0.56621411  0.21588879  1
  O2-  O147  1  0.11464954  0.57466979  0.72589304  1
  O2-  O148  1  0.11490879  0.89827992  0.21595215  1
  O2-  O149  1  0.16710474  0.92376881  0.69314573  1
  O2-  O150  1  0.45296405  0.22141692  0.23837871  1
  O2-  O151  1  0.45128340  0.16397311  0.74088319  1
  O2-  O152  1  0.46122498  0.55079595  0.20182996  1
  O2-  O153  1  0.45030017  0.54725076  0.74663112  1
  O2-  O154  1  0.44491026  0.90366733  0.20231522  1
  O2-  O155  1  0.45112194  0.90649657  0.70399057  1
  O2-  O156  1  0.78780310  0.25303686  0.22803849  1
  O2-  O157  1  0.78282673  0.23664725  0.77906413  1
  O2-  O158  1  0.76860343  0.51989600  0.21779486  1
  O2-  O159  1  0.76197061  0.53403560  0.72349036  1
  O2-  O160  1  0.73965725  0.82045271  0.19108900  1
  O2-  O161  1  0.78520446  0.87553135  0.71716431  1
  O2-  O162  1  0.22478393  0.12078182  0.27751754  1
  O2-  O163  1  0.20066854  0.11294063  0.80492944  1
  O2-  O164  1  0.23933218  0.46340146  0.24595615  1
  O2-  O165  1  0.22238157  0.46183735  0.78587355  1
  O2-  O166  1  0.22803163  0.78913559  0.27030987  1
  O2-  O167  1  0.23942454  0.79452754  0.77527733  1
  O2-  O168  1  0.56795122  0.11857992  0.29090383  1
  O2-  O169  1  0.53837341  0.13125909  0.75475004  1
  O2-  O170  1  0.56448184  0.44784994  0.28791547  1
  O2-  O171  1  0.55531161  0.39496129  0.78371110  1
  O2-  O172  1  0.53074377  0.76646085  0.25296122  1
  O2-  O173  1  0.54725729  0.77610096  0.76085164  1
  O2-  O174  1  0.95308905  0.20622113  0.30672527  1
  O2-  O175  1  0.89723345  0.08828201  0.78486156  1
  O2-  O176  1  0.91039689  0.46341765  0.31024243  1
  O2-  O177  1  0.89399146  0.46912928  0.79997478  1
  O2-  O178  1  0.88710370  0.75451069  0.27523323  1
  O2-  O179  1  0.86324413  0.74229339  0.77485223  1
  O2-  O180  1  0.20794094  0.09783492  0.45938679  1
  O2-  O181  1  0.22471929  0.12291925  0.98355367  1
  O2-  O182  1  0.14464353  0.39595605  0.46731029  1
  O2-  O183  1  0.21755173  0.45416574  0.97093677  1
  O2-  O184  1  0.22014629  0.77953563  0.45654868  1
  O2-  O185  1  0.22087506  0.78523097  0.95875814  1
  O2-  O186  1  0.56229299  0.10799841  0.46857946  1
  O2-  O187  1  0.57885101  0.09204317  0.93922733  1
  O2-  O188  1  0.56279988  0.44342129  0.47294694  1
  O2-  O189  1  0.49373889  0.40728089  0.95838760  1
  O2-  O190  1  0.54702997  0.78888402  0.43143798  1
  O2-  O191  1  0.55414796  0.78870920  0.94498873  1
  O2-  O192  1  0.87043011  0.10500877  0.50356306  1
  O2-  O193  1  0.88811548  0.11589665  0.98108502  1
  O2-  O194  1  0.87144489  0.42156982  0.49388743  1
  O2-  O195  1  0.91117241  0.47708274  0.97364732  1
  O2-  O196  1  0.87717880  0.75538404  0.47258105  1
  O2-  O197  1  0.89116532  0.78630224  0.96191231  1
  O2-  O198  1  0.11846588  0.23213465  0.03705643  1
  O2-  O199  1  0.09402825  0.19007911  0.55241587  1
  O2-  O200  1  0.11275838  0.56262293  0.01713417  1
  O2-  O201  1  0.09664000  0.56364725  0.53738019  1
  O2-  O202  1  0.11502335  0.89667715  0.02706801  1
  O2-  O203  1  0.10413789  0.87671412  0.51924221  1
  O2-  O204  1  0.44628763  0.22314085  0.04646956  1
  O2-  O205  1  0.42283194  0.21013053  0.51636698  1
  O2-  O206  1  0.50949830  0.58250943  0.02516540  1
  O2-  O207  1  0.50646483  0.60757471  0.55283170  1
  O2-  O208  1  0.44656790  0.89457938  0.00906375  1
  O2-  O209  1  0.43984451  0.89239561  0.51349366  1
  O2-  O210  1  0.78271476  0.23671817  0.02929630  1
  O2-  O211  1  0.74732213  0.20265180  0.54397803  1
  O2-  O212  1  0.79837827  0.57608314  0.01487071  1
  O2-  O213  1  0.77030196  0.53656340  0.54794186  1
  O2-  O214  1  0.76921848  0.87591775  0.02065657  1
  O2-  O215  1  0.76840819  0.88561166  0.50090920  1
