# generated using pymatgen
data_H2O
_symmetry_space_group_name_H-M   'P 1'
_cell_length_a   13.52054395
_cell_length_b   13.51505106
_cell_length_c   14.70981911
_cell_angle_alpha   90.00322185
_cell_angle_beta   89.98112989
_cell_angle_gamma   120.01553779
_symmetry_Int_Tables_number   1
_chemical_formula_structural   H2O
_chemical_formula_sum   'H144 O72'
_cell_volume   2327.45757607
_cell_formula_units_Z   72
loop_
 _symmetry_equiv_pos_site_id
 _symmetry_equiv_pos_as_xyz
  1  'x, y, z'
loop_
 _atom_type_symbol
 _atom_type_oxidation_number
  H+  1.0
  O2-  -2.0
loop_
 _atom_site_type_symbol
 _atom_site_label
 _atom_site_symmetry_multiplicity
 _atom_site_fract_x
 _atom_site_fract_y
 _atom_site_fract_z
 _atom_site_occupancy
  H+  H0  1  0.19826906  0.01118682  0.49211954  1
  H+  H1  1  0.52031093  0.69594767  -0.01569528  1
  H+  H2  1  0.14698224  0.51736969  0.51586487  1
  H+  H3  1  0.63390164  0.47841218  0.99825870  1
  H+  H4  1  0.17494648  0.12967949  0.26511568  1
  H+  H5  1  0.55854799  0.77953725  0.89627945  1
  H+  H6  1  0.15654242  0.32006636  -0.01779953  1
  H+  H7  1  0.19171986  0.49661485  0.98423683  1
  H+  H8  1  0.04402148  0.52548662  0.74162917  1
  H+  H9  1  0.86836580  0.77121517  0.90342495  1
  H+  H10  1  0.47165531  0.28065045  -0.01901695  1
  H+  H11  1  0.74668002  0.37683555  0.92618953  1
  H+  H12  1  0.20221131  0.38109666  0.76651718  1
  H+  H13  1  0.49894068  0.30779726  0.76060481  1
  H+  H14  1  0.32192154  0.49930362  0.75461826  1
  H+  H15  1  0.37462192  0.52122276  -0.00629894  1
  H+  H16  1  0.82205493  0.63216111  0.23186440  1
  H+  H17  1  0.80572319  0.95972637  -0.00298784  1
  H+  H18  1  0.08076982  0.19680337  0.46722736  1
  H+  H19  1  0.17069338  0.14344791  -0.01727098  1
  H+  H20  1  0.23211375  0.11120275  0.66745685  1
  H+  H21  1  0.56672184  0.44997391  0.85677967  1
  H+  H22  1  0.21533661  0.76879105  0.39850161  1
  H+  H23  1  0.16174823  0.86083587  0.00929460  1
  H+  H24  1  0.84811796  1.02873259  0.75413938  1
  H+  H25  1  0.86017404  0.37137070  0.74912732  1
  H+  H26  1  0.83717166  0.63962883  0.50746931  1
  H+  H27  1  0.63572655  0.14638971  0.77602906  1
  H+  H28  1  0.53264055  0.38268276  0.26725364  1
  H+  H29  1  0.61655550  0.13264588  0.27645286  1
  H+  H30  1  0.49500094  0.18532992  0.76282700  1
  H+  H31  1  0.83407606  0.82503776  0.25051922  1
  H+  H32  1  0.96976752  0.14665398  0.97859109  1
  H+  H33  1  0.64511422  0.48939829  0.76588941  1
  H+  H34  1  0.15558941  0.63820595  1.00744918  1
  H+  H35  1  0.19617193  0.70443540  0.77343423  1
  H+  H36  1  0.16257975  0.18639262  0.75785323  1
  H+  H37  1  0.62209905  0.82645346  0.47217972  1
  H+  H38  1  0.48400900  0.19575381  0.25160238  1
  H+  H39  1  0.16778304  0.84258248  0.52655934  1
  H+  H40  1  0.81670451  0.18292758  0.73943221  1
  H+  H41  1  0.52068492  0.09944817  0.41025899  1
  H+  H42  1  0.35182410  0.50796625  0.21627142  1
  H+  H43  1  0.29777579  0.82399437  1.01510123  1
  H+  H44  1  0.32265579  0.16190186  0.74451585  1
  H+  H45  1  0.13632709  0.50464378  0.22888375  1
  H+  H46  1  0.38951035  0.53363132  0.52331349  1
  H+  H47  1  0.00506917  0.16045398  0.22229749  1
  H+  H48  1  0.23369287  0.14202181  0.47562124  1
  H+  H49  1  0.50203194  0.81126607  0.23750511  1
  H+  H50  1  0.51842980  0.02822726  0.76938488  1
  H+  H51  1  0.15779933  0.96444633  0.75548645  1
  H+  H52  1  0.88999254  0.44579102  0.83791157  1
  H+  H53  1  0.52513755  0.82448308  0.75719921  1
  H+  H54  1  0.88460358  0.04287155  0.47481285  1
  H+  H55  1  0.83317971  0.35630771  0.49512873  1
  H+  H56  1  0.81324829  0.51807123  0.01222170  1
  H+  H57  1  0.63545916  0.12809010  0.00598459  1
  H+  H58  1  0.82831378  0.52229062  0.73805077  1
  H+  H59  1  0.16488476  0.52923289  0.73794520  1
  H+  H60  1  0.85045320  0.70135236  0.75999488  1
  H+  H61  1  0.95896983  0.47022933  0.49807055  1
  H+  H62  1  -0.03492963  0.14649310  0.77344447  1
  H+  H63  1  0.49639324  1.02339255  0.25640603  1
  H+  H64  1  0.34730492  0.84259278  0.21332572  1
  H+  H65  1  0.51611748  0.47793970  0.98899214  1
  H+  H66  1  0.17698091  0.69066964  0.25297410  1
  H+  H67  1  0.37249134  0.85084164  0.74970796  1
  H+  H68  1  0.50703947  0.53145038  0.51531210  1
  H+  H69  1  0.72328324  0.76649460  0.53411537  1
  H+  H70  1  0.82220048  0.51503634  0.51072251  1
  H+  H71  1  0.51449563  0.70367314  0.48471962  1
  H+  H72  1  0.50086577  0.52406408  0.74910434  1
  H+  H73  1  0.77864058  0.87236041  0.59746696  1
  H+  H74  1  0.16507355  0.33898594  0.22081279  1
  H+  H75  1  0.47640068  0.95782840  0.06817442  1
  H+  H76  1  0.84868614  0.48689373  0.26352549  1
  H+  H77  1  0.70301510  0.51304859  0.24865277  1
  H+  H78  1  0.46592152  0.15998366  0.99176014  1
  H+  H79  1  0.35135144  0.84010307  0.51309380  1
  H+  H80  1  0.52928838  0.70721154  0.75882744  1
  H+  H81  1  0.48538452  1.02456217  0.50064965  1
  H+  H82  1  0.83114848  0.17637782  1.00338153  1
  H+  H83  1  0.88342145  0.82917829  0.48260297  1
  H+  H84  1  1.02087926  0.84049723  0.23160496  1
  H+  H85  1  0.21758946  0.39363640  0.46585749  1
  H+  H86  1  0.05558428  0.84983765  0.53218699  1
  H+  H87  1  0.88448380  0.44058754  0.35259731  1
  H+  H88  1  0.82863710  0.69465181  -0.00539754  1
  H+  H89  1  0.19419164  0.82078335  0.77863259  1
  H+  H90  1  0.82337462  0.85279749  0.73736933  1
  H+  H91  1  0.17203325  0.68664514  0.48711854  1
  H+  H92  1  0.80143200  -0.03237184  0.23719581  1
  H+  H93  1  1.02251874  0.51104089  0.23826435  1
  H+  H94  1  0.66892380  0.83426227  -0.00872398  1
  H+  H95  1  0.96923357  0.81837221  0.76963213  1
  H+  H96  1  0.23572993  0.46624150  0.89182463  1
  H+  H97  1  0.17370722  0.80686918  0.25250023  1
  H+  H98  1  0.82857883  0.34775132  -0.02218704  1
  H+  H99  1  0.47244474  0.84865710  0.50842335  1
  H+  H100  1  0.83275562  0.15910135  0.24615059  1
  H+  H101  1  0.46613040  0.19557209  0.52043606  1
  H+  H102  1  0.80633010  0.31689096  0.24508406  1
  H+  H103  1  0.74907697  0.15528426  0.50918017  1
  H+  H104  1  0.37088756  0.19806781  0.24236065  1
  H+  H105  1  0.64445598  0.49510097  0.49958875  1
  H+  H106  1  0.15600283  -0.00969211  1.00455853  1
  H+  H107  1  0.90980339  0.16724055  0.49224101  1
  H+  H108  1  0.11086861  0.89364225  0.10008660  1
  H+  H109  1  0.07587262  0.12584011  0.15742371  1
  H+  H110  1  0.22149737  0.08020234  0.34285349  1
  H+  H111  1  0.77776904  0.55219674  0.10599727  1
  H+  H112  1  0.82089512  0.73740058  0.32625367  1
  H+  H113  1  0.70493177  0.85442887  0.73674231  1
  H+  H114  1  0.46817409  0.62588326  0.22230544  1
  H+  H115  1  0.28740030  0.13667155  0.97146798  1
  H+  H116  1  0.52199561  0.37921391  0.50527614  1
  H+  H117  1  0.10824399  0.55875930  0.60377407  1
  H+  H118  1  0.46011284  0.24497773  0.61606726  1
  H+  H119  1  0.27811224  0.51470811  0.41301375  1
  H+  H120  1  0.14265140  0.95647917  0.23608993  1
  H+  H121  1  0.23836580  0.79277137  0.91509737  1
  H+  H122  1  0.70124911  0.24506660  0.17910431  1
  H+  H123  1  0.53407655  0.77392629  0.33089850  1
  H+  H124  1  0.88356697  0.12666250  0.33207867  1
  H+  H125  1  0.95144074  0.80674719  0.40428852  1
  H+  H126  1  0.44667107  0.55573220  0.08532139  1
  H+  H127  1  0.57740300  0.46001896  0.35614322  1
  H+  H128  1  0.17980610  0.38920245  0.31690848  1
  H+  H129  1  0.11199104  0.24979996  0.07279255  1
  H+  H130  1  0.76207098  0.21759021  0.65656823  1
  H+  H131  1  0.78458552  0.56168504  0.65251754  1
  H+  H132  1  0.44243589  0.88839061  0.65585612  1
  H+  H133  1  0.55068051  0.07802201  0.92369615  1
  H+  H134  1  0.10315138  0.22824749  0.68999851  1
  H+  H135  1  0.80126478  0.83218108  -0.00381049  1
  H+  H136  1  0.68655312  0.84618643  0.23587777  1
  H+  H137  1  0.80381384  0.22677853  0.09284576  1
  H+  H138  1  0.12151251  0.87925199  0.67356399  1
  H+  H139  1  0.88000766  0.09993119  0.89653005  1
  H+  H140  1  0.11194431  0.55389398  0.09026767  1
  H+  H141  1  0.64985136  0.17948951  0.51596314  1
  H+  H142  1  0.46895999  0.56825258  0.65779249  1
  H+  H143  1  0.17305325  0.24528858  0.54436646  1
  O2-  O144  1  0.08476480  0.18487833  0.20046106  1
  O2-  O145  1  0.11569826  0.22574831  0.75493251  1
  O2-  O146  1  0.10214587  0.55242660  0.21387778  1
  O2-  O147  1  0.12408395  0.57001703  0.71773766  1
  O2-  O148  1  0.10054160  0.87628537  0.20988576  1
  O2-  O149  1  0.11585530  0.88156340  0.74141461  1
  O2-  O150  1  0.45335314  0.24388651  0.22981519  1
  O2-  O151  1  0.45822750  0.22749593  0.73684528  1
  O2-  O152  1  0.43067082  0.54921045  0.19405175  1
  O2-  O153  1  0.46197205  0.56579835  0.72546670  1
  O2-  O154  1  0.42941566  0.88915862  0.19197660  1
  O2-  O155  1  0.45147026  0.89125036  0.72335393  1
  O2-  O156  1  0.75711592  0.23749988  0.21623274  1
  O2-  O157  1  0.77658221  0.22559735  0.72297864  1
  O2-  O158  1  0.78458875  0.54941647  0.21924533  1
  O2-  O159  1  0.78510392  0.56157336  0.72031685  1
  O2-  O160  1  0.77008293  0.88625641  0.22289224  1
  O2-  O161  1  0.78445379  0.89284591  0.70994188  1
  O2-  O162  1  0.21572163  0.08743978  0.27452780  1
  O2-  O163  1  0.23627391  0.11947853  0.73354027  1
  O2-  O164  1  0.19489459  0.41231847  0.25342790  1
  O2-  O165  1  0.24018706  0.46481318  0.77499973  1
  O2-  O166  1  0.21940413  0.77217065  0.27422087  1
  O2-  O167  1  0.23837042  0.78347868  0.79913224  1
  O2-  O168  1  0.53502600  0.09475302  0.29270713  1
  O2-  O169  1  0.55635587  0.10465548  0.80002001  1
  O2-  O170  1  0.58649320  0.46172798  0.28935344  1
  O2-  O171  1  0.56456202  0.44986496  0.78804738  1
  O2-  O172  1  0.54107998  0.77249161  0.26387173  1
  O2-  O173  1  0.57067439  0.78899265  0.77901863  1
  O2-  O174  1  0.87625516  0.12179499  0.26518721  1
  O2-  O175  1  0.88096054  0.10687002  0.78207088  1
  O2-  O176  1  0.88490187  0.44059057  0.28467378  1
  O2-  O177  1  0.90227711  0.45241307  0.77078167  1
  O2-  O178  1  0.87141247  0.77930931  0.27567342  1
  O2-  O179  1  0.88581534  0.78172996  0.78298302  1
  O2-  O180  1  0.23581962  0.07689792  0.44918736  1
  O2-  O181  1  0.20054319  0.09258011  0.96495194  1
  O2-  O182  1  0.24881508  0.47793640  0.47173891  1
  O2-  O183  1  0.23105391  0.45497946  0.95907394  1
  O2-  O184  1  0.21641219  0.76791752  0.46633864  1
  O2-  O185  1  0.22424778  0.79249392  0.98223504  1
  O2-  O186  1  0.52153170  0.10511918  0.47783407  1
  O2-  O187  1  0.55320822  0.08086208  0.99137685  1
  O2-  O188  1  0.56372304  0.45952745  0.47900625  1
  O2-  O189  1  0.55701323  0.43670139  0.96900785  1
  O2-  O190  1  0.54103717  0.78042951  0.45563038  1
  O2-  O191  1  0.56053053  0.77852771  0.96419506  1
  O2-  O192  1  0.92702751  0.12108699  0.45104843  1
  O2-  O193  1  0.88622571  0.10022082  0.96461567  1
  O2-  O194  1  0.88026487  0.43539874  0.47158301  1
  O2-  O195  1  0.82633922  0.41188136  0.94529865  1
  O2-  O196  1  0.92884602  0.79163673  0.46848870  1
  O2-  O197  1  0.86105141  0.77390081  0.97050537  1
  O2-  O198  1  0.11199781  0.23851608  0.00697601  1
  O2-  O199  1  0.16347547  0.24881889  0.47892344  1
  O2-  O200  1  0.12136032  0.55650047  0.02344712  1
  O2-  O201  1  0.09950657  0.55034061  0.53546635  1
  O2-  O202  1  0.11926032  0.90135415  0.03142155  1
  O2-  O203  1  0.13450250  0.88606963  0.55671435  1
  O2-  O204  1  0.42091977  0.19687989  -0.02321796  1
  O2-  O205  1  0.44935625  0.25132541  0.55001480  1
  O2-  O206  1  0.45483055  0.55853279  0.01646453  1
  O2-  O207  1  0.47134039  0.57733478  0.53986500  1
  O2-  O208  1  0.42138451  0.87956370  0.09172156  1
  O2-  O209  1  0.43130607  0.88476285  0.53675870  1
  O2-  O210  1  0.79317665  0.21964926  0.02656666  1
  O2-  O211  1  0.73363828  0.21282331  0.53441224  1
  O2-  O212  1  0.77471027  0.55764362  0.03795051  1
  O2-  O213  1  0.78892766  0.56240083  0.53301834  1
  O2-  O214  1  0.75917881  0.87766060  0.01547120  1
  O2-  O215  1  0.77065676  0.84977733  0.53067428  1
