# generated using pymatgen
data_H2O
_symmetry_space_group_name_H-M   'P 1'
_cell_length_a   13.51992815
_cell_length_b   13.53145076
_cell_length_c   14.71135265
_cell_angle_alpha   89.96409501
_cell_angle_beta   89.99167319
_cell_angle_gamma   120.07614103
_symmetry_Int_Tables_number   1
_chemical_formula_structural   H2O
_chemical_formula_sum   'H144 O72'
_cell_volume   2328.99262659
_cell_formula_units_Z   72
loop_
 _symmetry_equiv_pos_site_id
 _symmetry_equiv_pos_as_xyz
  1  'x, y, z'
loop_
 _atom_type_symbol
 _atom_type_oxidation_number
  H+  1.0
  O2-  -2.0
loop_
 _atom_site_type_symbol
 _atom_site_label
 _atom_site_symmetry_multiplicity
 _atom_site_fract_x
 _atom_site_fract_y
 _atom_site_fract_z
 _atom_site_occupancy
  H+  H0  1  0.49107935  0.19029693  0.26499398  1
  H+  H1  1  0.84274765  0.48098184  0.24838951  1
  H+  H2  1  0.19121704  0.36724877  0.27108417  1
  H+  H3  1  0.68156429  0.81628490  0.22562331  1
  H+  H4  1  -0.04573678  0.12028941  0.47489133  1
  H+  H5  1  0.35613204  0.81513414  0.28752169  1
  H+  H6  1  0.50338671  0.89792935  0.74654607  1
  H+  H7  1  0.84786347  0.12860440  0.25011058  1
  H+  H8  1  0.22749232  0.08181044  0.79225875  1
  H+  H9  1  0.09996192  0.21528473  0.64205655  1
  H+  H10  1  0.48674116  0.96934310  0.51403951  1
  H+  H11  1  0.49766739  0.31132058  0.03914827  1
  H+  H12  1  0.56056336  0.18980457  0.75718389  1
  H+  H13  1  0.81443615  0.28253520  0.24101249  1
  H+  H14  1  0.82807596  0.81787454  0.48480460  1
  H+  H15  1  0.17487250  0.36178994  0.00371995  1
  H+  H16  1  0.10646470  0.89562841  0.15258775  1
  H+  H17  1  0.79623384  0.85662811  1.05710433  1
  H+  H18  1  0.52859137  0.03876352  0.26270362  1
  H+  H19  1  0.74939812  0.58453291  0.67605474  1
  H+  H20  1  0.50785558  0.65268524  0.74613166  1
  H+  H21  1  0.87968539  0.66650028  0.48674057  1
  H+  H22  1  0.56864261  0.83303434  0.23578830  1
  H+  H23  1  0.84343489  0.32688474  0.51958037  1
  H+  H24  1  0.03510266  0.17863252  0.25392564  1
  H+  H25  1  0.72124296  0.18771150  0.74477680  1
  H+  H26  1  0.63028072  0.98912803  0.16793085  1
  H+  H27  1  0.19410382  1.02632217  0.49592483  1
  H+  H28  1  0.81537578  0.44237338  0.97850336  1
  H+  H29  1  0.69868814  0.52522354  0.26413849  1
  H+  H30  1  0.54190088  0.69674308  0.24256871  1
  H+  H31  1  0.83110302  0.71577290  0.02875723  1
  H+  H32  1  0.18969155  0.48477947  0.26955913  1
  H+  H33  1  0.36796804  0.18127650  0.49813343  1
  H+  H34  1  0.18114156  0.48238205  -0.00480005  1
  H+  H35  1  0.15711244  0.46105860  0.49222460  1
  H+  H36  1  -0.03069472  0.81445206  0.25969989  1
  H+  H37  1  0.66544804  0.82100109  0.50281027  1
  H+  H38  1  0.64126641  0.15447619  0.26711836  1
  H+  H39  1  0.35571085  0.47463538  0.75630131  1
  H+  H40  1  0.33697296  0.83076405  0.24460447  1
  H+  H41  1  0.48016625  0.50998193  1.02433596  1
  H+  H42  1  0.13721299  0.28514256  0.50602693  1
  H+  H43  1  0.21269761  0.80178082  1.07436968  1
  H+  H44  1  0.33662311  0.48812469  0.51700230  1
  H+  H45  1  0.31835160  0.82809844  0.75745607  1
  H+  H46  1  0.88957536  0.44188152  0.89682385  1
  H+  H47  1  0.14497252  0.63355306  0.01915115  1
  H+  H48  1  0.11362150  0.90655311  0.74626310  1
  H+  H49  1  0.88156999  0.07790065  0.33529802  1
  H+  H50  1  0.83299752  1.00525737  0.47342227  1
  H+  H51  1  0.17152121  0.34839053  0.76893610  1
  H+  H52  1  0.65120653  0.43591538  0.80556996  1
  H+  H53  1  0.86465696  0.37650560  0.75696870  1
  H+  H54  1  0.03126272  0.50296255  0.24312740  1
  H+  H55  1  0.69443649  0.17689749  1.01425374  1
  H+  H56  1  0.04870889  0.50829423  0.59542372  1
  H+  H57  1  0.13341978  0.79270947  0.28442304  1
  H+  H58  1  0.84112486  0.78075591  0.93714864  1
  H+  H59  1  0.22993019  0.59190869  0.65502157  1
  H+  H60  1  0.93591378  0.52226066  0.48456046  1
  H+  H61  1  0.87270799  0.60726129  0.58015745  1
  H+  H62  1  0.30414675  0.15300673  0.27082639  1
  H+  H63  1  0.85133487  0.14574853  1.00822588  1
  H+  H64  1  0.53355861  0.06218975  0.76013433  1
  H+  H65  1  0.87706724  0.43400298  0.16599687  1
  H+  H66  1  0.71719072  0.21274956  0.51610027  1
  H+  H67  1  0.52627922  0.16085687  0.00393809  1
  H+  H68  1  0.15133307  0.97218284  0.24278395  1
  H+  H69  1  0.52659456  0.15003353  0.48835148  1
  H+  H70  1  0.47907253  0.48180932  0.75451194  1
  H+  H71  1  0.16660619  0.83461246  0.52137745  1
  H+  H72  1  0.82942064  0.96368074  0.21211597  1
  H+  H73  1  0.69161714  0.82315481  0.72935622  1
  H+  H74  1  0.48890191  0.67804786  0.50260042  1
  H+  H75  1  0.81867629  0.28973709  0.01224831  1
  H+  H76  1  0.18510834  0.15339237  0.26903739  1
  H+  H77  1  0.50097493  0.35590112  0.48167687  1
  H+  H78  1  0.49950475  0.75474936  0.70841668  1
  H+  H79  1  0.29998530  0.80493774  0.00720450  1
  H+  H80  1  0.47658223  0.79947256  0.00403713  1
  H+  H81  1  0.13395274  0.67452720  0.28608161  1
  H+  H82  1  0.35887866  0.50653692  1.01571120  1
  H+  H83  1  0.21555717  0.42623133  0.86132845  1
  H+  H84  1  0.49805837  0.32277727  0.72393576  1
  H+  H85  1  0.12772157  0.85824231  -0.00207638  1
  H+  H86  1  0.21309766  0.68891423  0.75190939  1
  H+  H87  1  0.12469093  0.16348812  0.73108957  1
  H+  H88  1  0.14626831  0.19330303  1.03935939  1
  H+  H89  1  0.82432030  0.64375201  0.26111289  1
  H+  H90  1  0.56703226  0.13157552  0.91088489  1
  H+  H91  1  0.17937949  0.79564901  0.75643585  1
  H+  H92  1  0.40436537  0.19531619  0.72478504  1
  H+  H93  1  0.37799223  0.19409476  0.04632755  1
  H+  H94  1  0.37309971  0.52658740  0.24977230  1
  H+  H95  1  0.64539952  0.49706582  1.02798502  1
  H+  H96  1  0.48662499  0.47360398  0.49100967  1
  H+  H97  1  0.51575087  0.68024717  -0.02644731  1
  H+  H98  1  0.86760511  0.49615013  0.75401119  1
  H+  H99  1  0.18187589  0.04376817  1.01868024  1
  H+  H100  1  0.95588715  0.88620631  0.45502609  1
  H+  H101  1  0.19015708  0.51922307  0.74498730  1
  H+  H102  1  0.04848069  0.83259238  0.52121602  1
  H+  H103  1  0.51673224  0.36942025  0.27175214  1
  H+  H104  1  0.83690650  1.01252628  0.73534427  1
  H+  H105  1  0.94144772  0.75274450  0.74119359  1
  H+  H106  1  0.49690224  0.80003105  0.50177936  1
  H+  H107  1  0.17660643  0.68382608  0.50584447  1
  H+  H108  1  0.80818489  0.82214864  0.72224686  1
  H+  H109  1  0.14699491  0.17179947  0.51018941  1
  H+  H110  1  0.77855247  0.57594347  0.13785446  1
  H+  H111  1  0.36435065  0.85063413  0.51853981  1
  H+  H112  1  0.19607292  0.75689475  0.41689679  1
  H+  H113  1  0.21386324  0.43683834  0.40562776  1
  H+  H114  1  0.57751133  0.45625462  0.93519973  1
  H+  H115  1  0.01152761  0.86268207  0.01245719  1
  H+  H116  1  0.24688709  0.14806518  0.95096390  1
  H+  H117  1  0.51301052  0.48867153  0.26403963  1
  H+  H118  1  0.44206891  0.55506505  0.15467210  1
  H+  H119  1  0.75498406  0.86703323  0.58690015  1
  H+  H120  1  0.66963665  0.55696767  0.80898249  1
  H+  H121  1  0.10981124  0.03324019  0.84069337  1
  H+  H122  1  0.45980783  0.23409936  0.57969072  1
  H+  H123  1  0.11737955  0.55259625  0.16177272  1
  H+  H124  1  0.38909686  0.73863557  0.08343049  1
  H+  H125  1  0.45002472  0.90937866  0.65071998  1
  H+  H126  1  0.79493797  0.23452190  0.65028583  1
  H+  H127  1  0.77272005  0.20639645  0.15276987  1
  H+  H128  1  0.11445895  0.23187597  0.16847630  1
  H+  H129  1  0.85015753  0.57531064  0.05216835  1
  H+  H130  1  0.85596598  0.03570930  1.03252480  1
  H+  H131  1  0.45730780  0.23229733  0.17584569  1
  H+  H132  1  0.02897630  0.51368723  0.01410205  1
  H+  H133  1  0.56924369  0.10635296  0.40698376  1
  H+  H134  1  -0.03831844  0.13675244  0.73600694  1
  H+  H135  1  0.02283337  0.18518182  0.03270701  1
  H+  H136  1  0.54034369  0.75205228  0.88193935  1
  H+  H137  1  0.10695984  0.84529602  0.65299011  1
  H+  H138  1  0.54185384  0.44891879  0.39172018  1
  H+  H139  1  0.88696358  0.78202824  0.34574806  1
  H+  H140  1  0.83804234  0.14859447  0.73584013  1
  H+  H141  1  0.50691055  0.89783124  0.13422221  1
  H+  H142  1  0.41942789  0.51516578  0.60499285  1
  H+  H143  1  0.22263521  0.10200720  0.40458576  1
  O2-  O144  1  0.11755648  0.22645012  0.23654642  1
  O2-  O145  1  0.09407130  0.21253645  0.71130006  1
  O2-  O146  1  0.11453821  0.54778518  0.22921841  1
  O2-  O147  1  0.18097075  0.57740113  0.70801618  1
  O2-  O148  1  0.11015900  0.89203907  0.21940054  1
  O2-  O149  1  0.09512062  0.83114109  0.72126782  1
  O2-  O150  1  0.45251027  0.23300435  0.24404969  1
  O2-  O151  1  0.48000503  0.24802401  0.70027882  1
  O2-  O152  1  0.45210615  0.56240959  0.22274299  1
  O2-  O153  1  0.43359303  0.51169878  0.72621827  1
  O2-  O154  1  0.55440571  0.93329495  0.19027306  1
  O2-  O155  1  0.44808486  0.91657433  0.72074153  1
  O2-  O156  1  0.77247828  0.20145724  0.22132399  1
  O2-  O157  1  0.80061101  0.22022664  0.71932057  1
  O2-  O158  1  0.77773802  0.55936090  0.23968770  1
  O2-  O159  1  0.82512208  0.60515300  0.70046012  1
  O2-  O160  1  0.79012736  0.88305907  0.18438124  1
  O2-  O161  1  0.77247731  0.86909403  0.70868953  1
  O2-  O162  1  0.22234868  0.10900226  0.29007498  1
  O2-  O163  1  0.14547470  0.04614772  0.78070822  1
  O2-  O164  1  0.23394837  0.44862908  0.29277307  1
  O2-  O165  1  0.22184326  0.42715393  0.79257593  1
  O2-  O166  1  0.13122133  0.73307080  0.32462340  1
  O2-  O167  1  0.23700397  0.77031203  0.77727295  1
  O2-  O168  1  0.56073141  0.11470923  0.29122576  1
  O2-  O169  1  0.58708226  0.13995040  0.78350474  1
  O2-  O170  1  0.55356885  0.45158008  0.29346613  1
  O2-  O171  1  0.60877636  0.47667592  0.81226377  1
  O2-  O172  1  0.59825245  0.78041828  0.25715972  1
  O2-  O173  1  0.54284532  0.73783168  0.75263925  1
  O2-  O174  1  0.88684476  0.08509061  0.26614607  1
  O2-  O175  1  0.87739176  0.09490811  0.75478413  1
  O2-  O176  1  0.88074075  0.43552881  0.23224160  1
  O2-  O177  1  0.89517241  0.45146169  0.78703881  1
  O2-  O178  1  0.88815804  0.77004765  0.27959862  1
  O2-  O179  1  0.85654135  0.71466851  0.74879278  1
  O2-  O180  1  0.22872748  0.10577174  0.47316835  1
  O2-  O181  1  0.23209170  0.12941867  1.01527871  1
  O2-  O182  1  0.20510012  0.42796705  0.47390052  1
  O2-  O183  1  0.21934881  0.43965197  0.97418626  1
  O2-  O184  1  0.22163362  0.76328379  0.48354483  1
  O2-  O185  1  0.21817596  0.78570925  1.01034510  1
  O2-  O186  1  0.56757275  0.10809520  0.47510972  1
  O2-  O187  1  0.56607452  0.12281481  0.97747761  1
  O2-  O188  1  0.53410578  0.44037999  0.46337968  1
  O2-  O189  1  0.56704952  0.45178906  1.00184232  1
  O2-  O190  1  0.53277803  0.75665301  0.47889026  1
  O2-  O191  1  0.54929325  0.75870150  0.94831115  1
  O2-  O192  1  0.87976480  0.08056222  0.44368764  1
  O2-  O193  1  0.89709280  0.10766226  0.99779933  1
  O2-  O194  1  0.96621068  0.46761033  0.47906138  1
  O2-  O195  1  0.88342280  0.43717225  0.96586722  1
  O2-  O196  1  0.89484553  0.80738923  0.46331988  1
  O2-  O197  1  0.86488217  0.79410283  1.00073501  1
  O2-  O198  1  0.10590565  0.23521070  0.05440853  1
  O2-  O199  1  0.10112431  0.20613944  0.53186641  1
  O2-  O200  1  0.10838675  0.55170858  0.03735438  1
  O2-  O201  1  0.07411184  0.52688345  0.53165876  1
  O2-  O202  1  0.09570133  0.90283157  0.02497495  1
  O2-  O203  1  0.12612545  0.87587294  0.54616161  1
  O2-  O204  1  0.46043871  0.23105625  0.06187284  1
  O2-  O205  1  0.45233780  0.23024750  0.51260430  1
  O2-  O206  1  0.43886274  0.55147398  0.04000365  1
  O2-  O207  1  0.41879206  0.52373364  0.53796217  1
  O2-  O208  1  0.42505950  0.81045592  0.04943570  1
  O2-  O209  1  0.44326699  0.89244162  0.54458355  1
  O2-  O210  1  0.77552883  0.21282163  0.03950103  1
  O2-  O211  1  0.78181166  0.26466440  0.55539808  1
  O2-  O212  1  0.78482760  0.58442275  0.06731285  1
  O2-  O213  1  0.87540777  0.59815126  0.51410976  1
  O2-  O214  1  0.76465311  0.89958581  0.09000720  1
  O2-  O215  1  0.74999249  0.86389065  0.51971232  1
