# generated using pymatgen
data_H2O
_symmetry_space_group_name_H-M   'P 1'
_cell_length_a   13.51608949
_cell_length_b   13.50940323
_cell_length_c   14.70386060
_cell_angle_alpha   90.05603477
_cell_angle_beta   89.89858029
_cell_angle_gamma   119.99235637
_symmetry_Int_Tables_number   1
_chemical_formula_structural   H2O
_chemical_formula_sum   'H144 O72'
_cell_volume   2325.31607529
_cell_formula_units_Z   72
loop_
 _symmetry_equiv_pos_site_id
 _symmetry_equiv_pos_as_xyz
  1  'x, y, z'
loop_
 _atom_type_symbol
 _atom_type_oxidation_number
  H+  1.0
  O2-  -2.0
loop_
 _atom_site_type_symbol
 _atom_site_label
 _atom_site_symmetry_multiplicity
 _atom_site_fract_x
 _atom_site_fract_y
 _atom_site_fract_z
 _atom_site_occupancy
  H+  H0  1  -0.00276503  0.48500121  0.77501825  1
  H+  H1  1  0.61989828  0.14410810  0.75343199  1
  H+  H2  1  0.15043236  0.64061161  0.24347676  1
  H+  H3  1  0.72381928  0.19608764  0.51603585  1
  H+  H4  1  0.79375965  0.95364204  0.74568616  1
  H+  H5  1  0.15615741  0.30115122  0.23225954  1
  H+  H6  1  0.50728255  0.19489968  1.00613267  1
  H+  H7  1  0.27416607  0.84119984  0.27566594  1
  H+  H8  1  0.29909028  0.83374665  -0.01976339  1
  H+  H9  1  0.12640190  0.84566385  0.24059036  1
  H+  H10  1  0.18473705  0.04221343  0.75271352  1
  H+  H11  1  0.86545007  0.54291624  0.52361427  1
  H+  H12  1  0.45087454  0.23152032  0.09032534  1
  H+  H13  1  0.15072169  0.17784332  0.24021663  1
  H+  H14  1  0.29812620  0.82072928  0.74892766  1
  H+  H15  1  0.31616565  0.45189418  0.98420584  1
  H+  H16  1  0.18564640  0.15470787  0.47899723  1
  H+  H17  1  0.47531663  0.61601265  0.00622427  1
  H+  H18  1  0.86135989  0.36521856  0.26896107  1
  H+  H19  1  0.14806181  0.18505509  0.73701774  1
  H+  H20  1  0.69394177  0.18612280  0.02119899  1
  H+  H21  1  0.84784381  0.99399893  0.25418401  1
  H+  H22  1  0.04062071  0.86220894  0.51497304  1
  H+  H23  1  0.46738851  0.96386512  0.73149205  1
  H+  H24  1  0.85750510  1.04299128  0.49500871  1
  H+  H25  1  0.49918838  0.63743197  0.23605856  1
  H+  H26  1  0.81461469  0.50908453  0.26377200  1
  H+  H27  1  0.18872741  0.42353485  0.99197399  1
  H+  H28  1  0.84404540  0.20228244  0.51483890  1
  H+  H29  1  0.47743586  0.30611320  0.23690112  1
  H+  H30  1  0.51073849  0.71328601  0.88361266  1
  H+  H31  1  0.54956881  0.82791123  0.24015318  1
  H+  H32  1  0.45137462  0.19955370  0.58329699  1
  H+  H33  1  0.18704221  0.47921657  0.24677026  1
  H+  H34  1  0.48305872  0.19705403  0.74072433  1
  H+  H35  1  0.61996166  0.20303317  0.92287507  1
  H+  H36  1  0.84849094  0.36852618  0.00888255  1
  H+  H37  1  0.86663272  0.37976752  0.49888878  1
  H+  H38  1  0.15242569  0.30436929  0.73314609  1
  H+  H39  1  0.80927200  0.62370596  0.26619031  1
  H+  H40  1  0.56978315  0.78350836  0.39138520  1
  H+  H41  1  0.48118981  0.84008852  0.49859717  1
  H+  H42  1  0.79646487  0.17222700  0.74551906  1
  H+  H43  1  0.66243231  0.41559092  0.46356817  1
  H+  H44  1  0.89909147  0.44327521  0.91693558  1
  H+  H45  1  0.16754716  0.52847436  0.51602274  1
  H+  H46  1  0.23286939  0.12392440  0.83968399  1
  H+  H47  1  0.63196540  0.42949944  0.50003600  1
  H+  H48  1  0.31022319  0.49925853  0.50623104  1
  H+  H49  1  0.04664661  0.52711151  0.51355537  1
  H+  H50  1  0.70875899  0.18466424  0.24977322  1
  H+  H51  1  0.14699752  0.84578602  0.74036362  1
  H+  H52  1  0.82363335  0.86256334  0.51431833  1
  H+  H53  1  0.48333877  0.08040155  0.32222408  1
  H+  H54  1  0.71485319  0.52825200  0.75162296  1
  H+  H55  1  0.17715689  0.71946890  -0.01199314  1
  H+  H56  1  0.48056416  0.19029950  0.22582732  1
  H+  H57  1  0.45234068  0.25529437  0.48908224  1
  H+  H58  1  0.53859303  0.14835164  0.48851329  1
  H+  H59  1  0.70651807  0.53194312  0.00024105  1
  H+  H60  1  0.19476359  0.12914027  0.98251329  1
  H+  H61  1  0.39927671  0.82832490  0.19940637  1
  H+  H62  1  -0.01255883  0.16147026  0.26154935  1
  H+  H63  1  0.13654352  0.96846962  0.23571020  1
  H+  H64  1  0.48550718  0.85753776  -0.02375387  1
  H+  H65  1  0.51122888  1.02310308  0.24024095  1
  H+  H66  1  0.49022975  0.96156744  0.50422220  1
  H+  H67  1  0.01432761  0.52642567  0.01583322  1
  H+  H68  1  0.32664752  0.16507759  0.97472398  1
  H+  H69  1  0.18182800  1.03460520  0.48488857  1
  H+  H70  1  0.84828350  0.81572755  0.28000396  1
  H+  H71  1  0.15543626  0.85394973  0.51473209  1
  H+  H72  1  0.89840458  0.78102730  0.85810164  1
  H+  H73  1  0.49677841  0.64031727  0.49985577  1
  H+  H74  1  0.13915799  0.54800760  -0.00227183  1
  H+  H75  1  0.64131885  0.82431229  0.48397813  1
  H+  H76  1  0.50318052  0.98512325  -0.01611521  1
  H+  H77  1  0.88232448  0.10720975  0.85059186  1
  H+  H78  1  0.52674828  0.36472967  0.99445508  1
  H+  H79  1  0.20955748  0.50020220  0.75561477  1
  H+  H80  1  0.86298108  0.43401399  0.77117804  1
  H+  H81  1  0.29319657  0.14495986  0.25288252  1
  H+  H82  1  0.90115312  0.12048390  0.40513157  1
  H+  H83  1  0.52439302  0.38239544  0.75842962  1
  H+  H84  1  0.77437865  0.22301535  0.65666846  1
  H+  H85  1  0.66455214  0.82586529  0.25183634  1
  H+  H86  1  0.61187569  0.79108630  0.95151601  1
  H+  H87  1  0.84646484  0.69486623  -0.02962408  1
  H+  H88  1  0.49328026  0.50639469  0.01131642  1
  H+  H89  1  0.87574975  0.72307256  0.50697541  1
  H+  H90  1  0.83798542  1.02650519  -0.01479588  1
  H+  H91  1  0.36880214  0.20219401  0.73511689  1
  H+  H92  1  -0.01705351  0.82047645  0.75457504  1
  H+  H93  1  0.45070640  0.43246979  0.48517334  1
  H+  H94  1  0.30503717  0.47926124  0.24892231  1
  H+  H95  1  0.85696148  0.69145469  0.76108617  1
  H+  H96  1  0.86474671  0.15723045  0.26380606  1
  H+  H97  1  0.16263461  0.63873569  0.73967326  1
  H+  H98  1  0.63027403  0.47255027  0.27376543  1
  H+  H99  1  -0.03817292  0.13633617  -0.00436480  1
  H+  H100  1  0.96648822  0.82227925  0.97876158  1
  H+  H101  1  0.82499416  0.53280130  0.00307975  1
  H+  H102  1  0.15221484  0.25755551  1.00490852  1
  H+  H103  1  0.18262573  0.69845826  0.49398374  1
  H+  H104  1  0.04473669  0.19416485  0.50645513  1
  H+  H105  1  0.81428923  0.18514581  0.02133016  1
  H+  H106  1  0.80456798  0.83222607  -0.02511873  1
  H+  H107  1  0.53723637  0.50703057  0.77599265  1
  H+  H108  1  0.12443771  0.55812525  0.65246477  1
  H+  H109  1  0.90364940  0.45571800  0.40761185  1
  H+  H110  1  0.39728286  0.56099366  0.77545180  1
  H+  H111  1  0.95496743  0.14248143  0.75900215  1
  H+  H112  1  0.56495057  0.44749926  0.90669932  1
  H+  H113  1  0.43135068  0.88060215  0.64612089  1
  H+  H114  1  0.45165186  0.55302294  0.15033970  1
  H+  H115  1  0.78182884  0.22252923  0.15843770  1
  H+  H116  1  0.11211977  0.56885567  0.15157936  1
  H+  H117  1  0.84885202  0.92029001  0.17044714  1
  H+  H118  1  0.47403204  0.90053328  0.11656712  1
  H+  H119  1  0.96368719  0.81516179  0.26961270  1
  H+  H120  1  -0.02225499  0.48577766  0.26450668  1
  H+  H121  1  0.60360293  0.11516330  0.41004372  1
  H+  H122  1  0.10743741  0.88747251  0.65204736  1
  H+  H123  1  0.21270875  0.10284575  0.34352359  1
  H+  H124  1  0.23990871  0.44212304  0.83890264  1
  H+  H125  1  0.08362992  0.88038211  0.09303184  1
  H+  H126  1  0.73463927  0.84236435  0.05726719  1
  H+  H127  1  0.53954624  0.09991878  0.84145526  1
  H+  H128  1  0.51633652  0.48048971  0.25792250  1
  H+  H129  1  0.19300659  0.38180639  0.49889480  1
  H+  H130  1  0.13572839  0.85890427  1.00237745  1
  H+  H131  1  0.12013208  0.22779493  0.59522894  1
  H+  H132  1  0.80615762  0.84373242  0.73997011  1
  H+  H133  1  0.47376932  0.59157606  0.59829982  1
  H+  H134  1  0.80682572  0.56746168  0.66939178  1
  H+  H135  1  0.48058932  0.39526353  0.39190955  1
  H+  H136  1  0.59661418  0.74633325  0.71837947  1
  H+  H137  1  0.75412913  0.55041572  0.53133675  1
  H+  H138  1  0.21944419  0.78382150  0.83964845  1
  H+  H139  1  0.89891905  0.79083473  0.41271725  1
  H+  H140  1  0.30069727  0.81800282  0.48510675  1
  H+  H141  1  0.20173765  0.77617918  0.36195781  1
  H+  H142  1  0.77139400  0.89393571  0.59936788  1
  H+  H143  1  0.10577636  0.19692816  0.10088602  1
  O2-  O144  1  0.10940013  0.21652286  0.21529623  1
  O2-  O145  1  0.10484213  0.22343745  0.71529794  1
  O2-  O146  1  0.11490565  0.56187515  0.21873082  1
  O2-  O147  1  0.12873391  0.55673288  0.72079680  1
  O2-  O148  1  0.08857016  0.88619202  0.21498084  1
  O2-  O149  1  0.10276286  0.88446696  0.72080231  1
  O2-  O150  1  0.43564877  0.22644657  0.20885936  1
  O2-  O151  1  0.45069621  0.24350161  0.71571063  1
  O2-  O152  1  0.45352851  0.55588600  0.21814386  1
  O2-  O153  1  0.48325835  0.61201465  0.78618716  1
  O2-  O154  1  0.47446433  0.89338308  0.18575872  1
  O2-  O155  1  0.42540547  0.88199154  0.71312320  1
  O2-  O156  1  0.78777423  0.22223978  0.22751442  1
  O2-  O157  1  0.75427063  0.20920286  0.72215692  1
  O2-  O158  1  0.76625531  0.54243845  0.24794514  1
  O2-  O159  1  0.79827964  0.56949444  0.73656662  1
  O2-  O160  1  0.81044107  0.91188634  0.22835492  1
  O2-  O161  1  0.75713127  0.87428801  0.71999432  1
  O2-  O162  1  0.21216183  0.10162707  0.27346474  1
  O2-  O163  1  0.22375593  0.12364794  0.77062342  1
  O2-  O164  1  0.22166643  0.43146780  0.25902420  1
  O2-  O165  1  0.25610239  0.46393328  0.77389092  1
  O2-  O166  1  0.19847071  0.77966323  0.29205256  1
  O2-  O167  1  0.21541735  0.77826215  0.77210157  1
  O2-  O168  1  0.53845369  0.09691705  0.27331145  1
  O2-  O169  1  0.53727718  0.10580989  0.77451235  1
  O2-  O170  1  0.54461012  0.43077281  0.28338110  1
  O2-  O171  1  0.57308091  0.45979992  0.78706342  1
  O2-  O172  1  0.58254586  0.78515796  0.26960885  1
  O2-  O173  1  0.51743598  0.68458749  0.70426593  1
  O2-  O174  1  0.90621744  0.11886851  0.28771457  1
  O2-  O175  1  0.87569322  0.09846710  0.78313022  1
  O2-  O176  1  0.90002122  0.44498693  0.29265695  1
  O2-  O177  1  0.92485906  0.44251549  0.81043884  1
  O2-  O178  1  0.88721516  0.77428537  0.30111269  1
  O2-  O179  1  0.89900659  0.77829709  0.78056235  1
  O2-  O180  1  0.21031835  0.10496782  0.44834808  1
  O2-  O181  1  0.25044854  0.12088978  0.94495949  1
  O2-  O182  1  0.22992074  0.46498456  0.48584367  1
  O2-  O183  1  0.23733493  0.40403095  0.95651930  1
  O2-  O184  1  0.21785806  0.77873646  0.46753534  1
  O2-  O185  1  0.21872766  0.79660317  0.95956583  1
  O2-  O186  1  0.58649924  0.10893662  0.47496758  1
  O2-  O187  1  0.57985517  0.14339801  0.96857538  1
  O2-  O188  1  0.43799362  0.36535425  0.44971085  1
  O2-  O189  1  0.56475369  0.44855392  0.97442820  1
  O2-  O190  1  0.56214673  0.78087631  0.45867116  1
  O2-  O191  1  0.52734540  0.75004062  0.94432309  1
  O2-  O192  1  0.90097035  0.12364615  0.47300623  1
  O2-  O193  1  0.88269597  0.10910676  0.97184349  1
  O2-  O194  1  0.90665040  0.46079342  0.47586992  1
  O2-  O195  1  0.88989778  0.44869214  0.98494207  1
  O2-  O196  1  0.90336434  0.80065735  0.48094461  1
  O2-  O197  1  0.88753068  0.78015871  0.94558647  1
  O2-  O198  1  0.09915406  0.18323179  0.03322787  1
  O2-  O199  1  0.12548686  0.23304264  0.52760086  1
  O2-  O200  1  0.09944976  0.57882372  0.03259429  1
  O2-  O201  1  0.12613489  0.57110837  0.53753283  1
  O2-  O202  1  0.07960032  0.87967036  0.02564380  1
  O2-  O203  1  0.11970794  0.89698767  0.54072878  1
  O2-  O204  1  0.46122976  0.23533084  0.02308542  1
  O2-  O205  1  0.46072723  0.19224245  0.51764786  1
  O2-  O206  1  0.44236450  0.53786805  0.03218268  1
  O2-  O207  1  0.45930110  0.56698679  0.53434982  1
  O2-  O208  1  0.45830047  0.90512984  0.00708133  1
  O2-  O209  1  0.43964842  0.87968159  0.52005856  1
  O2-  O210  1  0.77660847  0.22531165  0.04840864  1
  O2-  O211  1  0.80439687  0.24373651  0.53720108  1
  O2-  O212  1  0.79032364  0.58213714  0.01075281  1
  O2-  O213  1  0.83299582  0.58900241  0.55311818  1
  O2-  O214  1  0.75392558  0.86435064  -0.00620316  1
  O2-  O215  1  0.77831017  0.89984604  0.53177523  1
