# generated using pymatgen
data_H2O
_symmetry_space_group_name_H-M   'P 1'
_cell_length_a   13.51329743
_cell_length_b   13.52662314
_cell_length_c   14.68384030
_cell_angle_alpha   89.99201994
_cell_angle_beta   90.01996830
_cell_angle_gamma   120.03263717
_symmetry_Int_Tables_number   1
_chemical_formula_structural   H2O
_chemical_formula_sum   'H144 O72'
_cell_volume   2323.68931941
_cell_formula_units_Z   72
loop_
 _symmetry_equiv_pos_site_id
 _symmetry_equiv_pos_as_xyz
  1  'x, y, z'
loop_
 _atom_type_symbol
 _atom_type_oxidation_number
  H+  1.0
  O2-  -2.0
loop_
 _atom_site_type_symbol
 _atom_site_label
 _atom_site_symmetry_multiplicity
 _atom_site_fract_x
 _atom_site_fract_y
 _atom_site_fract_z
 _atom_site_occupancy
  H+  H0  1  0.17939881  0.13829340  0.27697534  1
  H+  H1  1  0.10235405  0.54842282  0.64818603  1
  H+  H2  1  0.81690975  0.51619889  0.25802161  1
  H+  H3  1  0.49599987  0.79560257  0.50878709  1
  H+  H4  1  0.14018182  -0.04780217  0.25166202  1
  H+  H5  1  0.31494415  0.81677079  0.48248828  1
  H+  H6  1  0.51474950  0.48757258  -0.02830453  1
  H+  H7  1  0.14996071  0.51216768  0.51106078  1
  H+  H8  1  0.36134611  0.25748883  0.14957454  1
  H+  H9  1  0.15507324  0.63424634  -0.00166877  1
  H+  H10  1  0.85835060  0.34786911  0.48130556  1
  H+  H11  1  0.80318705  0.97105377  0.50151047  1
  H+  H12  1  0.70121359  0.18492811  0.52139849  1
  H+  H13  1  1.01367928  0.82852693  0.26292847  1
  H+  H14  1  0.28813305  0.13097183  0.24679573  1
  H+  H15  1  0.83424224  0.14983216  0.50052651  1
  H+  H16  1  0.63369333  0.48073632  0.25683737  1
  H+  H17  1  0.15622437  0.62445385  0.73596971  1
  H+  H18  1  0.52888276  0.04023834  0.97420614  1
  H+  H19  1  -0.02459010  0.46943848  0.47829679  1
  H+  H20  1  0.15068809  0.63068713  0.50583880  1
  H+  H21  1  0.82343800  0.19111390  0.01664041  1
  H+  H22  1  0.12049347  0.24176238  0.37983357  1
  H+  H23  1  0.96773243  0.82227733  0.49941200  1
  H+  H24  1  0.04191276  0.21594027  0.29270780  1
  H+  H25  1  0.95692734  0.47454582  0.25151857  1
  H+  H26  1  0.70493277  0.18833374  0.00084458  1
  H+  H27  1  0.87246222  0.05997513  0.25343792  1
  H+  H28  1  0.38136049  0.21568969  0.77671682  1
  H+  H29  1  0.89217873  0.45466591  0.89637850  1
  H+  H30  1  0.77694771  0.54944715  0.16790813  1
  H+  H31  1  0.81002480  0.49431760  0.02223775  1
  H+  H32  1  0.11293931  0.55600534  0.13816730  1
  H+  H33  1  0.16904748  0.47875971  0.96558136  1
  H+  H34  1  0.91069435  0.77349507  0.88902415  1
  H+  H35  1  0.17314613  0.36311465  0.49236543  1
  H+  H36  1  0.50311881  0.47055154  0.48647716  1
  H+  H37  1  0.55190989  0.21358925  1.00918987  1
  H+  H38  1  0.13406594  0.28923598  -0.05057492  1
  H+  H39  1  0.29340911  0.47673152  0.49395385  1
  H+  H40  1  0.03196257  0.51974190  0.00153784  1
  H+  H41  1  0.18018847  0.37143719  0.28787352  1
  H+  H42  1  0.32720756  0.82185813  0.73925025  1
  H+  H43  1  0.70424671  0.52760970  0.72698698  1
  H+  H44  1  0.00715750  0.84236853  0.74799907  1
  H+  H45  1  0.05750862  0.86209921  -0.00157820  1
  H+  H46  1  0.51256021  0.36279300  0.24303979  1
  H+  H47  1  0.87432009  0.82743635  0.96793384  1
  H+  H48  1  0.31215059  0.81415909  0.97646436  1
  H+  H49  1  0.19743347  0.04510727  0.99648822  1
  H+  H50  1  0.63585743  0.49416435  -0.01403651  1
  H+  H51  1  0.52329990  0.50823789  0.75021181  1
  H+  H52  1  0.28393072  0.81926232  0.25700342  1
  H+  H53  1  0.64498190  0.81855165  -0.01434350  1
  H+  H54  1  0.13750157  0.16245216  0.49206924  1
  H+  H55  1  0.02463998  0.20925637  0.74578313  1
  H+  H56  1  0.14578471  0.62945241  0.23217556  1
  H+  H57  1  0.14060048  0.17419799  -0.03578204  1
  H+  H58  1  0.20313071  0.80734299  0.73420066  1
  H+  H59  1  0.82608377  0.30384573  0.72867708  1
  H+  H60  1  0.38976452  0.57659834  0.72890302  1
  H+  H61  1  0.57243277  0.72629158  0.75550968  1
  H+  H62  1  0.85695765  0.37298806  0.98475187  1
  H+  H63  1  0.78105859  0.72689237  0.79621384  1
  H+  H64  1  0.01764541  0.16636241  0.49127508  1
  H+  H65  1  0.30083859  0.48142425  0.23658078  1
  H+  H66  1  0.57922573  0.12053193  0.88372350  1
  H+  H67  1  -0.02787134  0.48922253  0.76046721  1
  H+  H68  1  0.51384394  0.16135199  0.26684432  1
  H+  H69  1  0.19322246  0.81581950  0.49057933  1
  H+  H70  1  0.47673877  0.60290052  0.19896786  1
  H+  H71  1  0.85216050  0.48622869  0.75583689  1
  H+  H72  1  0.82734565  -0.02828665  1.00125795  1
  H+  H73  1  0.42546153  0.53883421  0.06267679  1
  H+  H74  1  0.17719982  1.05920383  0.75800066  1
  H+  H75  1  0.18075077  0.49540989  0.24077748  1
  H+  H76  1  0.53467171  0.32338477  0.00432296  1
  H+  H77  1  0.66867984  0.16208176  0.74990134  1
  H+  H78  1  0.46324943  0.29507474  0.51202130  1
  H+  H79  1  0.47933188  0.63529304  0.98571440  1
  H+  H80  1  0.54484414  0.04739808  0.74844104  1
  H+  H81  1  0.49405248  0.85515761  0.00489821  1
  H+  H82  1  0.83721056  0.87416380  0.72040493  1
  H+  H83  1  0.80493093  0.30186438  0.23876350  1
  H+  H84  1  0.84747073  0.69529614  0.27329431  1
  H+  H85  1  0.12020246  0.88610434  0.80158248  1
  H+  H86  1  0.47694422  0.48918288  0.22099446  1
  H+  H87  1  0.50536721  0.85947012  0.72020832  1
  H+  H88  1  0.84545044  0.16416700  0.25497138  1
  H+  H89  1  0.47562822  0.61626057  0.51724386  1
  H+  H90  1  0.46217872  0.23750456  0.12706065  1
  H+  H91  1  0.30891558  0.44507894  0.72200503  1
  H+  H92  1  0.75061199  0.87699967  0.21338507  1
  H+  H93  1  0.91525000  0.12249919  1.07724691  1
  H+  H94  1  0.61068460  0.89237027  0.31067986  1
  H+  H95  1  0.42105102  0.52120259  0.59543273  1
  H+  H96  1  0.28622470  0.47901965  0.95267074  1
  H+  H97  1  0.29880121  0.14416820  0.50198464  1
  H+  H98  1  0.56206546  0.77742068  0.25895651  1
  H+  H99  1  0.79028967  0.91263766  0.63690781  1
  H+  H100  1  0.80239012  0.63641261  0.50596824  1
  H+  H101  1  0.45432584  0.86375815  0.23671772  1
  H+  H102  1  0.86249244  0.18594028  0.73460219  1
  H+  H103  1  0.85684054  0.86618209  0.23972016  1
  H+  H104  1  0.62688903  0.15416903  0.25906203  1
  H+  H105  1  0.49210261  0.91614108  0.46450209  1
  H+  H106  1  0.67289783  0.85311912  0.75147264  1
  H+  H107  1  0.50061712  0.03677066  0.50724181  1
  H+  H108  1  0.14321443  0.82590259  0.26054865  1
  H+  H109  1  0.78698022  0.22382568  0.61306276  1
  H+  H110  1  0.87019330  0.11428284  0.40541787  1
  H+  H111  1  0.68854452  0.84462634  0.51184221  1
  H+  H112  1  0.10128435  0.23304228  0.10666225  1
  H+  H113  1  0.22333619  0.08842271  0.41141707  1
  H+  H114  1  0.85119708  0.82971374  0.49367764  1
  H+  H115  1  0.11174430  0.87963285  0.60676082  1
  H+  H116  1  0.68707728  0.51460462  0.50317895  1
  H+  H117  1  0.21662152  0.77255370  0.35433568  1
  H+  H118  1  0.57229260  0.79295262  0.89579398  1
  H+  H119  1  0.83377749  0.67337515  0.73254674  1
  H+  H120  1  0.17290060  0.86034245  -0.00237208  1
  H+  H121  1  0.45817422  0.98101080  0.23171489  1
  H+  H122  1  0.88942248  0.42971095  0.34794860  1
  H+  H123  1  0.88952188  0.78040805  0.36277143  1
  H+  H124  1  0.69162343  0.41460327  0.06779309  1
  H+  H125  1  0.76575495  0.22409803  0.14831439  1
  H+  H126  1  0.11794074  0.22560219  0.15398253  1
  H+  H127  1  0.80531459  0.88288251  0.07683878  1
  H+  H128  1  0.88263678  0.07219354  0.73880590  1
  H+  H129  1  0.46083679  0.89165353  0.62998962  1
  H+  H130  1  0.44236838  0.89660637  0.08597700  1
  H+  H131  1  0.77521899  0.54821253  0.63300206  1
  H+  H132  1  0.23594074  0.77376097  0.88681576  1
  H+  H133  1  0.46720903  0.18140271  0.52247681  1
  H+  H134  1  0.97439655  0.15252583  0.98006800  1
  H+  H135  1  0.54210773  0.10906554  0.41545856  1
  H+  H136  1  0.24255967  0.12763256  0.91214491  1
  H+  H137  1  0.53605479  0.75481716  0.42288174  1
  H+  H138  1  0.49854256  0.22245921  0.76157560  1
  H+  H139  1  0.18822249  0.18046174  0.77264863  1
  H+  H140  1  0.17046838  0.37692535  0.82091505  1
  H+  H141  1  0.54187365  0.43042099  0.39754135  1
  H+  H142  1  0.58058572  0.49276883  0.83754311  1
  H+  H143  1  0.15251379  0.96134825  0.52027390  1
  O2-  O144  1  0.12442735  0.25246657  0.31007739  1
  O2-  O145  1  0.12290030  0.24907757  0.73351704  1
  O2-  O146  1  0.11306149  0.55084648  0.20723098  1
  O2-  O147  1  0.10112744  0.54650899  0.71615465  1
  O2-  O148  1  0.09745297  0.86730750  0.23879617  1
  O2-  O149  1  0.09118592  0.88417275  0.74025758  1
  O2-  O150  1  0.41048919  0.23408301  0.18048054  1
  O2-  O151  1  0.46438914  0.26922981  0.77706037  1
  O2-  O152  1  0.42967838  0.52069095  0.19099157  1
  O2-  O153  1  0.38978878  0.50819117  0.70842804  1
  O2-  O154  1  0.41496184  0.90076220  0.20823958  1
  O2-  O155  1  0.46104395  0.89484577  0.69838389  1
  O2-  O156  1  0.76239671  0.21989115  0.21692809  1
  O2-  O157  1  0.79179004  0.22453652  0.70657066  1
  O2-  O158  1  0.77809654  0.55925789  0.23588466  1
  O2-  O159  1  0.78224697  0.55102097  0.70251145  1
  O2-  O160  1  0.83318912  0.91617902  0.20618271  1
  O2-  O161  1  0.80075619  0.91962587  0.70518349  1
  O2-  O162  1  0.21404591  0.08894145  0.27962714  1
  O2-  O163  1  0.22357441  0.13242175  0.78866549  1
  O2-  O164  1  0.22693102  0.45999144  0.26854639  1
  O2-  O165  1  0.17554115  0.37105375  0.75362495  1
  O2-  O166  1  0.20610809  0.77068352  0.28441153  1
  O2-  O167  1  0.24760709  0.77916145  0.76592237  1
  O2-  O168  1  0.54601088  0.11344592  0.28370558  1
  O2-  O169  1  0.58723919  0.12333234  0.77694959  1
  O2-  O170  1  0.54906651  0.44051735  0.27003556  1
  O2-  O171  1  0.59776360  0.53910324  0.78095069  1
  O2-  O172  1  0.54062950  0.81964564  0.30040488  1
  O2-  O173  1  0.59214549  0.80288667  0.77534729  1
  O2-  O174  1  0.89374934  0.13416753  0.28195642  1
  O2-  O175  1  0.91702844  0.15204716  0.75935653  1
  O2-  O176  1  0.87915201  0.43696087  0.27754808  1
  O2-  O177  1  0.89229859  0.45090135  0.78674141  1
  O2-  O178  1  0.89244470  0.77796773  0.29313716  1
  O2-  O179  1  0.85260242  0.75109490  0.76334474  1
  O2-  O180  1  0.21574616  0.09280814  0.47774133  1
  O2-  O181  1  0.23211115  0.12758150  0.97898792  1
  O2-  O182  1  0.21239171  0.44448503  0.47507095  1
  O2-  O183  1  0.20458706  0.43826947  0.93500051  1
  O2-  O184  1  0.23071892  0.77772491  0.46006764  1
  O2-  O185  1  0.23148002  0.77119175  0.95447298  1
  O2-  O186  1  0.54529262  0.11512615  0.48261320  1
  O2-  O187  1  0.57618192  0.12042734  0.95374828  1
  O2-  O188  1  0.54470925  0.43068271  0.46467702  1
  O2-  O189  1  0.56101367  0.45177446  0.95473244  1
  O2-  O190  1  0.54269553  0.75621478  0.48942221  1
  O2-  O191  1  0.56425278  0.78279478  0.96319659  1
  O2-  O192  1  0.87023285  0.10437647  0.47218713  1
  O2-  O193  1  0.89358387  0.11368903  1.01317396  1
  O2-  O194  1  0.90197885  0.42001071  0.44584385  1
  O2-  O195  1  0.89478875  0.45472695  0.96593028  1
  O2-  O196  1  0.89032821  0.78823757  0.47085867  1
  O2-  O197  1  0.91977911  0.79019642  0.95446452  1
  O2-  O198  1  0.08946054  0.20494733  -0.05523261  1
  O2-  O199  1  0.10224823  0.21126006  0.48264143  1
  O2-  O200  1  0.11308764  0.55511441  0.02449946  1
  O2-  O201  1  0.10688311  0.55219091  0.53040618  1
  O2-  O202  1  0.13732918  0.90335643  0.02192788  1
  O2-  O203  1  0.10977610  0.87859999  0.53991525  1
  O2-  O204  1  0.54828796  0.27379454  0.04715803  1
  O2-  O205  1  0.41958857  0.21602098  0.53676968  1
  O2-  O206  1  0.43272839  0.55095001  -0.00366989  1
  O2-  O207  1  0.43367392  0.53196929  0.52827145  1
  O2-  O208  1  0.45064223  0.89503592  0.01903064  1
  O2-  O209  1  0.44180541  0.87240523  0.51449288  1
  O2-  O210  1  0.78147120  0.23229003  0.03221659  1
  O2-  O211  1  0.78240534  0.21867925  0.53791457  1
  O2-  O212  1  0.74844913  0.49650908  0.05951692  1
  O2-  O213  1  0.76615767  0.55694512  0.52768383  1
  O2-  O214  1  0.78974822  0.88652597  0.01174848  1
  O2-  O215  1  0.77184058  0.89078517  0.52629404  1
