# generated using pymatgen
data_H2O
_symmetry_space_group_name_H-M   'P 1'
_cell_length_a   13.51487315
_cell_length_b   13.52725591
_cell_length_c   14.69596222
_cell_angle_alpha   90.06277870
_cell_angle_beta   89.92656495
_cell_angle_gamma   119.99292287
_symmetry_Int_Tables_number   1
_chemical_formula_structural   H2O
_chemical_formula_sum   'H144 O72'
_cell_volume   2326.91697819
_cell_formula_units_Z   72
loop_
 _symmetry_equiv_pos_site_id
 _symmetry_equiv_pos_as_xyz
  1  'x, y, z'
loop_
 _atom_type_symbol
 _atom_type_oxidation_number
  H+  1.0
  O2-  -2.0
loop_
 _atom_site_type_symbol
 _atom_site_label
 _atom_site_symmetry_multiplicity
 _atom_site_fract_x
 _atom_site_fract_y
 _atom_site_fract_z
 _atom_site_occupancy
  H+  H0  1  0.19430098  0.38238094  0.75945946  1
  H+  H1  1  0.36837000  0.15689483  0.26321885  1
  H+  H2  1  0.66105219  0.49122534  0.76660896  1
  H+  H3  1  0.05368561  0.90967253  -0.04286888  1
  H+  H4  1  0.38119609  0.84440774  0.01150732  1
  H+  H5  1  0.52705091  0.49382413  0.99231360  1
  H+  H6  1  0.91835015  0.81936525  0.49254437  1
  H+  H7  1  0.49805987  0.52489737  0.73858150  1
  H+  H8  1  0.18810350  0.71136237  0.24273640  1
  H+  H9  1  0.68665634  0.86856831  0.50511585  1
  H+  H10  1  0.16645417  0.36564310  0.51561296  1
  H+  H11  1  0.57364925  0.13178551  0.88814803  1
  H+  H12  1  0.24655742  0.13729264  0.88888980  1
  H+  H13  1  0.48728708  0.31098775  -0.00055351  1
  H+  H14  1  0.21143766  0.76929591  0.84114601  1
  H+  H15  1  0.52981727  0.36572395  0.78092317  1
  H+  H16  1  0.07042486  0.37825251  0.32654180  1
  H+  H17  1  0.20310252  0.78868943  0.32723421  1
  H+  H18  1  0.64483415  0.48720141  0.99771825  1
  H+  H19  1  0.53057432  0.16093384  0.48069601  1
  H+  H20  1  0.84556771  0.48212267  0.49584669  1
  H+  H21  1  0.75305199  0.19337232  0.49101923  1
  H+  H22  1  0.73745495  0.89481729  0.65347699  1
  H+  H23  1  0.51490482  0.77285895  0.46480865  1
  H+  H24  1  0.17180496  1.00581741  -0.01127616  1
  H+  H25  1  0.53617963  0.05633064  0.97739316  1
  H+  H26  1  0.14807131  0.28623953  0.29467234  1
  H+  H27  1  0.80225363  0.62979499  0.24395114  1
  H+  H28  1  0.71213367  0.20033465  0.00245844  1
  H+  H29  1  0.80472668  0.62194991  0.52149150  1
  H+  H30  1  0.94840515  0.13030537  0.97188169  1
  H+  H31  1  0.16166310  0.52345653  0.73944603  1
  H+  H32  1  0.18943465  0.37175581  -0.02617547  1
  H+  H33  1  0.65074169  0.16610374  0.25323113  1
  H+  H34  1  0.52534488  0.04476150  0.75772228  1
  H+  H35  1  0.63474347  0.93353626  0.55526502  1
  H+  H36  1  0.35798373  0.50745649  0.51498906  1
  H+  H37  1  0.93029586  0.79611021  1.02273319  1
  H+  H38  1  0.84552066  0.67401240  0.77098241  1
  H+  H39  1  0.09447402  0.87895854  0.67340704  1
  H+  H40  1  0.85308636  0.49639785  0.26171877  1
  H+  H41  1  0.50256133  0.79113706  1.01234502  1
  H+  H42  1  0.52633701  0.66573311  0.47493236  1
  H+  H43  1  0.81093035  -0.04022908  0.25017967  1
  H+  H44  1  0.98426257  0.80413232  0.76808568  1
  H+  H45  1  0.19591433  0.49208590  0.98733628  1
  H+  H46  1  0.89212403  0.45689629  0.40340778  1
  H+  H47  1  0.18347773  0.69352761  0.75136126  1
  H+  H48  1  0.06933442  0.69820634  0.93441587  1
  H+  H49  1  0.01664461  0.51332847  0.50976288  1
  H+  H50  1  0.47444904  0.62040230  0.23638439  1
  H+  H51  1  0.85592574  0.36039587  0.75929497  1
  H+  H52  1  0.50599497  0.69188185  0.76411898  1
  H+  H53  1  0.50445674  0.16575214  0.26046646  1
  H+  H54  1  0.81164411  0.16928785  0.73996052  1
  H+  H55  1  0.49655811  0.97328954  0.23710566  1
  H+  H56  1  0.48115541  0.85206994  0.76059107  1
  H+  H57  1  0.43771247  0.86543356  0.53249401  1
  H+  H58  1  0.25092636  0.79745362  0.46435015  1
  H+  H59  1  0.17208472  0.48837155  0.51103998  1
  H+  H60  1  0.17168727  0.03898932  0.50561863  1
  H+  H61  1  0.82344377  0.80818054  -0.00075393  1
  H+  H62  1  0.13742737  0.68374839  0.48233839  1
  H+  H63  1  0.51736411  0.67527488  1.00704620  1
  H+  H64  1  0.48611051  0.28727173  0.26081521  1
  H+  H65  1  0.50883465  0.80551521  0.25207695  1
  H+  H66  1  0.86519223  0.36762806  0.99093743  1
  H+  H67  1  0.96802421  0.11762456  0.30567913  1
  H+  H68  1  0.13536343  0.82584217  0.75279725  1
  H+  H69  1  0.81954970  0.50365291  0.74487041  1
  H+  H70  1  0.50289415  0.45804654  0.26377508  1
  H+  H71  1  0.48522394  0.19300065  -0.00427815  1
  H+  H72  1  1.00911349  0.18843491  0.52485034  1
  H+  H73  1  0.80953253  1.06147707  0.51832968  1
  H+  H74  1  0.80774210  0.62029675  0.02183893  1
  H+  H75  1  0.43997439  0.54198786  0.10202285  1
  H+  H76  1  0.03741689  0.51421816  0.74404552  1
  H+  H77  1  0.81595690  0.31861010  0.23878383  1
  H+  H78  1  0.89491226  0.43960353  0.84955992  1
  H+  H79  1  0.14325943  0.85011524  0.21371098  1
  H+  H80  1  0.32335245  0.17805441  -0.01975185  1
  H+  H81  1  0.64254353  0.81237984  0.00940108  1
  H+  H82  1  0.35238545  0.17781343  0.49197696  1
  H+  H83  1  0.35761700  0.50191259  0.24144359  1
  H+  H84  1  0.86981183  0.09906372  0.37369764  1
  H+  H85  1  0.55272268  0.75460065  0.33147604  1
  H+  H86  1  0.36428820  0.85524621  0.75063503  1
  H+  H87  1  0.04035399  0.51002176  0.01218732  1
  H+  H88  1  0.15106111  0.81827168  -0.02574176  1
  H+  H89  1  0.81752614  1.00294099  0.75710040  1
  H+  H90  1  0.18781701  1.01816154  0.25931940  1
  H+  H91  1  0.36874312  0.51331799  0.00733614  1
  H+  H92  1  0.20185854  0.14031585  0.27876857  1
  H+  H93  1  0.97499480  0.50334323  0.25819124  1
  H+  H94  1  0.37624022  0.51856443  0.73811725  1
  H+  H95  1  0.79844450  0.96116428  0.00767794  1
  H+  H96  1  0.64699611  0.16152376  0.74600650  1
  H+  H97  1  0.14625119  0.85418194  0.52439415  1
  H+  H98  1  0.86026679  0.48263129  0.99562266  1
  H+  H99  1  0.95673149  0.81195656  0.25038152  1
  H+  H100  1  0.15273948  0.62997314  0.01223509  1
  H+  H101  1  0.15296462  0.19103315  -0.02296890  1
  H+  H102  1  0.51047887  0.35398613  0.48712855  1
  H+  H103  1  0.12415395  0.17922459  0.51754985  1
  H+  H104  1  0.15476376  0.52750325  0.24876400  1
  H+  H105  1  0.50922781  0.47167660  0.49161306  1
  H+  H106  1  0.81994067  0.18309038  0.00546150  1
  H+  H107  1  0.03072997  0.28805834  0.71726229  1
  H+  H108  1  0.43368543  0.85380277  0.11270771  1
  H+  H109  1  0.77063061  0.53997160  0.10957576  1
  H+  H110  1  0.23715343  0.95322170  0.58407913  1
  H+  H111  1  0.49904037  0.19911444  0.76157176  1
  H+  H112  1  0.44831004  0.55170244  0.59665793  1
  H+  H113  1  0.57974767  0.46423193  0.86576572  1
  H+  H114  1  0.68855329  0.50305016  0.52379056  1
  H+  H115  1  0.87368553  0.75946944  0.39696946  1
  H+  H116  1  0.88117161  0.75836831  0.86228900  1
  H+  H117  1  0.10350062  0.90271942  0.13316372  1
  H+  H118  1  0.57486080  0.11485941  0.34742854  1
  H+  H119  1  0.83986155  0.81356760  0.25536831  1
  H+  H120  1  0.20259186  0.09729136  0.40819631  1
  H+  H121  1  0.37047271  0.86194346  0.24173226  1
  H+  H122  1  0.77898163  0.23948950  0.14959491  1
  H+  H123  1  0.69095111  0.84298440  0.23502827  1
  H+  H124  1  0.18186088  0.42986740  0.38614583  1
  H+  H125  1  0.31235170  0.15900393  0.71278631  1
  H+  H126  1  0.24486935  0.46476690  0.84548267  1
  H+  H127  1  0.77427545  0.54624079  0.65712200  1
  H+  H128  1  0.10218231  0.56271787  0.59766080  1
  H+  H129  1  0.11592505  0.21312245  0.20679183  1
  H+  H130  1  0.54301418  0.76149968  0.85820884  1
  H+  H131  1  0.54814447  0.42928866  0.35595334  1
  H+  H132  1  0.47769237  0.91598676  0.63168195  1
  H+  H133  1  0.67637453  0.84162704  0.74683196  1
  H+  H134  1  0.09276833  0.21784985  0.05702595  1
  H+  H135  1  0.12493160  0.55937278  0.15098571  1
  H+  H136  1  0.79698597  0.22002483  0.64622696  1
  H+  H137  1  0.09009208  0.23604549  0.66007857  1
  H+  H138  1  0.68830334  0.50480380  0.24781835  1
  H+  H139  1  0.93988487  0.12211913  0.76636556  1
  H+  H140  1  0.85571957  0.08366666  0.89366501  1
  H+  H141  1  0.42715959  0.21379088  0.58000087  1
  H+  H142  1  0.76812538  0.89081496  0.10491480  1
  H+  H143  1  0.54739307  0.05566200  0.49799645  1
  O2-  O144  1  0.12556828  0.20764175  0.27183076  1
  O2-  O145  1  0.07891952  0.25367944  0.72453225  1
  O2-  O146  1  0.12496748  0.57229240  0.21813389  1
  O2-  O147  1  0.11655113  0.55968393  0.71874491  1
  O2-  O148  1  0.10146733  0.89208514  0.19961384  1
  O2-  O149  1  0.08523906  0.86061649  0.73996968  1
  O2-  O150  1  0.45139071  0.20349512  0.24235432  1
  O2-  O151  1  0.45823040  0.24453582  0.77322791  1
  O2-  O152  1  0.43517719  0.53747915  0.21693691  1
  O2-  O153  1  0.45733395  0.56271000  0.71476173  1
  O2-  O154  1  0.45023606  0.89095625  0.21928982  1
  O2-  O155  1  0.44812405  0.89894010  0.73680272  1
  O2-  O156  1  0.76812790  0.23905387  0.21627438  1
  O2-  O157  1  0.78577600  0.22121331  0.71336142  1
  O2-  O158  1  0.76697370  0.54888225  0.22209807  1
  O2-  O159  1  0.77828744  0.54591497  0.72735873  1
  O2-  O160  1  0.77228785  0.88621250  0.21439336  1
  O2-  O161  1  0.75271345  0.88376880  0.71764420  1
  O2-  O162  1  0.23590091  0.09134061  0.29311263  1
  O2-  O163  1  0.38529624  0.22457070  0.69300506  1
  O2-  O164  1  0.15309881  0.41071366  0.32029411  1
  O2-  O165  1  0.24417463  0.46418639  0.77726745  1
  O2-  O166  1  0.22166069  0.79360403  0.26175590  1
  O2-  O167  1  0.22026182  0.77545364  0.77384653  1
  O2-  O168  1  0.56768704  0.11493298  0.27915424  1
  O2-  O169  1  0.56833512  0.12763077  0.77355129  1
  O2-  O170  1  0.54469647  0.42047104  0.28723657  1
  O2-  O171  1  0.57833448  0.45621614  0.79412569  1
  O2-  O172  1  0.54637006  0.75906588  0.26378795  1
  O2-  O173  1  0.53795092  0.76990568  0.79218076  1
  O2-  O174  1  0.88465662  0.07738186  0.31333674  1
  O2-  O175  1  0.85876275  0.08491673  0.78460319  1
  O2-  O176  1  0.89659634  0.45907664  0.28322064  1
  O2-  O177  1  0.89395728  0.44127751  0.78145522  1
  O2-  O178  1  0.87852086  0.77099166  0.27645200  1
  O2-  O179  1  0.89000013  0.75536602  0.79503848  1
  O2-  O180  1  0.20165565  0.11349443  0.47430292  1
  O2-  O181  1  0.23891584  0.13784689  0.95493071  1
  O2-  O182  1  0.21157250  0.44536875  0.49120037  1
  O2-  O183  1  0.23885564  0.45525865  0.96206113  1
  O2-  O184  1  0.16882788  0.76375861  0.45556415  1
  O2-  O185  1  0.14946716  0.74786828  0.95111361  1
  O2-  O186  1  0.57834829  0.12722105  0.46268542  1
  O2-  O187  1  0.57316338  0.13530591  0.95677330  1
  O2-  O188  1  0.55405062  0.43617345  0.46854332  1
  O2-  O189  1  0.56888399  0.45706653  0.96535878  1
  O2-  O190  1  0.56490189  0.74393048  0.44585018  1
  O2-  O191  1  0.55586763  0.76064789  0.98642159  1
  O2-  O192  1  0.86555532  0.14038908  0.49431089  1
  O2-  O193  1  0.86451899  0.08861990  0.96268334  1
  O2-  O194  1  0.89376370  0.45247012  0.47084039  1
  O2-  O195  1  0.90546153  0.44970091  0.96932825  1
  O2-  O196  1  0.86438036  0.74752550  0.46395642  1
  O2-  O197  1  0.86593927  0.76764281  0.98036846  1
  O2-  O198  1  0.10196065  0.22376187  -0.00882434  1
  O2-  O199  1  0.09045463  0.22336084  0.54469617  1
  O2-  O200  1  0.12202224  0.55103605  0.03435270  1
  O2-  O201  1  0.10112472  0.56049119  0.52999595  1
  O2-  O202  1  0.11429893  0.92211839  0.00002451  1
  O2-  O203  1  0.15660816  0.91727755  0.56669617  1
  O2-  O204  1  0.44074158  0.22922894  0.01594552  1
  O2-  O205  1  0.43328410  0.21154493  0.51288207  1
  O2-  O206  1  0.44866972  0.55176903  0.03399234  1
  O2-  O207  1  0.44126032  0.54260032  0.52903786  1
  O2-  O208  1  0.41911998  0.81561414  0.05080210  1
  O2-  O209  1  0.50231826  0.92625102  0.56494256  1
  O2-  O210  1  0.79121657  0.23421257  0.02683310  1
  O2-  O211  1  0.82007836  0.21149558  0.52992765  1
  O2-  O212  1  0.77359121  0.53961227  0.04060890  1
  O2-  O213  1  0.76713912  0.54438360  0.55027344  1
  O2-  O214  1  0.75945526  0.88141988  0.03573965  1
  O2-  O215  1  0.70767805  0.93292499  0.54736363  1
