# generated using pymatgen
data_H2O
_symmetry_space_group_name_H-M   'P 1'
_cell_length_a   13.52570746
_cell_length_b   13.52511823
_cell_length_c   14.69558255
_cell_angle_alpha   90.00253620
_cell_angle_beta   89.96334727
_cell_angle_gamma   120.01292111
_symmetry_Int_Tables_number   1
_chemical_formula_structural   H2O
_chemical_formula_sum   'H144 O72'
_cell_volume   2327.88663817
_cell_formula_units_Z   72
loop_
 _symmetry_equiv_pos_site_id
 _symmetry_equiv_pos_as_xyz
  1  'x, y, z'
loop_
 _atom_type_symbol
 _atom_type_oxidation_number
  H+  1.0
  O2-  -2.0
loop_
 _atom_site_type_symbol
 _atom_site_label
 _atom_site_symmetry_multiplicity
 _atom_site_fract_x
 _atom_site_fract_y
 _atom_site_fract_z
 _atom_site_occupancy
  H+  H0  1  0.48778720  0.96026737  0.51026605  1
  H+  H1  1  0.83215971  0.34914685  0.75773792  1
  H+  H2  1  0.68500842  0.17003014  0.74906192  1
  H+  H3  1  0.79124230  0.47437957  0.22972910  1
  H+  H4  1  0.19160217  0.80165500  0.51112675  1
  H+  H5  1  0.80865655  0.16896614  0.01313924  1
  H+  H6  1  0.84515231  1.01663046  0.00024932  1
  H+  H7  1  0.95357784  0.47281071  0.98517151  1
  H+  H8  1  1.00754617  0.15647581  1.01129876  1
  H+  H9  1  0.48801848  0.64305225  0.25000475  1
  H+  H10  1  0.12932339  0.53823814  0.65378630  1
  H+  H11  1  0.02369878  0.88487217  0.23863748  1
  H+  H12  1  0.67483293  0.47616732  0.22659273  1
  H+  H13  1  0.00946822  0.82326506  0.52798977  1
  H+  H14  1  0.38304230  0.19642337  0.01818712  1
  H+  H15  1  0.17781522  0.76416026  0.76266275  1
  H+  H16  1  0.52527987  0.39204226  0.77997174  1
  H+  H17  1  0.51730398  0.15509248  0.26311414  1
  H+  H18  1  0.80834394  0.29586533  0.51503585  1
  H+  H19  1  0.12421709  0.29005785  0.51296433  1
  H+  H20  1  0.63034815  0.14541469  0.49264914  1
  H+  H21  1  0.21668874  0.16791830  0.37137087  1
  H+  H22  1  0.13253842  0.49711855  0.51731452  1
  H+  H23  1  0.37287487  0.84811131  0.25479753  1
  H+  H24  1  0.80147698  0.83580952  0.00535512  1
  H+  H25  1  0.52817143  0.48597111  0.49886859  1
  H+  H26  1  0.09364966  0.82667340  0.20007614  1
  H+  H27  1  0.16447356  0.50131734  0.00703758  1
  H+  H28  1  0.69523219  0.52000442  0.75091425  1
  H+  H29  1  0.15996330  0.40340104  0.74746315  1
  H+  H30  1  0.54403787  0.71310887  0.48964842  1
  H+  H31  1  0.34960238  0.17267254  0.46838984  1
  H+  H32  1  0.51042728  0.35944958  0.48668569  1
  H+  H33  1  0.18772593  0.42346932  0.38210763  1
  H+  H34  1  0.55476348  0.84064800  0.75054068  1
  H+  H35  1  0.51896920  0.13431128  0.78349204  1
  H+  H36  1  0.48739436  -0.03048717  0.24647901  1
  H+  H37  1  0.18556609  0.36388756  0.24500888  1
  H+  H38  1  0.84408578  0.47838012  0.49985362  1
  H+  H39  1  0.80634653  0.98113856  0.22569007  1
  H+  H40  1  -0.03860814  0.47756552  0.50686067  1
  H+  H41  1  0.19016668  0.69026904  0.99340547  1
  H+  H42  1  0.50705030  0.13625829  0.48471103  1
  H+  H43  1  0.73642050  0.87503263  0.69867819  1
  H+  H44  1  0.48596697  0.51314964  0.25194493  1
  H+  H45  1  0.50857284  0.03149510  1.00378152  1
  H+  H46  1  0.17119357  0.04464691  0.40375291  1
  H+  H47  1  0.40527715  0.20445184  0.73610009  1
  H+  H48  1  0.94341619  0.15984196  0.78094991  1
  H+  H49  1  0.84012109  0.68733999  -0.01040846  1
  H+  H50  1  0.47679979  0.85264919  0.00894659  1
  H+  H51  1  0.17881084  1.03410251  0.20949069  1
  H+  H52  1  0.49924781  0.36349013  0.26305559  1
  H+  H53  1  0.69916616  0.85502448  0.23754625  1
  H+  H54  1  0.62186830  0.81755875  0.98906272  1
  H+  H55  1  0.25683557  0.59992785  0.06476160  1
  H+  H56  1  0.63611622  0.49908700  -0.00387148  1
  H+  H57  1  0.87242056  0.68579269  0.23277071  1
  H+  H58  1  0.81691763  0.68063801  0.24793631  1
  H+  H59  1  0.13611615  0.83820564  -0.01090745  1
  H+  H60  1  0.15230435  0.08211828  0.81167325  1
  H+  H61  1  0.31336363  0.80594326  0.51055274  1
  H+  H62  1  0.81045410  0.51471753  -0.00057062  1
  H+  H63  1  0.87918957  0.75731826  0.86895212  1
  H+  H64  1  0.13596495  0.18579431  0.22392681  1
  H+  H65  1  0.15037660  0.62077533  0.25090771  1
  H+  H66  1  0.40604156  0.53854641  0.53202711  1
  H+  H67  1  0.11676374  0.94288880  0.55439345  1
  H+  H68  1  0.43603203  0.88422302  0.10219010  1
  H+  H69  1  0.26555303  0.48289807  0.46335285  1
  H+  H70  1  -0.05046277  0.14289696  0.48419990  1
  H+  H71  1  0.14856855  0.90351113  0.75595352  1
  H+  H72  1  0.17791700  0.62072850  0.75498432  1
  H+  H73  1  0.96837996  0.47970083  0.26825116  1
  H+  H74  1  0.56475443  0.80237952  0.89323672  1
  H+  H75  1  0.80890330  0.50801301  0.74445750  1
  H+  H76  1  0.95580231  0.46057699  0.76038891  1
  H+  H77  1  -0.03877953  0.80936744  -0.02100593  1
  H+  H78  1  0.80407614  0.17614424  0.50801636  1
  H+  H79  1  0.15444963  0.34405060  0.97157612  1
  H+  H80  1  0.83836480  0.67510551  0.76634913  1
  H+  H81  1  0.11581194  0.22330666  0.76936944  1
  H+  H82  1  0.49689353  0.18935968  0.01278247  1
  H+  H83  1  0.20971876  0.13133885  0.14002775  1
  H+  H84  1  0.81925158  0.13505457  0.78631275  1
  H+  H85  1  0.38063097  0.55110610  0.73723955  1
  H+  H86  1  0.14349643  0.11670740  0.97081299  1
  H+  H87  1  0.37800576  0.83140589  0.74317547  1
  H+  H88  1  0.87748441  0.43359282  0.89621221  1
  H+  H89  1  0.81894969  0.32069897  0.26044457  1
  H+  H90  1  0.36713240  0.18474315  0.22522380  1
  H+  H91  1  -0.04065603  0.16512241  0.24304252  1
  H+  H92  1  0.53616655  0.82636420  0.49054899  1
  H+  H93  1  0.69974758  0.83010017  0.54326270  1
  H+  H94  1  0.84867220  0.68881048  0.49037122  1
  H+  H95  1  0.52100089  0.37876757  -0.00482922  1
  H+  H96  1  0.24641516  0.20161646  0.84626191  1
  H+  H97  1  0.51745478  0.81560605  0.26168904  1
  H+  H98  1  0.63471372  0.14560843  1.00019646  1
  H+  H99  1  0.69739780  0.50629265  0.51064246  1
  H+  H100  1  0.15556004  0.62435095  0.53229329  1
  H+  H101  1  0.80637199  0.28515575  1.00674024  1
  H+  H102  1  0.18940065  0.79657799  0.29841652  1
  H+  H103  1  0.29758654  0.81444246  0.98864736  1
  H+  H104  1  0.87839015  0.88691553  0.28035742  1
  H+  H105  1  0.12071994  0.17277758  0.52715938  1
  H+  H106  1  0.83311496  0.02887599  0.46730503  1
  H+  H107  1  0.77274805  0.55031688  0.60149577  1
  H+  H108  1  0.81542808  0.19329983  0.24284690  1
  H+  H109  1  0.23376473  0.75135191  0.37569581  1
  H+  H110  1  0.49033590  0.53553558  0.75514274  1
  H+  H111  1  0.89245937  0.44644855  0.36131790  1
  H+  H112  1  0.45669389  0.51857573  -0.01884905  1
  H+  H113  1  0.22591812  0.74120689  0.85521401  1
  H+  H114  1  0.09506006  0.23165868  0.14334026  1
  H+  H115  1  0.68918449  0.19218807  0.25359077  1
  H+  H116  1  0.76557028  0.53642217  0.09245797  1
  H+  H117  1  0.84437604  0.79906887  0.51739423  1
  H+  H118  1  0.88283747  0.10243422  0.91329434  1
  H+  H119  1  0.46751085  0.23784902  0.15579073  1
  H+  H120  1  0.76172272  0.20974039  0.65718742  1
  H+  H121  1  0.45761473  0.88512389  0.60182178  1
  H+  H122  1  0.48603894  0.95813976  0.74948548  1
  H+  H123  1  0.55797462  0.72728195  0.75728065  1
  H+  H124  1  0.88110793  0.12099452  0.33239330  1
  H+  H125  1  0.92045842  0.84238243  0.36487871  1
  H+  H126  1  0.45363685  0.63313025  0.96964976  1
  H+  H127  1  0.54706835  0.44569545  0.35177127  1
  H+  H128  1  0.09281230  0.83658551  0.66463710  1
  H+  H129  1  0.76811845  0.87829908  0.09639281  1
  H+  H130  1  0.26605525  0.46094745  0.94721584  1
  H+  H131  1  0.56380264  0.47255133  0.86605113  1
  H+  H132  1  0.56584895  0.78042117  0.34905392  1
  H+  H133  1  0.55678209  0.11133307  0.35120149  1
  H+  H134  1  0.09735753  0.89415378  0.06596025  1
  H+  H135  1  -0.03232269  0.78676457  0.77402508  1
  H+  H136  1  0.11872783  0.54880595  0.15753319  1
  H+  H137  1  0.48741831  0.58290211  0.61417518  1
  H+  H138  1  0.52382481  0.26273997  0.68706001  1
  H+  H139  1  0.18493280  0.48219715  0.25091972  1
  H+  H140  1  0.36109974  0.51588415  0.24367717  1
  H+  H141  1  0.07860453  0.23765264  0.66941789  1
  H+  H142  1  0.55700455  0.09212677  0.86907721  1
  H+  H143  1  0.39413457  0.18589148  0.56704644  1
  O2-  O144  1  0.09884012  0.23215083  0.21247194  1
  O2-  O145  1  0.08093904  0.26028255  0.73375748  1
  O2-  O146  1  0.10708545  0.54217915  0.22529179  1
  O2-  O147  1  0.13512872  0.53331233  0.72600855  1
  O2-  O148  1  0.08521265  0.89356256  0.19264243  1
  O2-  O149  1  0.09776379  0.82653366  0.73301943  1
  O2-  O150  1  0.45240404  0.22938654  0.22290923  1
  O2-  O151  1  0.48751770  0.24640836  0.74690287  1
  O2-  O152  1  0.44662838  0.55890531  0.22841836  1
  O2-  O153  1  0.46195407  0.58168988  0.72251003  1
  O2-  O154  1  0.44954889  0.88811179  0.22635787  1
  O2-  O155  1  0.45454368  0.88268032  0.71756600  1
  O2-  O156  1  0.77321716  0.23827778  0.23355350  1
  O2-  O157  1  0.76423113  0.21775810  0.72463329  1
  O2-  O158  1  0.73123276  0.46923738  0.18883482  1
  O2-  O159  1  0.77395994  0.55405651  0.72347014  1
  O2-  O160  1  0.77797191  0.89900689  0.21253570  1
  O2-  O161  1  0.79638950  0.90824832  0.65037540  1
  O2-  O162  1  0.22030301  0.11943983  0.20539866  1
  O2-  O163  1  0.16394645  0.15039587  0.84343003  1
  O2-  O164  1  0.22853413  0.44365322  0.27174589  1
  O2-  O165  1  0.21492968  0.48924866  0.74246637  1
  O2-  O166  1  0.23039258  0.75503010  0.30741352  1
  O2-  O167  1  0.22553250  0.73212196  0.78597275  1
  O2-  O168  1  0.56011782  0.11584642  0.28277509  1
  O2-  O169  1  0.55456444  0.08866364  0.79991846  1
  O2-  O170  1  0.53693329  0.44535570  0.28411974  1
  O2-  O171  1  0.56473349  0.47363431  0.79638839  1
  O2-  O172  1  0.55580671  0.77173042  0.28107133  1
  O2-  O173  1  0.60210103  0.80909244  0.77443927  1
  O2-  O174  1  0.87782727  0.12592756  0.26474946  1
  O2-  O175  1  0.86891677  0.10628223  0.80882896  1
  O2-  O176  1  0.88891148  0.44064064  0.29311156  1
  O2-  O177  1  0.87662976  0.43182226  0.77958090  1
  O2-  O178  1  0.94719523  0.89585329  0.31272314  1
  O2-  O179  1  0.88600935  0.75584035  0.79370216  1
  O2-  O180  1  0.21127602  0.12354494  0.42560756  1
  O2-  O181  1  0.15528167  0.14711410  1.03358648  1
  O2-  O182  1  0.18580517  0.42778543  0.45074705  1
  O2-  O183  1  0.18076642  0.41926180  0.94279612  1
  O2-  O184  1  0.23000350  0.75929931  0.49163225  1
  O2-  O185  1  0.21898124  0.76541109  0.96220168  1
  O2-  O186  1  0.55121933  0.09928079  0.46604622  1
  O2-  O187  1  0.55166695  0.11082356  0.97865639  1
  O2-  O188  1  0.55828171  0.44032364  0.46806259  1
  O2-  O189  1  0.55529923  0.45887970  0.97338056  1
  O2-  O190  1  0.58138136  0.79234663  0.46545603  1
  O2-  O191  1  0.54605698  0.78978715  0.95948631  1
  O2-  O192  1  0.87465177  0.10996904  0.45161885  1
  O2-  O193  1  0.89094848  0.09948148  0.98275594  1
  O2-  O194  1  0.88519970  0.43787713  0.47782559  1
  O2-  O195  1  0.87464411  0.43592647  0.96433564  1
  O2-  O196  1  0.89048119  0.77328093  0.48090038  1
  O2-  O197  1  0.87710615  0.76599990  0.95989618  1
  O2-  O198  1  0.09487323  0.21275222  0.03366715  1
  O2-  O199  1  0.08007794  0.21381868  0.54205323  1
  O2-  O200  1  0.17590073  0.56766765  0.04984213  1
  O2-  O201  1  0.10897122  0.54336732  0.55491037  1
  O2-  O202  1  0.09423129  0.88000329  -0.00019817  1
  O2-  O203  1  0.08973011  0.86111131  0.55718410  1
  O2-  O204  1  0.46305462  0.23676908  0.03670788  1
  O2-  O205  1  0.42169500  0.20411958  0.50452153  1
  O2-  O206  1  0.40461894  0.54982188  -0.02059927  1
  O2-  O207  1  0.48738043  0.57691374  0.54507963  1
  O2-  O208  1  0.43224755  0.88758794  0.03479193  1
  O2-  O209  1  0.45195226  0.88016953  0.53357077  1
  O2-  O210  1  0.76368539  0.20595292  0.02943391  1
  O2-  O211  1  0.76416494  0.21418256  0.53494324  1
  O2-  O212  1  0.77558528  0.55829294  0.02557870  1
  O2-  O213  1  0.77746200  0.54818437  0.53390682  1
  O2-  O214  1  0.76380143  0.87765472  0.02838804  1
  O2-  O215  1  0.75123433  0.81550582  0.58262882  1
