# generated using pymatgen
data_H2O
_symmetry_space_group_name_H-M   'P 1'
_cell_length_a   13.50980368
_cell_length_b   13.50373425
_cell_length_c   14.71080042
_cell_angle_alpha   90.01337902
_cell_angle_beta   90.03348268
_cell_angle_gamma   120.00201996
_symmetry_Int_Tables_number   1
_chemical_formula_structural   H2O
_chemical_formula_sum   'H144 O72'
_cell_volume   2324.13238092
_cell_formula_units_Z   72
loop_
 _symmetry_equiv_pos_site_id
 _symmetry_equiv_pos_as_xyz
  1  'x, y, z'
loop_
 _atom_type_symbol
 _atom_type_oxidation_number
  H+  1.0
  O2-  -2.0
loop_
 _atom_site_type_symbol
 _atom_site_label
 _atom_site_symmetry_multiplicity
 _atom_site_fract_x
 _atom_site_fract_y
 _atom_site_fract_z
 _atom_site_occupancy
  H+  H0  1  0.66668089  0.48643550  0.74766247  1
  H+  H1  1  0.81746117  0.21114567  0.23952285  1
  H+  H2  1  0.48974491  0.63953561  0.73472990  1
  H+  H3  1  1.00344094  0.19779304  0.23181836  1
  H+  H4  1  0.18762189  0.70406426  0.49880519  1
  H+  H5  1  0.49101551  0.52252192  0.51366218  1
  H+  H6  1  0.85272834  0.03302533  0.74638081  1
  H+  H7  1  0.83668471  0.70812969  0.50051111  1
  H+  H8  1  0.28759216  0.36092595  0.31981616  1
  H+  H9  1  0.18682265  0.14976279  0.76279081  1
  H+  H10  1  0.30418856  0.48497349  1.01119521  1
  H+  H11  1  0.18742269  0.36695943  0.00722307  1
  H+  H12  1  0.48837428  0.18956497  0.50995602  1
  H+  H13  1  0.30015914  0.48212883  0.50832493  1
  H+  H14  1  0.62054509  0.14245140  0.50045317  1
  H+  H15  1  0.51303900  0.81863695  0.50013006  1
  H+  H16  1  0.16175693  0.63346277  0.00442382  1
  H+  H17  1  0.69925500  0.53706743  0.51009599  1
  H+  H18  1  0.80160025  0.84382170  0.72935165  1
  H+  H19  1  0.82515511  0.81218164  -0.04575288  1
  H+  H20  1  0.82188298  0.80498363  0.27941411  1
  H+  H21  1  0.50150024  0.02618697  0.49744358  1
  H+  H22  1  0.49219427  0.18746831  0.01117413  1
  H+  H23  1  0.32555953  0.81501410  -0.01478987  1
  H+  H24  1  0.48541886  -0.02692041  0.74312274  1
  H+  H25  1  0.36948880  0.52345849  0.73726799  1
  H+  H26  1  0.97540938  0.50481626  0.48514959  1
  H+  H27  1  0.84669226  0.47505458  0.76776297  1
  H+  H28  1  0.51501438  0.69903800  0.49763980  1
  H+  H29  1  0.19393327  0.50478526  0.74913731  1
  H+  H30  1  0.17730276  0.81731360  0.76136317  1
  H+  H31  1  0.15013419  0.51953982  0.51391304  1
  H+  H32  1  0.18442692  1.04978803  0.25436417  1
  H+  H33  1  0.82431774  0.68361638  0.73964023  1
  H+  H34  1  0.16435182  0.85002882  0.28271760  1
  H+  H35  1  0.58644556  0.79240345  0.95717891  1
  H+  H36  1  0.44509360  0.88904566  0.60073037  1
  H+  H37  1  0.84808673  0.70884484  0.96391994  1
  H+  H38  1  0.68798570  0.85409360  0.73482596  1
  H+  H39  1  0.36475191  0.84339120  0.51188907  1
  H+  H40  1  0.15162193  0.64395761  0.73953709  1
  H+  H41  1  0.49537466  0.30775745  0.24576547  1
  H+  H42  1  1.04633690  0.19321772  0.98852783  1
  H+  H43  1  0.71092154  0.43182436  0.67575575  1
  H+  H44  1  0.52502426  0.49284150  1.00446664  1
  H+  H45  1  0.83163706  0.83235787  0.49286909  1
  H+  H46  1  0.52738206  0.37408108  1.00101442  1
  H+  H47  1  0.50708403  0.82089325  0.74263785  1
  H+  H48  1  0.15685263  0.51224520  0.01329427  1
  H+  H49  1  0.79946733  0.17540782  0.52051427  1
  H+  H50  1  0.77698334  0.57661320  0.59985577  1
  H+  H51  1  0.19462951  0.34228438  0.24753491  1
  H+  H52  1  0.82538010  0.50611213  0.26167163  1
  H+  H53  1  0.52448895  0.49734661  0.27219385  1
  H+  H54  1  0.18280259  0.36456606  0.51083165  1
  H+  H55  1  0.15285623  0.17054301  0.49611213  1
  H+  H56  1  0.82799390  0.68751286  0.27189178  1
  H+  H57  1  0.20858612  0.54996133  0.23467713  1
  H+  H58  1  0.36183155  0.85734707  0.73939491  1
  H+  H59  1  0.79429016  0.25321633  0.14562415  1
  H+  H60  1  0.82825820  0.30660076  0.99723544  1
  H+  H61  1  0.21527710  0.89252404  0.52789139  1
  H+  H62  1  0.92736718  0.04515322  0.95795164  1
  H+  H63  1  0.55939415  0.10728957  0.85736826  1
  H+  H64  1  0.33421595  0.75034177  0.20590842  1
  H+  H65  1  0.19993066  -0.01143156  1.02173940  1
  H+  H66  1  0.49018316  0.30250098  0.74834183  1
  H+  H67  1  0.15652999  0.17850097  1.00424948  1
  H+  H68  1  1.01466154  0.83494500  0.73176974  1
  H+  H69  1  0.03901097  0.19026628  0.74236080  1
  H+  H70  1  0.38187811  0.51071504  0.24099428  1
  H+  H71  1  0.21949976  0.06121493  0.48536041  1
  H+  H72  1  -0.03763158  0.15168065  0.48947109  1
  H+  H73  1  0.53298161  0.37791583  0.49908562  1
  H+  H74  1  0.85578522  0.15461031  0.75563799  1
  H+  H75  1  0.82523332  0.18726094  1.00110513  1
  H+  H76  1  0.84147628  1.03751709  0.48850453  1
  H+  H77  1  0.86390137  0.51594371  0.48679816  1
  H+  H78  1  0.45165683  0.55936195  0.60362902  1
  H+  H79  1  0.70698740  0.17922620  0.75963248  1
  H+  H80  1  0.67776268  0.85264938  0.26876348  1
  H+  H81  1  0.19761546  0.39161930  0.77306896  1
  H+  H82  1  0.27421863  0.83576593  0.27259877  1
  H+  H83  1  0.68730716  0.84934665  0.50779385  1
  H+  H84  1  0.31199256  0.15768591  0.25184580  1
  H+  H85  1  0.70722371  0.52718923  0.00782722  1
  H+  H86  1  0.98354208  0.49047988  0.99449213  1
  H+  H87  1  0.82907883  1.04615306  0.27746376  1
  H+  H88  1  0.86468027  0.49176287  0.98994812  1
  H+  H89  1  0.47071443  1.01185619  0.27548003  1
  H+  H90  1  0.82644718  0.30001279  0.75513424  1
  H+  H91  1  0.51108039  0.48909378  0.77089247  1
  H+  H92  1  0.53112046  0.15396622  0.76616656  1
  H+  H93  1  0.49674251  0.81508251  0.26665381  1
  H+  H94  1  0.51485398  1.02684426  -0.00319612  1
  H+  H95  1  0.64053234  0.49361246  0.28351883  1
  H+  H96  1  0.03453453  0.52302498  0.74169482  1
  H+  H97  1  0.84887957  0.38478857  0.25816886  1
  H+  H98  1  0.13078452  0.95393810  0.74847461  1
  H+  H99  1  0.29884439  0.13903946  0.75778705  1
  H+  H100  1  0.47044004  0.63001934  0.00786234  1
  H+  H101  1  0.47927192  0.80548901  0.97855322  1
  H+  H102  1  0.75974589  0.20505908  0.61272379  1
  H+  H103  1  0.15997828  0.92791051  0.60668679  1
  H+  H104  1  0.76984318  0.95474051  -0.02874261  1
  H+  H105  1  0.63398666  0.14785764  -0.00846557  1
  H+  H106  1  0.31602802  0.16226066  0.99029492  1
  H+  H107  1  0.48538323  0.64293995  0.25000635  1
  H+  H108  1  0.87287750  0.78047478  0.40103898  1
  H+  H109  1  0.41359919  0.86012235  0.14585849  1
  H+  H110  1  0.08170390  0.22013718  0.14207615  1
  H+  H111  1  0.45671447  0.23045089  0.10080926  1
  H+  H112  1  0.88640564  0.46296037  0.35413415  1
  H+  H113  1  0.89309466  0.10023385  0.87615453  1
  H+  H114  1  0.46291874  0.23238887  0.65509220  1
  H+  H115  1  0.72021998  0.86630788  0.05131590  1
  H+  H116  1  0.54039044  0.92127930  0.06909178  1
  H+  H117  1  0.90001310  0.44905962  0.85580914  1
  H+  H118  1  0.56354152  0.45690484  0.40992262  1
  H+  H119  1  0.23675510  0.12901476  0.38835333  1
  H+  H120  1  0.72863076  0.51068517  0.18204007  1
  H+  H121  1  0.77659225  0.90166297  0.19326301  1
  H+  H122  1  0.87769529  0.13568677  0.35626275  1
  H+  H123  1  0.45886952  0.56942506  0.10601163  1
  H+  H124  1  0.86732511  0.76652612  0.82650747  1
  H+  H125  1  0.26205825  0.95312483  0.09318952  1
  H+  H126  1  0.23014039  0.78301283  0.84657063  1
  H+  H127  1  0.23223969  0.11011665  0.90326006  1
  H+  H128  1  0.80672588  0.59366912  0.08180218  1
  H+  H129  1  0.48719022  0.18370699  0.24528781  1
  H+  H130  1  0.10882734  0.56332764  0.59782857  1
  H+  H131  1  0.38036906  0.20747901  0.50854114  1
  H+  H132  1  0.52845076  0.09558638  0.35888153  1
  H+  H133  1  0.54238262  0.78538277  0.36068870  1
  H+  H134  1  0.09674789  0.89078083  0.15813472  1
  H+  H135  1  0.13639192  0.26014421  0.66905568  1
  H+  H136  1  0.21561204  0.82459824  0.99311344  1
  H+  H137  1  0.22238613  0.79517500  0.41592269  1
  H+  H138  1  0.76984897  0.89303265  0.59627029  1
  H+  H139  1  0.52795270  0.76973668  0.83244733  1
  H+  H140  1  0.07481605  0.13539814  0.58272766  1
  H+  H141  1  0.55321474  0.45197440  0.86294458  1
  H+  H142  1  1.00444857  0.85184478  0.24056648  1
  H+  H143  1  0.17828548  0.58711154  0.14068834  1
  O2-  O144  1  0.08104784  0.24212635  0.20572273  1
  O2-  O145  1  0.12377307  0.23221940  0.73172923  1
  O2-  O146  1  0.22803796  0.61533224  0.19557761  1
  O2-  O147  1  0.11261043  0.56406983  0.71502929  1
  O2-  O148  1  0.08557368  0.90094424  0.22306144  1
  O2-  O149  1  0.09860584  0.87674808  0.72110267  1
  O2-  O150  1  0.45790350  0.23181306  0.21564989  1
  O2-  O151  1  0.45949777  0.22437087  0.72286363  1
  O2-  O152  1  0.46282899  0.56787124  0.22152219  1
  O2-  O153  1  0.45290896  0.55686062  0.71778951  1
  O2-  O154  1  0.39393214  0.83362719  0.21131749  1
  O2-  O155  1  0.44244166  0.89462993  0.71633167  1
  O2-  O156  1  0.79334033  0.26282237  0.21187546  1
  O2-  O157  1  0.78730001  0.21827337  0.73531568  1
  O2-  O158  1  0.77081039  0.55223803  0.23586699  1
  O2-  O159  1  0.73843187  0.50198273  0.71125164  1
  O2-  O160  1  0.76453030  0.89120857  0.25846021  1
  O2-  O161  1  0.76902887  0.89326698  0.71152419  1
  O2-  O162  1  0.23520151  0.12654863  0.27978586  1
  O2-  O163  1  0.22078331  0.10309131  0.78403386  1
  O2-  O164  1  0.26582791  0.40375299  0.27925665  1
  O2-  O165  1  0.24393732  0.47518797  0.77139352  1
  O2-  O166  1  0.20737089  0.81636908  0.31095141  1
  O2-  O167  1  0.22486368  0.78245365  0.77873423  1
  O2-  O168  1  0.51952026  0.09208080  0.29125040  1
  O2-  O169  1  0.56745167  0.11006695  0.78907548  1
  O2-  O170  1  0.55691250  0.45175134  0.30007920  1
  O2-  O171  1  0.55013116  0.44708177  0.79492646  1
  O2-  O172  1  0.54745198  0.78727169  0.29237573  1
  O2-  O173  1  0.54834040  0.78116372  0.76621081  1
  O2-  O174  1  0.87002786  0.12927541  0.28848186  1
  O2-  O175  1  0.89857412  0.11234678  0.77184883  1
  O2-  O176  1  0.88158521  0.46522948  0.28463988  1
  O2-  O177  1  0.89528963  0.44347364  0.78738595  1
  O2-  O178  1  0.86705483  0.76787845  0.29733238  1
  O2-  O179  1  0.86548367  0.76429907  0.75700203  1
  O2-  O180  1  0.23865812  0.13689856  0.45742093  1
  O2-  O181  1  0.23384012  0.11427877  0.97117296  1
  O2-  O182  1  0.21756995  0.44477388  0.49307706  1
  O2-  O183  1  0.22371427  0.44863792  0.99046524  1
  O2-  O184  1  0.23503642  0.78706946  0.48261577  1
  O2-  O185  1  0.24576209  0.77897844  0.96307388  1
  O2-  O186  1  0.54018464  0.10691397  0.47522104  1
  O2-  O187  1  0.55275585  0.10864521  0.97125074  1
  O2-  O188  1  0.57088793  0.46008297  0.47862899  1
  O2-  O189  1  0.56865195  0.45581267  0.98007308  1
  O2-  O190  1  0.55551385  0.78028504  0.47465680  1
  O2-  O191  1  0.50294184  0.75266912  0.94640927  1
  O2-  O192  1  0.88129718  0.11922722  0.47011774  1
  O2-  O193  1  0.88913475  0.08898253  0.94580900  1
  O2-  O194  1  0.89607214  0.47131789  0.46062234  1
  O2-  O195  1  0.90272150  0.44928907  0.96896162  1
  O2-  O196  1  0.87417058  0.78948703  0.47121903  1
  O2-  O197  1  0.87586640  0.78392770  0.93357037  1
  O2-  O198  1  0.11532994  0.21867073  0.02538540  1
  O2-  O199  1  0.09836553  0.18925292  0.53224135  1
  O2-  O200  1  0.11632000  0.55624009  0.03179179  1
  O2-  O201  1  0.11162545  0.56437102  0.53000330  1
  O2-  O202  1  0.19159408  0.92128828  0.05777575  1
  O2-  O203  1  0.20857923  0.95773928  0.55232625  1
  O2-  O204  1  0.45423107  0.23100435  0.03235701  1
  O2-  O205  1  0.45911284  0.24042739  0.53410791  1
  O2-  O206  1  0.45269296  0.55697070  0.03855808  1
  O2-  O207  1  0.44982190  0.56223827  0.53523891  1
  O2-  O208  1  0.46780185  0.89980025  0.03945049  1
  O2-  O209  1  0.44783332  0.88548168  0.53293347  1
  O2-  O210  1  0.78284840  0.22546239  0.01878704  1
  O2-  O211  1  0.74721994  0.19947107  0.54643145  1
  O2-  O212  1  0.79305229  0.57273264  0.01750265  1
  O2-  O213  1  0.78111936  0.58836313  0.53329891  1
  O2-  O214  1  0.73002663  0.87132395  -0.01431683  1
  O2-  O215  1  0.77087646  0.89121475  0.52777446  1
